0
                    3D
 Structure written by MMmdl.
161169  0  0  1  0            999 V2000
  -30.6742  -14.5307   20.5686 C   0  0  0  0  0  0
  -30.4318  -12.3480   19.4210 C   0  0  0  0  0  0
  -29.4964  -12.5084   18.2044 C   0  0  0  0  0  0
  -28.0184  -12.3610   18.6202 C   0  0  0  0  0  0
  -27.6573  -13.2108   19.8671 C   0  0  2  0  0  0
  -28.7015  -13.0127   20.9874 C   0  0  0  0  0  0
  -25.2567  -13.8156   20.5675 C   0  0  0  0  0  0
  -24.1831  -13.0427   20.9179 C   0  0  0  0  0  0
  -24.6396  -11.6893   20.8734 C   0  0  0  0  0  0
  -23.9065  -10.4284   21.0407 C   0  0  0  0  0  0
  -24.3617   -9.4201   21.9186 C   0  0  0  0  0  0
  -23.6292   -8.2238   22.0754 C   0  0  0  0  0  0
  -22.4273   -8.0276   21.3543 C   0  0  0  0  0  0
  -21.9908   -9.0250   20.4646 C   0  0  0  0  0  0
  -22.7236  -10.2128   20.3057 C   0  0  0  0  0  0
  -21.6853   -6.0731   22.5279 C   0  0  0  0  0  0
  -21.4010   -6.5638   23.8211 C   0  0  0  0  0  0
  -21.3659   -5.6792   24.9179 C   0  0  0  0  0  0
  -21.6045   -4.3053   24.7231 C   0  0  0  0  0  0
  -21.8819   -3.8143   23.4352 C   0  0  0  0  0  0
  -21.9192   -4.6959   22.3405 C   0  0  0  0  0  0
  -22.7854  -13.5218   21.1852 C   0  0  0  0  0  0
  -22.1665   -4.2141   21.0981 F   0  0  0  0  0  0
  -21.5631   -3.4537   25.7747 F   0  0  0  0  0  0
  -30.0237  -13.3404   20.4287 N   0  0  0  0  0  0
  -26.3004  -12.9338   20.3330 N   0  0  0  0  0  0
  -25.9321  -11.6494   20.5751 N   0  0  0  0  0  0
  -22.0506  -12.8207   22.0414 N   0  0  0  0  0  0
  -25.4262  -15.1878   20.4091 N   0  0  0  0  0  0
  -31.8173  -14.7186   20.1464 O   0  0  0  0  0  0
  -21.6635   -6.8873   21.4240 O   0  0  0  0  0  0
  -22.3546  -14.5536   20.6708 O   0  0  0  0  0  0
  -24.6167  -31.8647   23.2067 C   0  0  0  0  0  0
  -25.9041  -32.4803   23.8382 C   0  0  1  0  0  0
  -27.2404  -27.3998   20.1095 C   0  0  0  0  0  0
  -25.5863  -33.8600   24.2300 N   0  0  0  0  0  0
  -23.4082  -30.4859   21.5476 C   0  0  2  0  0  0
  -24.8588  -28.9401   20.1194 C   0  0  0  0  0  0
  -22.7429  -29.4652   22.4989 C   0  0  0  0  0  0
  -18.0283  -28.1371   22.8497 C   0  0  0  0  0  0
  -24.1486  -36.7322   23.2640 C   0  0  0  0  0  0
  -25.9398  -30.8197   21.3642 C   0  0  0  0  0  0
  -26.0207  -29.4500   20.7134 C   0  0  0  0  0  0
  -27.2178  -28.6907   20.6982 C   0  0  0  0  0  0
  -26.0610  -26.9075   19.5155 C   0  0  0  0  0  0
  -24.8750  -27.6694   19.5156 C   0  0  0  0  0  0
  -23.6207  -29.8107   20.1655 C   0  0  0  0  0  0
  -25.4106  -36.3098   24.0327 C   0  0  1  0  0  0
  -20.5871  -28.3668   23.1314 C   0  0  2  0  0  0
  -20.6782  -26.9405   22.5415 C   0  0  0  0  0  0
  -19.5760  -26.6384   21.5215 C   0  0  0  0  0  0
  -18.1936  -26.7921   22.1629 C   0  0  0  0  0  0
  -19.1533  -28.8836   23.2904 C   0  0  0  0  0  0
  -18.9463  -30.1439   23.8913 C   0  0  0  0  0  0
  -17.6465  -30.6583   24.0562 C   0  0  0  0  0  0
  -25.9030  -34.9463   23.5123 C   0  0  0  0  0  0
  -16.5356  -29.9083   23.6325 C   0  0  0  0  0  0
  -16.7274  -28.6493   23.0353 C   0  0  0  0  0  0
  -26.4456  -31.6588   25.0727 C   0  0  0  0  0  0
  -25.3721  -31.3671   26.1469 C   0  0  0  0  0  0
  -27.0278  -30.3023   24.6103 C   0  0  0  0  0  0
  -27.6024  -32.4313   25.7477 C   0  0  0  0  0  0
  -27.5588  -37.1803   24.8454 C   0  0  0  0  0  0
  -21.4155  -29.3031   22.3710 N   0  0  0  0  0  0
  -26.4290  -37.3782   23.9408 N   0  0  0  0  0  0
  -24.6735  -31.0718   22.0979 N   0  0  0  0  0  0
  -23.4185  -28.8213   23.3062 O   0  0  0  0  0  0
  -28.3950  -26.6357   20.0751 O   0  0  0  0  0  0
  -26.5629  -34.8921   22.4706 O   0  0  0  0  0  0
  -23.5346  -32.1417   23.7432 O   0  0  0  0  0  0
  -29.6670  -20.4099   20.5978 C   0  0  0  0  0  0
  -28.1952  -18.7413   19.6728 C   0  0  0  0  0  0
  -29.4551  -19.0539   20.2072 C   0  0  0  0  0  0
  -28.6304  -21.3799   20.4476 C   0  0  0  0  0  0
  -27.4048  -20.9215   19.9041 C   0  0  0  0  0  0
  -26.1900  -21.8172   19.7261 C   0  0  0  0  0  0
  -31.9589  -18.4927   20.2320 C   0  0  0  0  0  0
  -28.7932  -22.8230   21.0044 C   0  0  0  0  0  0
  -28.6334  -24.0685   20.0560 C   0  0  0  0  0  0
  -30.3623  -16.9115   21.4451 C   0  0  0  0  0  0
  -28.3829  -25.4031   20.8393 C   0  0  0  0  0  0
  -30.5257  -17.9324   20.2665 C   0  0  1  0  0  0
  -27.2052  -19.6428   19.5205 N   0  0  0  0  0  0
  -29.9348  -15.5412   21.0801 N   0  0  0  0  0  0
  -31.4726  -12.4711   19.1159 H   0  0  0  0  0  0
  -30.3581  -11.3415   19.8349 H   0  0  0  0  0  0
  -29.7434  -11.7701   17.4400 H   0  0  0  0  0  0
  -29.6532  -13.4860   17.7456 H   0  0  0  0  0  0
  -27.8383  -11.3060   18.8296 H   0  0  0  0  0  0
  -27.3651  -12.6198   17.7856 H   0  0  0  0  0  0
  -27.6924  -14.2548   19.5557 H   0  0  0  0  0  0
  -28.6952  -11.9786   21.3352 H   0  0  0  0  0  0
  -28.4561  -13.6154   21.8630 H   0  0  0  0  0  0
  -25.2763   -9.5677   22.4759 H   0  0  0  0  0  0
  -23.9997   -7.4632   22.7478 H   0  0  0  0  0  0
  -21.0835   -8.8770   19.8962 H   0  0  0  0  0  0
  -22.3692  -10.9668   19.6165 H   0  0  0  0  0  0
  -21.1998   -7.6145   23.9712 H   0  0  0  0  0  0
  -21.1482   -6.0525   25.9083 H   0  0  0  0  0  0
  -22.0598   -2.7604   23.2858 H   0  0  0  0  0  0
  -22.4131  -11.9865   22.4784 H   0  0  0  0  0  0
  -21.1129  -13.1227   22.2634 H   0  0  0  0  0  0
  -24.6525  -15.8359   20.5080 H   0  0  0  0  0  0
  -26.2715  -15.6296   20.0732 H   0  0  0  0  0  0
  -26.7118  -32.5505   23.1147 H   0  0  0  0  0  0
  -24.9922  -33.9747   25.0380 H   0  0  0  0  0  0
  -22.6977  -31.3027   21.4046 H   0  0  0  0  0  0
  -23.3730  -35.9674   23.3284 H   0  0  0  0  0  0
  -24.3576  -36.8968   22.2060 H   0  0  0  0  0  0
  -23.7267  -37.6528   23.6681 H   0  0  0  0  0  0
  -26.0565  -31.5844   20.5948 H   0  0  0  0  0  0
  -26.8254  -30.8745   21.9858 H   0  0  0  0  0  0
  -28.1181  -29.0840   21.1502 H   0  0  0  0  0  0
  -26.0613  -25.9322   19.0493 H   0  0  0  0  0  0
  -23.9816  -27.2693   19.0544 H   0  0  0  0  0  0
  -23.7269  -30.5822   19.4015 H   0  0  0  0  0  0
  -22.7448  -29.2279   19.8751 H   0  0  0  0  0  0
  -25.1286  -36.1946   25.0818 H   0  0  0  0  0  0
  -20.9971  -28.3249   24.1431 H   0  0  0  0  0  0
  -20.5698  -26.2284   23.3609 H   0  0  0  0  0  0
  -21.6659  -26.7468   22.1211 H   0  0  0  0  0  0
  -19.6924  -25.6301   21.1237 H   0  0  0  0  0  0
  -19.6687  -27.3203   20.6751 H   0  0  0  0  0  0
  -17.4219  -26.6666   21.4023 H   0  0  0  0  0  0
  -18.0336  -26.0052   22.9011 H   0  0  0  0  0  0
  -19.7938  -30.7243   24.2298 H   0  0  0  0  0  0
  -17.5027  -31.6262   24.5161 H   0  0  0  0  0  0
  -15.5357  -30.2991   23.7637 H   0  0  0  0  0  0
  -15.8677  -28.0813   22.7066 H   0  0  0  0  0  0
  -24.5897  -30.7015   25.7793 H   0  0  0  0  0  0
  -24.8901  -32.2813   26.4947 H   0  0  0  0  0  0
  -25.8090  -30.8819   27.0207 H   0  0  0  0  0  0
  -26.2822  -29.6774   24.1176 H   0  0  0  0  0  0
  -27.4052  -29.7262   25.4561 H   0  0  0  0  0  0
  -27.8657  -30.4316   23.9252 H   0  0  0  0  0  0
  -27.2646  -33.3611   26.2063 H   0  0  0  0  0  0
  -28.3826  -32.6874   25.0299 H   0  0  0  0  0  0
  -28.0701  -31.8437   26.5382 H   0  0  0  0  0  0
  -28.2578  -38.0128   24.7535 H   0  0  0  0  0  0
  -28.1118  -36.2661   24.6237 H   0  0  0  0  0  0
  -27.2309  -37.1396   25.8857 H   0  0  0  0  0  0
  -20.9331  -29.8727   21.6894 H   0  0  0  0  0  0
  -26.0168  -38.2852   24.1417 H   0  0  0  0  0  0
  -30.6134  -20.7091   21.0247 H   0  0  0  0  0  0
  -27.9734  -17.7372   19.3440 H   0  0  0  0  0  0
  -26.1383  -22.5975   20.4838 H   0  0  0  0  0  0
  -25.2655  -21.2431   19.8004 H   0  0  0  0  0  0
  -26.2090  -22.2856   18.7422 H   0  0  0  0  0  0
  -32.1049  -19.1588   19.3810 H   0  0  0  0  0  0
  -32.6860  -17.6860   20.1365 H   0  0  0  0  0  0
  -32.2050  -19.0430   21.1405 H   0  0  0  0  0  0
  -29.7636  -22.8973   21.4956 H   0  0  0  0  0  0
  -28.0690  -22.9127   21.8145 H   0  0  0  0  0  0
  -27.8032  -23.9332   19.3657 H   0  0  0  0  0  0
  -29.5243  -24.1609   19.4335 H   0  0  0  0  0  0
  -29.6600  -17.3055   22.1812 H   0  0  0  0  0  0
  -31.3033  -16.8138   21.9896 H   0  0  0  0  0  0
  -29.1684  -25.5070   21.5883 H   0  0  0  0  0  0
  -27.4567  -25.3111   21.4092 H   0  0  0  0  0  0
  -30.4121  -17.3724   19.3362 H   0  0  0  0  0  0
  -28.9917  -15.2917   21.3372 H   0  0  0  0  0  0
  1 25  1  0  0  0
  1 30  2  0  0  0
  1 84  1  0  0  0
  2  3  1  0  0  0
  2 25  1  0  0  0
  2 85  1  0  0  0
  2 86  1  0  0  0
  3  4  1  0  0  0
  3 87  1  0  0  0
  3 88  1  0  0  0
  4  5  1  0  0  0
  4 89  1  0  0  0
  4 90  1  0  0  0
  5  6  1  0  0  0
  5 26  1  0  0  0
  5 91  1  0  0  0
  6 25  1  0  0  0
  6 92  1  0  0  0
  6 93  1  0  0  0
  7  8  2  0  0  0
  7 26  1  0  0  0
  7 29  1  0  0  0
  8  9  1  0  0  0
  8 22  1  0  0  0
  9 10  1  0  0  0
  9 27  2  0  0  0
 10 11  2  0  0  0
 10 15  1  0  0  0
 11 12  1  0  0  0
 11 94  1  0  0  0
 12 13  2  0  0  0
 12 95  1  0  0  0
 13 14  1  0  0  0
 13 31  1  0  0  0
 14 15  2  0  0  0
 14 96  1  0  0  0
 15 97  1  0  0  0
 16 17  2  0  0  0
 16 21  1  0  0  0
 16 31  1  0  0  0
 17 18  1  0  0  0
 17 98  1  0  0  0
 18 19  2  0  0  0
 18 99  1  0  0  0
 19 20  1  0  0  0
 19 24  1  0  0  0
 20 21  2  0  0  0
 20100  1  0  0  0
 21 23  1  0  0  0
 22 28  1  0  0  0
 22 32  2  0  0  0
 26 27  1  0  0  0
 28101  1  0  0  0
 28102  1  0  0  0
 29103  1  0  0  0
 29104  1  0  0  0
 33 34  1  0  0  0
 33 66  1  0  0  0
 33 70  2  0  0  0
 34 36  1  0  0  0
 34 59  1  0  0  0
 34105  1  0  0  0
 35 44  2  0  0  0
 35 45  1  0  0  0
 35 68  1  0  0  0
 36 56  1  0  0  0
 36106  1  0  0  0
 37 39  1  0  0  0
 37 47  1  0  0  0
 37 66  1  0  0  0
 37107  1  0  0  0
 38 43  2  0  0  0
 38 46  1  0  0  0
 38 47  1  0  0  0
 39 64  1  0  0  0
 39 67  2  0  0  0
 40 52  1  0  0  0
 40 53  2  0  0  0
 40 58  1  0  0  0
 41108  1  0  0  0
 41109  1  0  0  0
 41110  1  0  0  0
 41 48  1  0  0  0
 42 43  1  0  0  0
 42 66  1  0  0  0
 42111  1  0  0  0
 42112  1  0  0  0
 43 44  1  0  0  0
 44113  1  0  0  0
 45 46  2  0  0  0
 45114  1  0  0  0
 46115  1  0  0  0
 47116  1  0  0  0
 47117  1  0  0  0
 48 56  1  0  0  0
 48 65  1  0  0  0
 48118  1  0  0  0
 49 50  1  0  0  0
 49 53  1  0  0  0
 49 64  1  0  0  0
 49119  1  0  0  0
 50 51  1  0  0  0
 50120  1  0  0  0
 50121  1  0  0  0
 51 52  1  0  0  0
 51122  1  0  0  0
 51123  1  0  0  0
 52124  1  0  0  0
 52125  1  0  0  0
 53 54  1  0  0  0
 54 55  2  0  0  0
 54126  1  0  0  0
 55 57  1  0  0  0
 55127  1  0  0  0
 56 69  2  0  0  0
 57 58  2  0  0  0
 57128  1  0  0  0
 58129  1  0  0  0
 59 60  1  0  0  0
 59 61  1  0  0  0
 59 62  1  0  0  0
 60130  1  0  0  0
 60131  1  0  0  0
 60132  1  0  0  0
 61133  1  0  0  0
 61134  1  0  0  0
 61135  1  0  0  0
 62136  1  0  0  0
 62137  1  0  0  0
 62138  1  0  0  0
 63 65  1  0  0  0
 63139  1  0  0  0
 63140  1  0  0  0
 63141  1  0  0  0
 64142  1  0  0  0
 65143  1  0  0  0
 68 81  1  0  0  0
 71 73  2  0  0  0
 71 74  1  0  0  0
 71144  1  0  0  0
 72 73  1  0  0  0
 72 83  2  0  0  0
 72145  1  0  0  0
 73 82  1  0  0  0
 74 75  2  0  0  0
 74 78  1  0  0  0
 75 76  1  0  0  0
 75 83  1  0  0  0
 76146  1  0  0  0
 76147  1  0  0  0
 76148  1  0  0  0
 77149  1  0  0  0
 77150  1  0  0  0
 77151  1  0  0  0
 77 82  1  0  0  0
 78 79  1  0  0  0
 78152  1  0  0  0
 78153  1  0  0  0
 79 81  1  0  0  0
 79154  1  0  0  0
 79155  1  0  0  0
 80 82  1  0  0  0
 80 84  1  0  0  0
 80156  1  0  0  0
 80157  1  0  0  0
 81158  1  0  0  0
 81159  1  0  0  0
 82160  1  0  0  0
 84161  1  0  0  0
M  ISO  4   1 100  68 101  81 101  84 100
M  END
> <chiral flag>
0

> <version>
0

> <s_m_source_file>
/data/baiqing/PycharmProjects/Reinvent-master-3.2/result/LINK_invent/BTK/process_docking_weight1_custom_sum_contain_oxygen_bond_distance_aromatic_linkinvent_7_9_3/rearranged_h_0082.sdf

> <i_m_source_file_index>
1

> <r_mmod_Potential_Energy-OPLS-2005>
-210.716918945312

> <r_mmod_Stretch_Energy-OPLS-2005>
50.2612113952637

> <r_mmod_Bend_Energy-OPLS-2005>
112.91284942627

> <r_mmod_Torsional_Energy-OPLS-2005>
244.220932006836

> <r_mmod_Improper_Torsional_Energy-OPLS-2005>
3.7643506526947

> <r_mmod_Van_der_Waal_Energy-OPLS-2005>
143.547027587891

> <r_mmod_Electrostatic_Energy-OPLS-2005>
-568.592041015625

> <r_mmod_Solvation_Energy-OPLS-2005>
-216.349456787109

> <b_mmod_Minimization_Converged-OPLS-2005>
0

> <r_mmod_RMS_Derivative-OPLS-2005>
1.55249512195587

$$$$
1
                    3D
 Structure written by MMmdl.
162170  0  0  1  0            999 V2000
  -30.7140  -14.5986   20.5171 C   0  0  0  0  0  0
  -30.4333  -12.3728   19.4531 C   0  0  0  0  0  0
  -29.5021  -12.4789   18.2272 C   0  0  0  0  0  0
  -28.0285  -12.3123   18.6484 C   0  0  0  0  0  0
  -27.6533  -13.1978   19.8617 C   0  0  2  0  0  0
  -28.7091  -13.0751   20.9886 C   0  0  0  0  0  0
  -25.2561  -13.8159   20.5646 C   0  0  0  0  0  0
  -24.1808  -13.0444   20.9188 C   0  0  0  0  0  0
  -24.6364  -11.6924   20.8764 C   0  0  0  0  0  0
  -23.9060  -10.4312   21.0417 C   0  0  0  0  0  0
  -24.3642   -9.4262   21.9182 C   0  0  0  0  0  0
  -23.6337   -8.2295   22.0775 C   0  0  0  0  0  0
  -22.4324   -8.0323   21.3566 C   0  0  0  0  0  0
  -21.9936   -9.0279   20.4659 C   0  0  0  0  0  0
  -22.7252  -10.2147   20.3056 C   0  0  0  0  0  0
  -21.6885   -6.0785   22.5304 C   0  0  0  0  0  0
  -21.4047   -6.5672   23.8240 C   0  0  0  0  0  0
  -21.3625   -5.6797   24.9186 C   0  0  0  0  0  0
  -21.6013   -4.3064   24.7230 C   0  0  0  0  0  0
  -21.8836   -3.8180   23.4344 C   0  0  0  0  0  0
  -21.9224   -4.7011   22.3419 C   0  0  0  0  0  0
  -22.7839  -13.5266   21.1829 C   0  0  0  0  0  0
  -22.1698   -4.2202   21.0993 F   0  0  0  0  0  0
  -21.5576   -3.4541   25.7739 F   0  0  0  0  0  0
  -30.0221  -13.4147   20.4199 N   0  0  0  0  0  0
  -26.2997  -12.9295   20.3372 N   0  0  0  0  0  0
  -25.9305  -11.6484   20.5859 N   0  0  0  0  0  0
  -22.0471  -12.8265   22.0386 N   0  0  0  0  0  0
  -25.4166  -15.1863   20.3946 N   0  0  0  0  0  0
  -31.8646  -14.6475   20.0757 O   0  0  0  0  0  0
  -21.6668   -6.8935   21.4273 O   0  0  0  0  0  0
  -22.3548  -14.5579   20.6689 O   0  0  0  0  0  0
  -24.6213  -31.8643   23.2094 C   0  0  0  0  0  0
  -25.9089  -32.4786   23.8387 C   0  0  1  0  0  0
  -27.2134  -27.3614   20.1018 C   0  0  0  0  0  0
  -25.5936  -33.8587   24.2305 N   0  0  0  0  0  0
  -23.4104  -30.4950   21.5514 C   0  0  2  0  0  0
  -24.8542  -28.9674   20.1115 C   0  0  0  0  0  0
  -22.7435  -29.4652   22.4940 C   0  0  0  0  0  0
  -18.0282  -28.1373   22.8493 C   0  0  0  0  0  0
  -24.1504  -36.7281   23.2637 C   0  0  0  0  0  0
  -25.9517  -30.8127   21.3769 C   0  0  0  0  0  0
  -26.0260  -29.4484   20.7096 C   0  0  0  0  0  0
  -27.2101  -28.6567   20.6975 C   0  0  0  0  0  0
  -26.0132  -26.9348   19.4789 C   0  0  0  0  0  0
  -24.8471  -27.7130   19.4922 C   0  0  0  0  0  0
  -23.6224  -29.8411   20.1636 C   0  0  0  0  0  0
  -25.4126  -36.3065   24.0322 C   0  0  1  0  0  0
  -20.5883  -28.3671   23.1301 C   0  0  2  0  0  0
  -20.6786  -26.9403   22.5412 C   0  0  0  0  0  0
  -19.5756  -26.6382   21.5216 C   0  0  0  0  0  0
  -18.1932  -26.7923   22.1624 C   0  0  0  0  0  0
  -19.1536  -28.8838   23.2896 C   0  0  0  0  0  0
  -18.9456  -30.1452   23.8897 C   0  0  0  0  0  0
  -17.6455  -30.6584   24.0561 C   0  0  0  0  0  0
  -25.9054  -34.9447   23.5098 C   0  0  0  0  0  0
  -16.5350  -29.9078   23.6340 C   0  0  0  0  0  0
  -16.7269  -28.6498   23.0356 C   0  0  0  0  0  0
  -26.4521  -31.6568   25.0718 C   0  0  0  0  0  0
  -25.3779  -31.3699   26.1453 C   0  0  0  0  0  0
  -27.0362  -30.2988   24.6161 C   0  0  0  0  0  0
  -27.6070  -32.4305   25.7493 C   0  0  0  0  0  0
  -27.5580  -37.1795   24.8465 C   0  0  0  0  0  0
  -21.4158  -29.3035   22.3685 N   0  0  0  0  0  0
  -26.4296  -37.3759   23.9401 N   0  0  0  0  0  0
  -24.6792  -31.0720   22.1020 N   0  0  0  0  0  0
  -23.4184  -28.8178   23.2979 O   0  0  0  0  0  0
  -28.3302  -26.5159   20.1539 O   0  0  0  0  0  0
  -26.5606  -34.8902   22.4651 O   0  0  0  0  0  0
  -23.5397  -32.1417   23.7460 O   0  0  0  0  0  0
  -29.7816  -20.8146   21.5605 C   0  0  0  0  0  0
  -29.9624  -19.2206   19.3476 C   0  0  0  0  0  0
  -30.3741  -19.5356   21.6967 C   0  0  0  0  0  0
  -30.4288  -18.6718   20.5671 C   0  0  0  0  0  0
  -29.3070  -21.2540   20.3097 C   0  0  0  0  0  0
  -30.9470  -19.1566   23.0496 C   0  0  0  0  0  0
  -30.2021  -15.8902   22.6123 C   0  0  0  0  0  0
  -28.6848  -16.2710   20.6479 C   0  0  0  0  0  0
  -31.0261  -17.2238   20.5900 C   0  0  0  0  0  0
  -28.4636  -22.5450   20.1615 C   0  0  0  0  0  0
  -29.1137  -23.9713   20.2940 C   0  0  0  0  0  0
  -28.0341  -25.0832   20.0438 C   0  0  0  0  0  0
  -30.1401  -15.9790   21.0756 C   0  0  0  0  0  0
  -29.4301  -20.4646   19.2160 N   0  0  0  0  0  0
  -31.4716  -12.4663   19.1366 H   0  0  0  0  0  0
  -30.3616  -11.3835   19.9079 H   0  0  0  0  0  0
  -29.7628  -11.7144   17.4942 H   0  0  0  0  0  0
  -29.6540  -13.4384   17.7321 H   0  0  0  0  0  0
  -27.8709  -11.2633   18.9024 H   0  0  0  0  0  0
  -27.3693  -12.5284   17.8094 H   0  0  0  0  0  0
  -27.6526  -14.2065   19.4643 H   0  0  0  0  0  0
  -28.7282  -12.0570   21.3806 H   0  0  0  0  0  0
  -28.4581  -13.6937   21.8478 H   0  0  0  0  0  0
  -25.2804   -9.5766   22.4720 H   0  0  0  0  0  0
  -24.0063   -7.4712   22.7519 H   0  0  0  0  0  0
  -21.0855   -8.8783   19.8986 H   0  0  0  0  0  0
  -22.3722  -10.9673   19.6145 H   0  0  0  0  0  0
  -21.2079   -7.6175   23.9772 H   0  0  0  0  0  0
  -21.1378   -6.0502   25.9080 H   0  0  0  0  0  0
  -22.0632   -2.7645   23.2818 H   0  0  0  0  0  0
  -22.4091  -11.9953   22.4793 H   0  0  0  0  0  0
  -21.1100  -13.1292   22.2601 H   0  0  0  0  0  0
  -24.6485  -15.8352   20.5232 H   0  0  0  0  0  0
  -26.2625  -15.6402   20.0735 H   0  0  0  0  0  0
  -26.7144  -32.5488   23.1133 H   0  0  0  0  0  0
  -25.0104  -33.9753   25.0465 H   0  0  0  0  0  0
  -22.7001  -31.3140   21.4149 H   0  0  0  0  0  0
  -23.3744  -35.9633   23.3317 H   0  0  0  0  0  0
  -24.3596  -36.8879   22.2045 H   0  0  0  0  0  0
  -23.7289  -37.6503   23.6652 H   0  0  0  0  0  0
  -26.0866  -31.5892   20.6231 H   0  0  0  0  0  0
  -26.8302  -30.8480   22.0095 H   0  0  0  0  0  0
  -28.1101  -29.0205   21.1748 H   0  0  0  0  0  0
  -25.9230  -25.9848   18.9775 H   0  0  0  0  0  0
  -23.9466  -27.3364   19.0270 H   0  0  0  0  0  0
  -23.7377  -30.6225   19.4108 H   0  0  0  0  0  0
  -22.7439  -29.2694   19.8596 H   0  0  0  0  0  0
  -25.1313  -36.1908   25.0814 H   0  0  0  0  0  0
  -20.9986  -28.3244   24.1415 H   0  0  0  0  0  0
  -20.5725  -26.2260   23.3592 H   0  0  0  0  0  0
  -21.6653  -26.7463   22.1181 H   0  0  0  0  0  0
  -19.6927  -25.6296   21.1233 H   0  0  0  0  0  0
  -19.6713  -27.3202   20.6754 H   0  0  0  0  0  0
  -17.4213  -26.6675   21.4018 H   0  0  0  0  0  0
  -18.0336  -26.0065   22.9016 H   0  0  0  0  0  0
  -19.7934  -30.7274   24.2255 H   0  0  0  0  0  0
  -17.5012  -31.6272   24.5141 H   0  0  0  0  0  0
  -15.5350  -30.2973   23.7674 H   0  0  0  0  0  0
  -15.8670  -28.0820   22.7064 H   0  0  0  0  0  0
  -24.5928  -30.7081   25.7788 H   0  0  0  0  0  0
  -24.9019  -32.2874   26.4921 H   0  0  0  0  0  0
  -25.8124  -30.8839   27.0196 H   0  0  0  0  0  0
  -26.2933  -29.6710   24.1224 H   0  0  0  0  0  0
  -27.4100  -29.7268   25.4667 H   0  0  0  0  0  0
  -27.8793  -30.4256   23.9359 H   0  0  0  0  0  0
  -27.2652  -33.3574   26.2117 H   0  0  0  0  0  0
  -28.3871  -32.6911   25.0323 H   0  0  0  0  0  0
  -28.0756  -31.8401   26.5381 H   0  0  0  0  0  0
  -28.2592  -38.0097   24.7486 H   0  0  0  0  0  0
  -28.1078  -36.2612   24.6321 H   0  0  0  0  0  0
  -27.2285  -37.1479   25.8868 H   0  0  0  0  0  0
  -20.9289  -29.8746   21.6923 H   0  0  0  0  0  0
  -26.0163  -38.2824   24.1410 H   0  0  0  0  0  0
  -29.6634  -21.4494   22.4277 H   0  0  0  0  0  0
  -30.0163  -18.6411   18.4366 H   0  0  0  0  0  0
  -31.9060  -18.6493   22.9490 H   0  0  0  0  0  0
  -30.2653  -18.5333   23.6197 H   0  0  0  0  0  0
  -31.1153  -20.0457   23.6565 H   0  0  0  0  0  0
  -29.5738  -16.6534   23.0612 H   0  0  0  0  0  0
  -31.2208  -15.9989   22.9880 H   0  0  0  0  0  0
  -29.8286  -14.9420   22.9932 H   0  0  0  0  0  0
  -28.3656  -17.2778   20.9146 H   0  0  0  0  0  0
  -27.9677  -15.6383   21.1592 H   0  0  0  0  0  0
  -28.5648  -16.1782   19.5694 H   0  0  0  0  0  0
  -31.9684  -17.2412   21.1375 H   0  0  0  0  0  0
  -31.3389  -17.0392   19.5591 H   0  0  0  0  0  0
  -27.6607  -22.4647   20.8953 H   0  0  0  0  0  0
  -27.9611  -22.4927   19.1950 H   0  0  0  0  0  0
  -29.9241  -24.0766   19.5740 H   0  0  0  0  0  0
  -29.5539  -24.0826   21.2858 H   0  0  0  0  0  0
  -27.2022  -24.8640   20.7182 H   0  0  0  0  0  0
  -27.6777  -24.8932   19.0322 H   0  0  0  0  0  0
  1 25  1  0  0  0
  1 30  2  0  0  0
  1 83  1  0  0  0
  2  3  1  0  0  0
  2 25  1  0  0  0
  2 85  1  0  0  0
  2 86  1  0  0  0
  3  4  1  0  0  0
  3 87  1  0  0  0
  3 88  1  0  0  0
  4  5  1  0  0  0
  4 89  1  0  0  0
  4 90  1  0  0  0
  5  6  1  0  0  0
  5 26  1  0  0  0
  5 91  1  0  0  0
  6 25  1  0  0  0
  6 92  1  0  0  0
  6 93  1  0  0  0
  7  8  2  0  0  0
  7 26  1  0  0  0
  7 29  1  0  0  0
  8  9  1  0  0  0
  8 22  1  0  0  0
  9 10  1  0  0  0
  9 27  2  0  0  0
 10 11  2  0  0  0
 10 15  1  0  0  0
 11 12  1  0  0  0
 11 94  1  0  0  0
 12 13  2  0  0  0
 12 95  1  0  0  0
 13 14  1  0  0  0
 13 31  1  0  0  0
 14 15  2  0  0  0
 14 96  1  0  0  0
 15 97  1  0  0  0
 16 17  2  0  0  0
 16 21  1  0  0  0
 16 31  1  0  0  0
 17 18  1  0  0  0
 17 98  1  0  0  0
 18 19  2  0  0  0
 18 99  1  0  0  0
 19 20  1  0  0  0
 19 24  1  0  0  0
 20 21  2  0  0  0
 20100  1  0  0  0
 21 23  1  0  0  0
 22 28  1  0  0  0
 22 32  2  0  0  0
 26 27  1  0  0  0
 28101  1  0  0  0
 28102  1  0  0  0
 29103  1  0  0  0
 29104  1  0  0  0
 33 34  1  0  0  0
 33 66  1  0  0  0
 33 70  2  0  0  0
 34 36  1  0  0  0
 34 59  1  0  0  0
 34105  1  0  0  0
 35 44  2  0  0  0
 35 45  1  0  0  0
 35 68  1  0  0  0
 36 56  1  0  0  0
 36106  1  0  0  0
 37 39  1  0  0  0
 37 47  1  0  0  0
 37 66  1  0  0  0
 37107  1  0  0  0
 38 43  2  0  0  0
 38 46  1  0  0  0
 38 47  1  0  0  0
 39 64  1  0  0  0
 39 67  2  0  0  0
 40 52  1  0  0  0
 40 53  2  0  0  0
 40 58  1  0  0  0
 41108  1  0  0  0
 41109  1  0  0  0
 41110  1  0  0  0
 41 48  1  0  0  0
 42 43  1  0  0  0
 42 66  1  0  0  0
 42111  1  0  0  0
 42112  1  0  0  0
 43 44  1  0  0  0
 44113  1  0  0  0
 45 46  2  0  0  0
 45114  1  0  0  0
 46115  1  0  0  0
 47116  1  0  0  0
 47117  1  0  0  0
 48 56  1  0  0  0
 48 65  1  0  0  0
 48118  1  0  0  0
 49 50  1  0  0  0
 49 53  1  0  0  0
 49 64  1  0  0  0
 49119  1  0  0  0
 50 51  1  0  0  0
 50120  1  0  0  0
 50121  1  0  0  0
 51 52  1  0  0  0
 51122  1  0  0  0
 51123  1  0  0  0
 52124  1  0  0  0
 52125  1  0  0  0
 53 54  1  0  0  0
 54 55  2  0  0  0
 54126  1  0  0  0
 55 57  1  0  0  0
 55127  1  0  0  0
 56 69  2  0  0  0
 57 58  2  0  0  0
 57128  1  0  0  0
 58129  1  0  0  0
 59 60  1  0  0  0
 59 61  1  0  0  0
 59 62  1  0  0  0
 60130  1  0  0  0
 60131  1  0  0  0
 60132  1  0  0  0
 61133  1  0  0  0
 61134  1  0  0  0
 61135  1  0  0  0
 62136  1  0  0  0
 62137  1  0  0  0
 62138  1  0  0  0
 63 65  1  0  0  0
 63139  1  0  0  0
 63140  1  0  0  0
 63141  1  0  0  0
 64142  1  0  0  0
 65143  1  0  0  0
 68 82  1  0  0  0
 71 73  2  0  0  0
 71 75  1  0  0  0
 71144  1  0  0  0
 72 74  2  0  0  0
 72 84  1  0  0  0
 72145  1  0  0  0
 73 74  1  0  0  0
 73 76  1  0  0  0
 74 79  1  0  0  0
 75 80  1  0  0  0
 75 84  2  0  0  0
 76146  1  0  0  0
 76147  1  0  0  0
 76148  1  0  0  0
 77149  1  0  0  0
 77150  1  0  0  0
 77151  1  0  0  0
 77 83  1  0  0  0
 78 83  1  0  0  0
 78152  1  0  0  0
 78153  1  0  0  0
 78154  1  0  0  0
 79 83  1  0  0  0
 79155  1  0  0  0
 79156  1  0  0  0
 80 81  1  0  0  0
 80157  1  0  0  0
 80158  1  0  0  0
 81 82  1  0  0  0
 81159  1  0  0  0
 81160  1  0  0  0
 82161  1  0  0  0
 82162  1  0  0  0
M  ISO  4   1 100  68 101  82 101  83 100
M  END
> <chiral flag>
0

> <version>
0

> <s_m_source_file>
/data/baiqing/PycharmProjects/Reinvent-master-3.2/result/LINK_invent/BTK/process_docking_weight1_custom_sum_contain_oxygen_bond_distance_aromatic_linkinvent_7_9_3/rearranged_h_0082.sdf

> <i_m_source_file_index>
2

> <r_mmod_Potential_Energy-OPLS-2005>
-53.959587097168

> <r_mmod_Stretch_Energy-OPLS-2005>
68.1943588256836

> <r_mmod_Bend_Energy-OPLS-2005>
145.997100830078

> <r_mmod_Torsional_Energy-OPLS-2005>
192.531478881836

> <r_mmod_Improper_Torsional_Energy-OPLS-2005>
2.85342288017273

> <r_mmod_Van_der_Waal_Energy-OPLS-2005>
173.907989501953

> <r_mmod_Electrostatic_Energy-OPLS-2005>
-477.406646728516

> <r_mmod_Solvation_Energy-OPLS-2005>
-197.435653686523

> <b_mmod_Minimization_Converged-OPLS-2005>
0

> <r_mmod_RMS_Derivative-OPLS-2005>
3.79570317268372

$$$$
2
                    3D
 Structure written by MMmdl.
162170  0  0  1  0            999 V2000
  -30.5723  -14.8648   20.4371 C   0  0  0  0  0  0
  -30.4408  -12.5293   19.4892 C   0  0  0  0  0  0
  -29.5226  -12.5215   18.2457 C   0  0  0  0  0  0
  -28.0519  -12.3244   18.6613 C   0  0  0  0  0  0
  -27.6385  -13.2439   19.8414 C   0  0  2  0  0  0
  -28.6827  -13.2296   20.9785 C   0  0  0  0  0  0
  -25.2505  -13.8210   20.5698 C   0  0  0  0  0  0
  -24.1813  -13.0441   20.9209 C   0  0  0  0  0  0
  -24.6424  -11.6918   20.8749 C   0  0  0  0  0  0
  -23.9108  -10.4286   21.0410 C   0  0  0  0  0  0
  -24.3645   -9.4195   21.9185 C   0  0  0  0  0  0
  -23.6305   -8.2239   22.0760 C   0  0  0  0  0  0
  -22.4282   -8.0290   21.3547 C   0  0  0  0  0  0
  -21.9934   -9.0280   20.4652 C   0  0  0  0  0  0
  -22.7285  -10.2144   20.3058 C   0  0  0  0  0  0
  -21.6845   -6.0747   22.5275 C   0  0  0  0  0  0
  -21.4026   -6.5646   23.8219 C   0  0  0  0  0  0
  -21.3669   -5.6786   24.9173 C   0  0  0  0  0  0
  -21.6039   -4.3050   24.7211 C   0  0  0  0  0  0
  -21.8821   -3.8155   23.4329 C   0  0  0  0  0  0
  -21.9197   -4.6978   22.3389 C   0  0  0  0  0  0
  -22.7828  -13.5218   21.1857 C   0  0  0  0  0  0
  -22.1657   -4.2170   21.0961 F   0  0  0  0  0  0
  -21.5633   -3.4525   25.7722 F   0  0  0  0  0  0
  -29.9706  -13.6166   20.3881 N   0  0  0  0  0  0
  -26.2938  -12.9442   20.3239 N   0  0  0  0  0  0
  -25.9355  -11.6573   20.5720 N   0  0  0  0  0  0
  -22.0459  -12.8229   22.0411 N   0  0  0  0  0  0
  -25.4163  -15.1939   20.4093 N   0  0  0  0  0  0
  -31.7714  -14.9523   20.1549 O   0  0  0  0  0  0
  -21.6629   -6.8894   21.4240 O   0  0  0  0  0  0
  -22.3516  -14.5517   20.6688 O   0  0  0  0  0  0
  -24.6406  -31.8505   23.1916 C   0  0  0  0  0  0
  -25.9206  -32.4728   23.8292 C   0  0  1  0  0  0
  -27.2134  -27.1748   20.1292 C   0  0  0  0  0  0
  -25.5965  -33.8532   24.2218 N   0  0  0  0  0  0
  -23.4402  -30.4724   21.5384 C   0  0  2  0  0  0
  -24.8853  -28.9098   20.1050 C   0  0  0  0  0  0
  -22.7553  -29.4587   22.4887 C   0  0  0  0  0  0
  -18.0306  -28.1400   22.8485 C   0  0  0  0  0  0
  -24.1484  -36.7247   23.2642 C   0  0  0  0  0  0
  -25.9942  -30.7332   21.3854 C   0  0  0  0  0  0
  -26.0618  -29.3506   20.7231 C   0  0  0  0  0  0
  -27.2228  -28.4964   20.7242 C   0  0  0  0  0  0
  -26.0027  -26.8235   19.4886 C   0  0  0  0  0  0
  -24.8674  -27.6591   19.4745 C   0  0  0  0  0  0
  -23.6601  -29.8058   20.1551 C   0  0  0  0  0  0
  -25.4116  -36.3059   24.0329 C   0  0  1  0  0  0
  -20.5911  -28.3732   23.1238 C   0  0  2  0  0  0
  -20.6792  -26.9439   22.5397 C   0  0  0  0  0  0
  -19.5759  -26.6393   21.5215 C   0  0  0  0  0  0
  -18.1942  -26.7937   22.1629 C   0  0  0  0  0  0
  -19.1560  -28.8886   23.2855 C   0  0  0  0  0  0
  -18.9477  -30.1477   23.8885 C   0  0  0  0  0  0
  -17.6472  -30.6602   24.0563 C   0  0  0  0  0  0
  -25.9072  -34.9434   23.5081 C   0  0  0  0  0  0
  -16.5364  -29.9091   23.6334 C   0  0  0  0  0  0
  -16.7289  -28.6504   23.0369 C   0  0  0  0  0  0
  -26.4522  -31.6584   25.0719 C   0  0  0  0  0  0
  -25.3691  -31.3768   26.1397 C   0  0  0  0  0  0
  -27.0388  -30.2989   24.6277 C   0  0  0  0  0  0
  -27.6065  -32.4339   25.7493 C   0  0  0  0  0  0
  -27.5579  -37.1778   24.8468 C   0  0  0  0  0  0
  -21.4252  -29.3060   22.3629 N   0  0  0  0  0  0
  -26.4287  -37.3772   23.9421 N   0  0  0  0  0  0
  -24.7118  -31.0388   22.0933 N   0  0  0  0  0  0
  -23.4203  -28.8145   23.3043 O   0  0  0  0  0  0
  -28.2768  -26.2158   20.2473 O   0  0  0  0  0  0
  -26.5657  -34.8930   22.4653 O   0  0  0  0  0  0
  -23.5536  -32.1373   23.7155 O   0  0  0  0  0  0
  -27.7088  -20.9904   20.0285 C   0  0  0  0  0  0
  -27.5609  -22.4218   19.9325 C   0  0  0  0  0  0
  -30.0371  -21.2269   20.2704 C   0  0  0  0  0  0
  -28.9519  -20.2946   20.1671 C   0  0  0  0  0  0
  -28.6360  -23.3626   19.9692 C   0  0  0  0  0  0
  -29.9082  -22.6854   20.1805 C   0  0  0  0  0  0
  -28.6965  -18.2737   18.5955 C   0  0  0  0  0  0
  -31.1625  -24.6433   21.2691 C   0  0  0  0  0  0
  -31.8071  -23.8516   18.9155 C   0  0  0  0  0  0
  -28.3726  -24.9056   19.4512 C   0  0  0  0  0  0
  -30.0881  -17.5582   20.6168 C   0  0  0  0  0  0
  -28.9715  -18.6498   20.0616 C   0  0  1  0  0  0
  -31.2235  -23.4643   20.2852 C   0  0  0  0  0  0
  -29.7822  -16.0183   20.6042 N   0  0  0  0  0  0
  -31.4815  -12.6618   19.1900 H   0  0  0  0  0  0
  -30.4018  -11.5648   20.0002 H   0  0  0  0  0  0
  -29.8251  -11.7342   17.5516 H   0  0  0  0  0  0
  -29.6286  -13.4626   17.7028 H   0  0  0  0  0  0
  -27.9332  -11.2807   18.9521 H   0  0  0  0  0  0
  -27.3907  -12.4770   17.8070 H   0  0  0  0  0  0
  -27.6160  -14.2550   19.4337 H   0  0  0  0  0  0
  -28.7436  -12.2419   21.4379 H   0  0  0  0  0  0
  -28.3987  -13.9197   21.7738 H   0  0  0  0  0  0
  -25.2797   -9.5658   22.4758 H   0  0  0  0  0  0
  -24.0015   -7.4622   22.7478 H   0  0  0  0  0  0
  -21.0870   -8.8815   19.8944 H   0  0  0  0  0  0
  -22.3769  -10.9691   19.6159 H   0  0  0  0  0  0
  -21.2016   -7.6154   23.9741 H   0  0  0  0  0  0
  -21.1489   -6.0497   25.9079 H   0  0  0  0  0  0
  -22.0591   -2.7619   23.2802 H   0  0  0  0  0  0
  -22.4074  -11.9908   22.4842 H   0  0  0  0  0  0
  -21.1074  -13.1274   22.2580 H   0  0  0  0  0  0
  -24.6394  -15.8378   20.5089 H   0  0  0  0  0  0
  -26.2478  -15.6315   20.0344 H   0  0  0  0  0  0
  -26.7264  -32.5342   23.1020 H   0  0  0  0  0  0
  -25.0112  -33.9636   25.0368 H   0  0  0  0  0  0
  -22.7420  -31.2985   21.3898 H   0  0  0  0  0  0
  -23.3780  -35.9548   23.3305 H   0  0  0  0  0  0
  -24.3561  -36.8868   22.2053 H   0  0  0  0  0  0
  -23.7197  -37.6430   23.6661 H   0  0  0  0  0  0
  -26.1508  -31.4926   20.6184 H   0  0  0  0  0  0
  -26.8648  -30.7772   22.0283 H   0  0  0  0  0  0
  -28.1157  -28.8290   21.2350 H   0  0  0  0  0  0
  -25.8600  -25.8567   19.0372 H   0  0  0  0  0  0
  -23.9626  -27.3113   18.9942 H   0  0  0  0  0  0
  -23.7873  -30.5818   19.3995 H   0  0  0  0  0  0
  -22.7760  -29.2430   19.8500 H   0  0  0  0  0  0
  -25.1303  -36.1903   25.0825 H   0  0  0  0  0  0
  -21.0001  -28.3324   24.1360 H   0  0  0  0  0  0
  -20.5692  -26.2360   23.3626 H   0  0  0  0  0  0
  -21.6664  -26.7455   22.1198 H   0  0  0  0  0  0
  -19.6925  -25.6299   21.1265 H   0  0  0  0  0  0
  -19.6683  -27.3193   20.6733 H   0  0  0  0  0  0
  -17.4212  -26.6695   21.4029 H   0  0  0  0  0  0
  -18.0336  -26.0077   22.9021 H   0  0  0  0  0  0
  -19.7955  -30.7301   24.2249 H   0  0  0  0  0  0
  -17.5028  -31.6276   24.5179 H   0  0  0  0  0  0
  -15.5364  -30.2996   23.7665 H   0  0  0  0  0  0
  -15.8689  -28.0814   22.7102 H   0  0  0  0  0  0
  -24.5884  -30.7113   25.7699 H   0  0  0  0  0  0
  -24.8855  -32.2949   26.4748 H   0  0  0  0  0  0
  -25.7946  -30.8978   27.0226 H   0  0  0  0  0  0
  -26.3007  -29.6717   24.1264 H   0  0  0  0  0  0
  -27.4011  -29.7281   25.4841 H   0  0  0  0  0  0
  -27.8919  -30.4258   23.9603 H   0  0  0  0  0  0
  -27.2681  -33.3665   26.2024 H   0  0  0  0  0  0
  -28.3891  -32.6856   25.0323 H   0  0  0  0  0  0
  -28.0726  -31.8493   26.5436 H   0  0  0  0  0  0
  -28.2600  -38.0076   24.7553 H   0  0  0  0  0  0
  -28.1077  -36.2612   24.6267 H   0  0  0  0  0  0
  -27.2298  -37.1402   25.8872 H   0  0  0  0  0  0
  -20.9484  -29.8742   21.6774 H   0  0  0  0  0  0
  -26.0168  -38.2852   24.1423 H   0  0  0  0  0  0
  -26.8113  -20.3951   19.9198 H   0  0  0  0  0  0
  -26.5667  -22.8031   19.7455 H   0  0  0  0  0  0
  -31.0271  -20.8066   20.3788 H   0  0  0  0  0  0
  -29.5401  -18.5435   17.9607 H   0  0  0  0  0  0
  -27.8142  -18.7785   18.2049 H   0  0  0  0  0  0
  -28.5319  -17.2031   18.4751 H   0  0  0  0  0  0
  -30.7558  -24.3306   22.2316 H   0  0  0  0  0  0
  -30.5600  -25.4691   20.9023 H   0  0  0  0  0  0
  -32.1616  -25.0392   21.4531 H   0  0  0  0  0  0
  -31.9555  -22.9707   18.2898 H   0  0  0  0  0  0
  -32.7812  -24.3274   19.0320 H   0  0  0  0  0  0
  -31.1811  -24.5467   18.3624 H   0  0  0  0  0  0
  -27.5492  -24.8183   18.7511 H   0  0  0  0  0  0
  -29.1926  -25.1182   18.7723 H   0  0  0  0  0  0
  -30.3058  -17.8122   21.6539 H   0  0  0  0  0  0
  -31.0253  -17.7180   20.0818 H   0  0  0  0  0  0
  -28.0679  -18.3828   20.6124 H   0  0  0  0  0  0
  -31.9528  -22.7823   20.7290 H   0  0  0  0  0  0
  -28.8183  -15.7978   20.7975 H   0  0  0  0  0  0
  1 25  1  0  0  0
  1 30  2  0  0  0
  1 84  1  0  0  0
  2  3  1  0  0  0
  2 25  1  0  0  0
  2 85  1  0  0  0
  2 86  1  0  0  0
  3  4  1  0  0  0
  3 87  1  0  0  0
  3 88  1  0  0  0
  4  5  1  0  0  0
  4 89  1  0  0  0
  4 90  1  0  0  0
  5  6  1  0  0  0
  5 26  1  0  0  0
  5 91  1  0  0  0
  6 25  1  0  0  0
  6 92  1  0  0  0
  6 93  1  0  0  0
  7  8  2  0  0  0
  7 26  1  0  0  0
  7 29  1  0  0  0
  8  9  1  0  0  0
  8 22  1  0  0  0
  9 10  1  0  0  0
  9 27  2  0  0  0
 10 11  2  0  0  0
 10 15  1  0  0  0
 11 12  1  0  0  0
 11 94  1  0  0  0
 12 13  2  0  0  0
 12 95  1  0  0  0
 13 14  1  0  0  0
 13 31  1  0  0  0
 14 15  2  0  0  0
 14 96  1  0  0  0
 15 97  1  0  0  0
 16 17  2  0  0  0
 16 21  1  0  0  0
 16 31  1  0  0  0
 17 18  1  0  0  0
 17 98  1  0  0  0
 18 19  2  0  0  0
 18 99  1  0  0  0
 19 20  1  0  0  0
 19 24  1  0  0  0
 20 21  2  0  0  0
 20100  1  0  0  0
 21 23  1  0  0  0
 22 28  1  0  0  0
 22 32  2  0  0  0
 26 27  1  0  0  0
 28101  1  0  0  0
 28102  1  0  0  0
 29103  1  0  0  0
 29104  1  0  0  0
 33 34  1  0  0  0
 33 66  1  0  0  0
 33 70  2  0  0  0
 34 36  1  0  0  0
 34 59  1  0  0  0
 34105  1  0  0  0
 35 44  2  0  0  0
 35 45  1  0  0  0
 35 68  1  0  0  0
 36 56  1  0  0  0
 36106  1  0  0  0
 37 39  1  0  0  0
 37 47  1  0  0  0
 37 66  1  0  0  0
 37107  1  0  0  0
 38 43  2  0  0  0
 38 46  1  0  0  0
 38 47  1  0  0  0
 39 64  1  0  0  0
 39 67  2  0  0  0
 40 52  1  0  0  0
 40 53  2  0  0  0
 40 58  1  0  0  0
 41108  1  0  0  0
 41109  1  0  0  0
 41110  1  0  0  0
 41 48  1  0  0  0
 42 43  1  0  0  0
 42 66  1  0  0  0
 42111  1  0  0  0
 42112  1  0  0  0
 43 44  1  0  0  0
 44113  1  0  0  0
 45 46  2  0  0  0
 45114  1  0  0  0
 46115  1  0  0  0
 47116  1  0  0  0
 47117  1  0  0  0
 48 56  1  0  0  0
 48 65  1  0  0  0
 48118  1  0  0  0
 49 50  1  0  0  0
 49 53  1  0  0  0
 49 64  1  0  0  0
 49119  1  0  0  0
 50 51  1  0  0  0
 50120  1  0  0  0
 50121  1  0  0  0
 51 52  1  0  0  0
 51122  1  0  0  0
 51123  1  0  0  0
 52124  1  0  0  0
 52125  1  0  0  0
 53 54  1  0  0  0
 54 55  2  0  0  0
 54126  1  0  0  0
 55 57  1  0  0  0
 55127  1  0  0  0
 56 69  2  0  0  0
 57 58  2  0  0  0
 57128  1  0  0  0
 58129  1  0  0  0
 59 60  1  0  0  0
 59 61  1  0  0  0
 59 62  1  0  0  0
 60130  1  0  0  0
 60131  1  0  0  0
 60132  1  0  0  0
 61133  1  0  0  0
 61134  1  0  0  0
 61135  1  0  0  0
 62136  1  0  0  0
 62137  1  0  0  0
 62138  1  0  0  0
 63 65  1  0  0  0
 63139  1  0  0  0
 63140  1  0  0  0
 63141  1  0  0  0
 64142  1  0  0  0
 65143  1  0  0  0
 68 80  1  0  0  0
 71 72  2  0  0  0
 71 74  1  0  0  0
 71144  1  0  0  0
 72 75  1  0  0  0
 72145  1  0  0  0
 73 74  2  0  0  0
 73 76  1  0  0  0
 73146  1  0  0  0
 74 82  1  0  0  0
 75 76  2  0  0  0
 75 80  1  0  0  0
 76 83  1  0  0  0
 77147  1  0  0  0
 77148  1  0  0  0
 77149  1  0  0  0
 77 82  1  0  0  0
 78150  1  0  0  0
 78151  1  0  0  0
 78152  1  0  0  0
 78 83  1  0  0  0
 79 83  1  0  0  0
 79153  1  0  0  0
 79154  1  0  0  0
 79155  1  0  0  0
 80156  1  0  0  0
 80157  1  0  0  0
 81 82  1  0  0  0
 81 84  1  0  0  0
 81158  1  0  0  0
 81159  1  0  0  0
 82160  1  0  0  0
 83161  1  0  0  0
 84162  1  0  0  0
M  ISO  4   1 100  68 101  80 101  84 100
M  END
> <chiral flag>
0

> <version>
0

> <s_m_source_file>
/data/baiqing/PycharmProjects/Reinvent-master-3.2/result/LINK_invent/BTK/process_docking_weight1_custom_sum_contain_oxygen_bond_distance_aromatic_linkinvent_7_9_3/rearranged_h_0082.sdf

> <i_m_source_file_index>
3

> <r_mmod_Potential_Energy-OPLS-2005>
391.967102050781

> <r_mmod_Stretch_Energy-OPLS-2005>
203.164443969727

> <r_mmod_Bend_Energy-OPLS-2005>
267.509094238281

> <r_mmod_Torsional_Energy-OPLS-2005>
231.291564941406

> <r_mmod_Improper_Torsional_Energy-OPLS-2005>
7.86160326004028

> <r_mmod_Van_der_Waal_Energy-OPLS-2005>
135.151351928711

> <r_mmod_Electrostatic_Energy-OPLS-2005>
-398.502258300781

> <r_mmod_Solvation_Energy-OPLS-2005>
-204.167358398438

> <b_mmod_Minimization_Converged-OPLS-2005>
0

> <r_mmod_RMS_Derivative-OPLS-2005>
2.35013031959534

$$$$
3
                    3D
 Structure written by MMmdl.
161169  0  0  1  0            999 V2000
  -30.6799  -14.6336   20.4658 C   0  0  0  0  0  0
  -30.4074  -12.3893   19.4596 C   0  0  0  0  0  0
  -29.4933  -12.5018   18.2201 C   0  0  0  0  0  0
  -28.0114  -12.3531   18.6150 C   0  0  0  0  0  0
  -27.6361  -13.2343   19.8376 C   0  0  2  0  0  0
  -28.6778  -13.1274   20.9687 C   0  0  0  0  0  0
  -25.2489  -13.8214   20.5653 C   0  0  0  0  0  0
  -24.1793  -13.0486   20.9172 C   0  0  0  0  0  0
  -24.6376  -11.6955   20.8712 C   0  0  0  0  0  0
  -23.9074  -10.4328   21.0363 C   0  0  0  0  0  0
  -24.3646   -9.4258   21.9141 C   0  0  0  0  0  0
  -23.6351   -8.2275   22.0719 C   0  0  0  0  0  0
  -22.4310   -8.0298   21.3548 C   0  0  0  0  0  0
  -21.9946   -9.0251   20.4630 C   0  0  0  0  0  0
  -22.7244  -10.2142   20.3024 C   0  0  0  0  0  0
  -21.6864   -6.0766   22.5277 C   0  0  0  0  0  0
  -21.4018   -6.5668   23.8213 C   0  0  0  0  0  0
  -21.3672   -5.6803   24.9167 C   0  0  0  0  0  0
  -21.6040   -4.3067   24.7195 C   0  0  0  0  0  0
  -21.8838   -3.8174   23.4315 C   0  0  0  0  0  0
  -21.9213   -4.7001   22.3381 C   0  0  0  0  0  0
  -22.7810  -13.5232   21.1853 C   0  0  0  0  0  0
  -22.1673   -4.2203   21.0954 F   0  0  0  0  0  0
  -21.5635   -3.4538   25.7703 F   0  0  0  0  0  0
  -29.9944  -13.4444   20.4084 N   0  0  0  0  0  0
  -26.2902  -12.9443   20.3201 N   0  0  0  0  0  0
  -25.9300  -11.6584   20.5706 N   0  0  0  0  0  0
  -22.0500  -12.8191   22.0411 N   0  0  0  0  0  0
  -25.4250  -15.1933   20.4111 N   0  0  0  0  0  0
  -31.8794  -14.6539   20.1733 O   0  0  0  0  0  0
  -21.6679   -6.8895   21.4234 O   0  0  0  0  0  0
  -22.3470  -14.5532   20.6688 O   0  0  0  0  0  0
  -24.6220  -31.8580   23.2058 C   0  0  0  0  0  0
  -25.9109  -32.4751   23.8341 C   0  0  1  0  0  0
  -27.2418  -27.3696   20.1068 C   0  0  0  0  0  0
  -25.5936  -33.8548   24.2298 N   0  0  0  0  0  0
  -23.4144  -30.4822   21.5421 C   0  0  2  0  0  0
  -24.8667  -28.9454   20.1052 C   0  0  0  0  0  0
  -22.7431  -29.4626   22.4927 C   0  0  0  0  0  0
  -18.0272  -28.1368   22.8502 C   0  0  0  0  0  0
  -24.1469  -36.7275   23.2654 C   0  0  0  0  0  0
  -25.9498  -30.8057   21.3749 C   0  0  0  0  0  0
  -26.0258  -29.4365   20.7188 C   0  0  0  0  0  0
  -27.2115  -28.6530   20.7235 C   0  0  0  0  0  0
  -26.0584  -26.9153   19.4819 C   0  0  0  0  0  0
  -24.8854  -27.6921   19.4760 C   0  0  0  0  0  0
  -23.6272  -29.8121   20.1571 C   0  0  0  0  0  0
  -25.4089  -36.3055   24.0359 C   0  0  1  0  0  0
  -20.5879  -28.3667   23.1299 C   0  0  2  0  0  0
  -20.6773  -26.9398   22.5414 C   0  0  0  0  0  0
  -19.5749  -26.6380   21.5219 C   0  0  0  0  0  0
  -18.1919  -26.7910   22.1631 C   0  0  0  0  0  0
  -19.1528  -28.8835   23.2896 C   0  0  0  0  0  0
  -18.9461  -30.1444   23.8900 C   0  0  0  0  0  0
  -17.6469  -30.6587   24.0573 C   0  0  0  0  0  0
  -25.9036  -34.9421   23.5124 C   0  0  0  0  0  0
  -16.5357  -29.9103   23.6335 C   0  0  0  0  0  0
  -16.7264  -28.6516   23.0349 C   0  0  0  0  0  0
  -26.4537  -31.6536   25.0677 C   0  0  0  0  0  0
  -25.3816  -31.3676   26.1438 C   0  0  0  0  0  0
  -27.0441  -30.2965   24.6154 C   0  0  0  0  0  0
  -27.6059  -32.4297   25.7444 C   0  0  0  0  0  0
  -27.5565  -37.1776   24.8475 C   0  0  0  0  0  0
  -21.4156  -29.3017   22.3684 N   0  0  0  0  0  0
  -26.4262  -37.3761   23.9434 N   0  0  0  0  0  0
  -24.6796  -31.0629   22.0991 N   0  0  0  0  0  0
  -23.4156  -28.8183   23.3027 O   0  0  0  0  0  0
  -28.4046  -26.6052   20.1521 O   0  0  0  0  0  0
  -26.5582  -34.8923   22.4670 O   0  0  0  0  0  0
  -23.5401  -32.1364   23.7409 O   0  0  0  0  0  0
  -30.5432  -17.1109   19.8058 C   0  0  0  0  0  0
  -29.9917  -16.0218   20.5448 C   0  0  0  0  0  0
  -28.3847  -17.5529   21.3285 C   0  0  0  0  0  0
  -28.8941  -18.6104   20.5077 C   0  0  0  0  0  0
  -27.1777  -17.7324   22.2255 C   0  0  0  0  0  0
  -29.3735  -22.5798   18.4828 C   0  0  0  0  0  0
  -26.9274  -22.4577   18.9793 C   0  0  0  0  0  0
  -28.1053  -19.9263   20.1831 C   0  0  0  0  0  0
  -28.6567  -21.3598   20.5750 C   0  0  0  0  0  0
  -28.3518  -24.0050   20.3699 C   0  0  0  0  0  0
  -28.5102  -25.3072   19.4909 C   0  0  0  0  0  0
  -28.3284  -22.5997   19.6184 C   0  0  0  0  0  0
  -30.0046  -18.3685   19.7651 N   0  0  0  0  0  0
  -28.9162  -16.2894   21.3392 N   0  0  0  0  0  0
  -31.4524  -12.4801   19.1612 H   0  0  0  0  0  0
  -30.3158  -11.4059   19.9231 H   0  0  0  0  0  0
  -29.7582  -11.7510   17.4771 H   0  0  0  0  0  0
  -29.6398  -13.4701   17.7406 H   0  0  0  0  0  0
  -27.8291  -11.3018   18.8413 H   0  0  0  0  0  0
  -27.3683  -12.5925   17.7649 H   0  0  0  0  0  0
  -27.6404  -14.2633   19.4768 H   0  0  0  0  0  0
  -28.6833  -12.1181   21.3830 H   0  0  0  0  0  0
  -28.4189  -13.7868   21.7954 H   0  0  0  0  0  0
  -25.2779   -9.5782   22.4719 H   0  0  0  0  0  0
  -24.0101   -7.4677   22.7427 H   0  0  0  0  0  0
  -21.0881   -8.8741   19.8926 H   0  0  0  0  0  0
  -22.3670  -10.9677   19.6143 H   0  0  0  0  0  0
  -21.1992   -7.6177   23.9725 H   0  0  0  0  0  0
  -21.1471   -6.0523   25.9067 H   0  0  0  0  0  0
  -22.0602   -2.7648   23.2778 H   0  0  0  0  0  0
  -22.4155  -11.9877   22.4839 H   0  0  0  0  0  0
  -21.1082  -13.1134   22.2580 H   0  0  0  0  0  0
  -24.6749  -15.8610   20.5422 H   0  0  0  0  0  0
  -26.3195  -15.6246   20.2134 H   0  0  0  0  0  0
  -26.7165  -32.5458   23.1079 H   0  0  0  0  0  0
  -25.0115  -33.9680   25.0467 H   0  0  0  0  0  0
  -22.7100  -31.3042   21.3922 H   0  0  0  0  0  0
  -23.3736  -35.9611   23.3297 H   0  0  0  0  0  0
  -24.3591  -36.8895   22.2077 H   0  0  0  0  0  0
  -23.7223  -37.6475   23.6677 H   0  0  0  0  0  0
  -26.0745  -31.5739   20.6100 H   0  0  0  0  0  0
  -26.8321  -30.8509   22.0034 H   0  0  0  0  0  0
  -28.1010  -29.0197   21.2194 H   0  0  0  0  0  0
  -25.9987  -25.9507   19.0038 H   0  0  0  0  0  0
  -24.0049  -27.3097   18.9791 H   0  0  0  0  0  0
  -23.7279  -30.5792   19.3878 H   0  0  0  0  0  0
  -22.7527  -29.2227   19.8700 H   0  0  0  0  0  0
  -25.1257  -36.1899   25.0858 H   0  0  0  0  0  0
  -20.9970  -28.3225   24.1420 H   0  0  0  0  0  0
  -20.5683  -26.2264   23.3604 H   0  0  0  0  0  0
  -21.6647  -26.7440   22.1206 H   0  0  0  0  0  0
  -19.6936  -25.6300   21.1221 H   0  0  0  0  0  0
  -19.6698  -27.3225   20.6775 H   0  0  0  0  0  0
  -17.4197  -26.6678   21.4011 H   0  0  0  0  0  0
  -18.0312  -26.0031   22.8998 H   0  0  0  0  0  0
  -19.7947  -30.7256   24.2245 H   0  0  0  0  0  0
  -17.5042  -31.6265   24.5171 H   0  0  0  0  0  0
  -15.5365  -30.3024   23.7658 H   0  0  0  0  0  0
  -15.8644  -28.0864   22.7045 H   0  0  0  0  0  0
  -24.5967  -30.7039   25.7811 H   0  0  0  0  0  0
  -24.9063  -32.2854   26.4880 H   0  0  0  0  0  0
  -25.8190  -30.8847   27.0181 H   0  0  0  0  0  0
  -26.3057  -29.6591   24.1286 H   0  0  0  0  0  0
  -27.4264  -29.7331   25.4674 H   0  0  0  0  0  0
  -27.8841  -30.4246   23.9331 H   0  0  0  0  0  0
  -27.2635  -33.3601   26.1985 H   0  0  0  0  0  0
  -28.3884  -32.6835   25.0282 H   0  0  0  0  0  0
  -28.0715  -31.8449   26.5383 H   0  0  0  0  0  0
  -28.2556  -38.0084   24.7500 H   0  0  0  0  0  0
  -28.1056  -36.2603   24.6282 H   0  0  0  0  0  0
  -27.2287  -37.1415   25.8878 H   0  0  0  0  0  0
  -20.9323  -29.8714   21.6883 H   0  0  0  0  0  0
  -26.0125  -38.2829   24.1443 H   0  0  0  0  0  0
  -31.4303  -16.9764   19.2057 H   0  0  0  0  0  0
  -26.2560  -17.7328   21.6447 H   0  0  0  0  0  0
  -27.2358  -18.6668   22.7815 H   0  0  0  0  0  0
  -27.1292  -16.9223   22.9550 H   0  0  0  0  0  0
  -30.3605  -22.8703   18.8431 H   0  0  0  0  0  0
  -29.1117  -23.2580   17.6692 H   0  0  0  0  0  0
  -29.4732  -21.5793   18.0568 H   0  0  0  0  0  0
  -26.6699  -23.3324   18.3845 H   0  0  0  0  0  0
  -26.1520  -22.3513   19.7359 H   0  0  0  0  0  0
  -26.8501  -21.6093   18.2991 H   0  0  0  0  0  0
  -27.1037  -19.8493   20.6048 H   0  0  0  0  0  0
  -27.9422  -19.8845   19.1079 H   0  0  0  0  0  0
  -29.7419  -21.2908   20.6648 H   0  0  0  0  0  0
  -28.3021  -21.5856   21.5830 H   0  0  0  0  0  0
  -27.4398  -24.0978   20.9602 H   0  0  0  0  0  0
  -29.1599  -24.0062   21.1029 H   0  0  0  0  0  0
  -27.9103  -25.2658   18.5842 H   0  0  0  0  0  0
  -29.5353  -25.2801   19.1217 H   0  0  0  0  0  0
  1 25  1  0  0  0
  1 30  2  0  0  0
  1 72  1  0  0  0
  2  3  1  0  0  0
  2 25  1  0  0  0
  2 85  1  0  0  0
  2 86  1  0  0  0
  3  4  1  0  0  0
  3 87  1  0  0  0
  3 88  1  0  0  0
  4  5  1  0  0  0
  4 89  1  0  0  0
  4 90  1  0  0  0
  5  6  1  0  0  0
  5 26  1  0  0  0
  5 91  1  0  0  0
  6 25  1  0  0  0
  6 92  1  0  0  0
  6 93  1  0  0  0
  7  8  2  0  0  0
  7 26  1  0  0  0
  7 29  1  0  0  0
  8  9  1  0  0  0
  8 22  1  0  0  0
  9 10  1  0  0  0
  9 27  2  0  0  0
 10 11  2  0  0  0
 10 15  1  0  0  0
 11 12  1  0  0  0
 11 94  1  0  0  0
 12 13  2  0  0  0
 12 95  1  0  0  0
 13 14  1  0  0  0
 13 31  1  0  0  0
 14 15  2  0  0  0
 14 96  1  0  0  0
 15 97  1  0  0  0
 16 17  2  0  0  0
 16 21  1  0  0  0
 16 31  1  0  0  0
 17 18  1  0  0  0
 17 98  1  0  0  0
 18 19  2  0  0  0
 18 99  1  0  0  0
 19 20  1  0  0  0
 19 24  1  0  0  0
 20 21  2  0  0  0
 20100  1  0  0  0
 21 23  1  0  0  0
 22 28  1  0  0  0
 22 32  2  0  0  0
 26 27  1  0  0  0
 28101  1  0  0  0
 28102  1  0  0  0
 29103  1  0  0  0
 29104  1  0  0  0
 33 34  1  0  0  0
 33 66  1  0  0  0
 33 70  2  0  0  0
 34 36  1  0  0  0
 34 59  1  0  0  0
 34105  1  0  0  0
 35 44  2  0  0  0
 35 45  1  0  0  0
 35 68  1  0  0  0
 36 56  1  0  0  0
 36106  1  0  0  0
 37 39  1  0  0  0
 37 47  1  0  0  0
 37 66  1  0  0  0
 37107  1  0  0  0
 38 43  2  0  0  0
 38 46  1  0  0  0
 38 47  1  0  0  0
 39 64  1  0  0  0
 39 67  2  0  0  0
 40 52  1  0  0  0
 40 53  2  0  0  0
 40 58  1  0  0  0
 41108  1  0  0  0
 41109  1  0  0  0
 41110  1  0  0  0
 41 48  1  0  0  0
 42 43  1  0  0  0
 42 66  1  0  0  0
 42111  1  0  0  0
 42112  1  0  0  0
 43 44  1  0  0  0
 44113  1  0  0  0
 45 46  2  0  0  0
 45114  1  0  0  0
 46115  1  0  0  0
 47116  1  0  0  0
 47117  1  0  0  0
 48 56  1  0  0  0
 48 65  1  0  0  0
 48118  1  0  0  0
 49 50  1  0  0  0
 49 53  1  0  0  0
 49 64  1  0  0  0
 49119  1  0  0  0
 50 51  1  0  0  0
 50120  1  0  0  0
 50121  1  0  0  0
 51 52  1  0  0  0
 51122  1  0  0  0
 51123  1  0  0  0
 52124  1  0  0  0
 52125  1  0  0  0
 53 54  1  0  0  0
 54 55  2  0  0  0
 54126  1  0  0  0
 55 57  1  0  0  0
 55127  1  0  0  0
 56 69  2  0  0  0
 57 58  2  0  0  0
 57128  1  0  0  0
 58129  1  0  0  0
 59 60  1  0  0  0
 59 61  1  0  0  0
 59 62  1  0  0  0
 60130  1  0  0  0
 60131  1  0  0  0
 60132  1  0  0  0
 61133  1  0  0  0
 61134  1  0  0  0
 61135  1  0  0  0
 62136  1  0  0  0
 62137  1  0  0  0
 62138  1  0  0  0
 63 65  1  0  0  0
 63139  1  0  0  0
 63140  1  0  0  0
 63141  1  0  0  0
 64142  1  0  0  0
 65143  1  0  0  0
 68 81  1  0  0  0
 71 72  2  0  0  0
 71 83  1  0  0  0
 71144  1  0  0  0
 72 84  1  0  0  0
 73 74  1  0  0  0
 73 75  1  0  0  0
 73 84  2  0  0  0
 74 78  1  0  0  0
 74 83  2  0  0  0
 75145  1  0  0  0
 75146  1  0  0  0
 75147  1  0  0  0
 76148  1  0  0  0
 76149  1  0  0  0
 76150  1  0  0  0
 76 82  1  0  0  0
 77 82  1  0  0  0
 77151  1  0  0  0
 77152  1  0  0  0
 77153  1  0  0  0
 78 79  1  0  0  0
 78154  1  0  0  0
 78155  1  0  0  0
 79 82  1  0  0  0
 79156  1  0  0  0
 79157  1  0  0  0
 80 81  1  0  0  0
 80 82  1  0  0  0
 80158  1  0  0  0
 80159  1  0  0  0
 81160  1  0  0  0
 81161  1  0  0  0
M  ISO  4   1 100  68 101  72 100  81 101
M  END
> <chiral flag>
0

> <version>
0

> <s_m_source_file>
/data/baiqing/PycharmProjects/Reinvent-master-3.2/result/LINK_invent/BTK/process_docking_weight1_custom_sum_contain_oxygen_bond_distance_aromatic_linkinvent_7_9_3/rearranged_h_0082.sdf

> <i_m_source_file_index>
4

> <r_mmod_Potential_Energy-OPLS-2005>
254.261795043945

> <r_mmod_Stretch_Energy-OPLS-2005>
75.1277236938477

> <r_mmod_Bend_Energy-OPLS-2005>
154.083770751953

> <r_mmod_Torsional_Energy-OPLS-2005>
218.210632324219

> <r_mmod_Improper_Torsional_Energy-OPLS-2005>
8.94258499145508

> <r_mmod_Van_der_Waal_Energy-OPLS-2005>
149.109420776367

> <r_mmod_Electrostatic_Energy-OPLS-2005>
-207.152221679688

> <r_mmod_Solvation_Energy-OPLS-2005>
-185.946487426758

> <b_mmod_Minimization_Converged-OPLS-2005>
0

> <r_mmod_RMS_Derivative-OPLS-2005>
5.21173048019409

$$$$
4
                    3D
 Structure written by MMmdl.
159167  0  0  1  0            999 V2000
  -30.6402  -14.6888   20.4389 C   0  0  0  0  0  0
  -30.4022  -12.4160   19.4640 C   0  0  0  0  0  0
  -29.4835  -12.4555   18.2258 C   0  0  0  0  0  0
  -28.0172  -12.2822   18.6630 C   0  0  0  0  0  0
  -27.6219  -13.2257   19.8300 C   0  0  2  0  0  0
  -28.6641  -13.2069   20.9643 C   0  0  0  0  0  0
  -25.2432  -13.8213   20.5665 C   0  0  0  0  0  0
  -24.1733  -13.0431   20.9253 C   0  0  0  0  0  0
  -24.6317  -11.6914   20.8843 C   0  0  0  0  0  0
  -23.9016  -10.4263   21.0512 C   0  0  0  0  0  0
  -24.3597   -9.4206   21.9297 C   0  0  0  0  0  0
  -23.6285   -8.2235   22.0866 C   0  0  0  0  0  0
  -22.4305   -8.0239   21.3595 C   0  0  0  0  0  0
  -21.9918   -9.0176   20.4685 C   0  0  0  0  0  0
  -22.7192  -10.2086   20.3169 C   0  0  0  0  0  0
  -21.6849   -6.0714   22.5286 C   0  0  0  0  0  0
  -21.4004   -6.5649   23.8201 C   0  0  0  0  0  0
  -21.3680   -5.6802   24.9165 C   0  0  0  0  0  0
  -21.6063   -4.3069   24.7227 C   0  0  0  0  0  0
  -21.8844   -3.8131   23.4355 C   0  0  0  0  0  0
  -21.9207   -4.6948   22.3409 C   0  0  0  0  0  0
  -22.7750  -13.5239   21.1847 C   0  0  0  0  0  0
  -22.1675   -4.2120   21.0987 F   0  0  0  0  0  0
  -21.5655   -3.4592   25.7763 F   0  0  0  0  0  0
  -29.9608  -13.5051   20.3601 N   0  0  0  0  0  0
  -26.2797  -12.9374   20.3216 N   0  0  0  0  0  0
  -25.9231  -11.6528   20.5804 N   0  0  0  0  0  0
  -22.0340  -12.8236   22.0376 N   0  0  0  0  0  0
  -25.4154  -15.1908   20.3984 N   0  0  0  0  0  0
  -31.8523  -14.7216   20.2301 O   0  0  0  0  0  0
  -21.6690   -6.8828   21.4232 O   0  0  0  0  0  0
  -22.3449  -14.5520   20.6664 O   0  0  0  0  0  0
  -24.6188  -31.8670   23.2103 C   0  0  0  0  0  0
  -25.9059  -32.4823   23.8428 C   0  0  1  0  0  0
  -27.2305  -27.3784   20.1233 C   0  0  0  0  0  0
  -25.5862  -33.8617   24.2341 N   0  0  0  0  0  0
  -23.4113  -30.4898   21.5522 C   0  0  2  0  0  0
  -24.8646  -28.9554   20.1184 C   0  0  0  0  0  0
  -22.7443  -29.4644   22.5010 C   0  0  0  0  0  0
  -18.0252  -28.1320   22.8506 C   0  0  0  0  0  0
  -24.1481  -36.7310   23.2652 C   0  0  0  0  0  0
  -25.9514  -30.8170   21.3806 C   0  0  0  0  0  0
  -26.0315  -29.4510   20.7172 C   0  0  0  0  0  0
  -27.2217  -28.6754   20.7077 C   0  0  0  0  0  0
  -26.0379  -26.9145   19.5301 C   0  0  0  0  0  0
  -24.8663  -27.6868   19.5207 C   0  0  0  0  0  0
  -23.6284  -29.8253   20.1657 C   0  0  0  0  0  0
  -25.4098  -36.3105   24.0343 C   0  0  1  0  0  0
  -20.5845  -28.3617   23.1294 C   0  0  2  0  0  0
  -20.6711  -26.9352   22.5391 C   0  0  0  0  0  0
  -19.5698  -26.6349   21.5172 C   0  0  0  0  0  0
  -18.1886  -26.7871   22.1619 C   0  0  0  0  0  0
  -19.1509  -28.8794   23.2890 C   0  0  0  0  0  0
  -18.9441  -30.1391   23.8925 C   0  0  0  0  0  0
  -17.6449  -30.6542   24.0545 C   0  0  0  0  0  0
  -25.9037  -34.9469   23.5158 C   0  0  0  0  0  0
  -16.5331  -29.9048   23.6306 C   0  0  0  0  0  0
  -16.7245  -28.6429   23.0395 C   0  0  0  0  0  0
  -26.4514  -31.6619   25.0778 C   0  0  0  0  0  0
  -25.3821  -31.3733   26.1568 C   0  0  0  0  0  0
  -27.0370  -30.3039   24.6224 C   0  0  0  0  0  0
  -27.6024  -32.4440   25.7504 C   0  0  0  0  0  0
  -27.5586  -37.1811   24.8446 C   0  0  0  0  0  0
  -21.4167  -29.3005   22.3748 N   0  0  0  0  0  0
  -26.4284  -37.3787   23.9408 N   0  0  0  0  0  0
  -24.6783  -31.0729   22.1036 N   0  0  0  0  0  0
  -23.4187  -28.8197   23.3081 O   0  0  0  0  0  0
  -28.3549  -26.5624   20.1121 O   0  0  0  0  0  0
  -26.5607  -34.8924   22.4729 O   0  0  0  0  0  0
  -23.5353  -32.1449   23.7408 O   0  0  0  0  0  0
  -27.3169  -23.6058   18.6184 C   0  0  0  0  0  0
  -27.1624  -20.9001   18.9392 C   0  0  0  0  0  0
  -28.1206  -23.0312   19.6172 C   0  0  0  0  0  0
  -28.0878  -21.5951   19.7643 C   0  0  0  0  0  0
  -26.4199  -22.8201   17.8878 C   0  0  0  0  0  0
  -25.4807  -23.4665   16.8933 C   0  0  0  0  0  0
  -28.9677  -24.0117   20.4580 C   0  0  0  0  0  0
  -29.1967  -18.3179   20.1992 C   0  0  0  0  0  0
  -29.1206  -16.8381   20.8047 C   0  0  0  0  0  0
  -28.2778  -25.3595   20.9391 C   0  0  0  0  0  0
  -28.6395  -19.5265   21.0567 C   0  0  0  0  0  0
  -26.3335  -21.4873   18.0468 N   0  0  0  0  0  0
  -29.9720  -15.8350   20.0842 N   0  0  0  0  0  0
  -28.9370  -20.8966   20.6289 O   0  0  0  0  0  0
  -31.4462  -12.5177   19.1612 H   0  0  0  0  0  0
  -30.3205  -11.4595   19.9830 H   0  0  0  0  0  0
  -29.7540  -11.6611   17.5290 H   0  0  0  0  0  0
  -29.6023  -13.3974   17.6876 H   0  0  0  0  0  0
  -27.9017  -11.2457   18.9804 H   0  0  0  0  0  0
  -27.3434  -12.4185   17.8167 H   0  0  0  0  0  0
  -27.6078  -14.2305   19.4080 H   0  0  0  0  0  0
  -28.6870  -12.2437   21.4749 H   0  0  0  0  0  0
  -28.4107  -13.9567   21.7125 H   0  0  0  0  0  0
  -25.2742   -9.5716   22.4851 H   0  0  0  0  0  0
  -24.0024   -7.4652   22.7601 H   0  0  0  0  0  0
  -21.0881   -8.8627   19.8938 H   0  0  0  0  0  0
  -22.3619  -10.9644   19.6329 H   0  0  0  0  0  0
  -21.1981   -7.6160   23.9732 H   0  0  0  0  0  0
  -21.1499   -6.0513   25.9076 H   0  0  0  0  0  0
  -22.0629   -2.7601   23.2842 H   0  0  0  0  0  0
  -22.3957  -11.9948   22.4849 H   0  0  0  0  0  0
  -21.0908  -13.1210   22.2392 H   0  0  0  0  0  0
  -24.6469  -15.8497   20.4829 H   0  0  0  0  0  0
  -26.2583  -15.6095   20.0251 H   0  0  0  0  0  0
  -26.7117  -32.5539   23.1181 H   0  0  0  0  0  0
  -24.9926  -33.9766   25.0417 H   0  0  0  0  0  0
  -22.7001  -31.3061   21.4101 H   0  0  0  0  0  0
  -23.3737  -35.9652   23.3320 H   0  0  0  0  0  0
  -24.3599  -36.8923   22.2068 H   0  0  0  0  0  0
  -23.7230  -37.6514   23.6675 H   0  0  0  0  0  0
  -26.0843  -31.5924   20.6248 H   0  0  0  0  0  0
  -26.8270  -30.8542   22.0172 H   0  0  0  0  0  0
  -28.1221  -29.0555   21.1716 H   0  0  0  0  0  0
  -25.9784  -25.9361   19.0910 H   0  0  0  0  0  0
  -23.9684  -27.2908   19.0679 H   0  0  0  0  0  0
  -23.7479  -30.6024   19.4096 H   0  0  0  0  0  0
  -22.7513  -29.2462   19.8683 H   0  0  0  0  0  0
  -25.1268  -36.1983   25.0830 H   0  0  0  0  0  0
  -20.9916  -28.3158   24.1424 H   0  0  0  0  0  0
  -20.5520  -26.2258   23.3595 H   0  0  0  0  0  0
  -21.6598  -26.7348   22.1253 H   0  0  0  0  0  0
  -19.6858  -25.6268   21.1173 H   0  0  0  0  0  0
  -19.6590  -27.3197   20.6726 H   0  0  0  0  0  0
  -17.4146  -26.6613   21.4025 H   0  0  0  0  0  0
  -18.0317  -25.9968   22.8983 H   0  0  0  0  0  0
  -19.7922  -30.7154   24.2347 H   0  0  0  0  0  0
  -17.5007  -31.6244   24.5118 H   0  0  0  0  0  0
  -15.5333  -30.2968   23.7572 H   0  0  0  0  0  0
  -15.8640  -28.0708   22.7183 H   0  0  0  0  0  0
  -24.5806  -30.7329   25.7901 H   0  0  0  0  0  0
  -24.9303  -32.2937   26.5283 H   0  0  0  0  0  0
  -25.8189  -30.8647   27.0165 H   0  0  0  0  0  0
  -26.2951  -29.6754   24.1294 H   0  0  0  0  0  0
  -27.4121  -29.7327   25.4726 H   0  0  0  0  0  0
  -27.8802  -30.4310   23.9428 H   0  0  0  0  0  0
  -27.2468  -33.3552   26.2323 H   0  0  0  0  0  0
  -28.3626  -32.7378   25.0263 H   0  0  0  0  0  0
  -28.0977  -31.8552   26.5225 H   0  0  0  0  0  0
  -28.2587  -38.0127   24.7495 H   0  0  0  0  0  0
  -28.1104  -36.2652   24.6240 H   0  0  0  0  0  0
  -27.2346  -37.1441   25.8870 H   0  0  0  0  0  0
  -20.9348  -29.8848   21.7062 H   0  0  0  0  0  0
  -26.0177  -38.2858   24.1438 H   0  0  0  0  0  0
  -27.3921  -24.6610   18.4157 H   0  0  0  0  0  0
  -27.0786  -19.8263   18.9786 H   0  0  0  0  0  0
  -25.6325  -23.0720   15.8886 H   0  0  0  0  0  0
  -25.6469  -24.5450   16.8562 H   0  0  0  0  0  0
  -24.4425  -23.2992   17.1836 H   0  0  0  0  0  0
  -29.8833  -24.2375   19.9139 H   0  0  0  0  0  0
  -29.2794  -23.4597   21.3438 H   0  0  0  0  0  0
  -28.6601  -18.3253   19.2527 H   0  0  0  0  0  0
  -30.2281  -18.5503   19.9353 H   0  0  0  0  0  0
  -28.0829  -16.5024   20.7570 H   0  0  0  0  0  0
  -29.3822  -16.8532   21.8605 H   0  0  0  0  0  0
  -28.7869  -25.6520   21.8592 H   0  0  0  0  0  0
  -27.2547  -25.1499   21.2552 H   0  0  0  0  0  0
  -29.0864  -19.4501   22.0499 H   0  0  0  0  0  0
  -27.5695  -19.4114   21.2402 H   0  0  0  0  0  0
  -30.6243  -16.3623   19.5226 H   0  0  0  0  0  0
  1 25  1  0  0  0
  1 30  2  0  0  0
  1 83  1  0  0  0
  2  3  1  0  0  0
  2 25  1  0  0  0
  2 85  1  0  0  0
  2 86  1  0  0  0
  3  4  1  0  0  0
  3 87  1  0  0  0
  3 88  1  0  0  0
  4  5  1  0  0  0
  4 89  1  0  0  0
  4 90  1  0  0  0
  5  6  1  0  0  0
  5 26  1  0  0  0
  5 91  1  0  0  0
  6 25  1  0  0  0
  6 92  1  0  0  0
  6 93  1  0  0  0
  7  8  2  0  0  0
  7 26  1  0  0  0
  7 29  1  0  0  0
  8  9  1  0  0  0
  8 22  1  0  0  0
  9 10  1  0  0  0
  9 27  2  0  0  0
 10 11  2  0  0  0
 10 15  1  0  0  0
 11 12  1  0  0  0
 11 94  1  0  0  0
 12 13  2  0  0  0
 12 95  1  0  0  0
 13 14  1  0  0  0
 13 31  1  0  0  0
 14 15  2  0  0  0
 14 96  1  0  0  0
 15 97  1  0  0  0
 16 17  2  0  0  0
 16 21  1  0  0  0
 16 31  1  0  0  0
 17 18  1  0  0  0
 17 98  1  0  0  0
 18 19  2  0  0  0
 18 99  1  0  0  0
 19 20  1  0  0  0
 19 24  1  0  0  0
 20 21  2  0  0  0
 20100  1  0  0  0
 21 23  1  0  0  0
 22 28  1  0  0  0
 22 32  2  0  0  0
 26 27  1  0  0  0
 28101  1  0  0  0
 28102  1  0  0  0
 29103  1  0  0  0
 29104  1  0  0  0
 33 34  1  0  0  0
 33 66  1  0  0  0
 33 70  2  0  0  0
 34 36  1  0  0  0
 34 59  1  0  0  0
 34105  1  0  0  0
 35 44  2  0  0  0
 35 45  1  0  0  0
 35 68  1  0  0  0
 36 56  1  0  0  0
 36106  1  0  0  0
 37 39  1  0  0  0
 37 47  1  0  0  0
 37 66  1  0  0  0
 37107  1  0  0  0
 38 43  2  0  0  0
 38 46  1  0  0  0
 38 47  1  0  0  0
 39 64  1  0  0  0
 39 67  2  0  0  0
 40 52  1  0  0  0
 40 53  2  0  0  0
 40 58  1  0  0  0
 41108  1  0  0  0
 41109  1  0  0  0
 41110  1  0  0  0
 41 48  1  0  0  0
 42 43  1  0  0  0
 42 66  1  0  0  0
 42111  1  0  0  0
 42112  1  0  0  0
 43 44  1  0  0  0
 44113  1  0  0  0
 45 46  2  0  0  0
 45114  1  0  0  0
 46115  1  0  0  0
 47116  1  0  0  0
 47117  1  0  0  0
 48 56  1  0  0  0
 48 65  1  0  0  0
 48118  1  0  0  0
 49 50  1  0  0  0
 49 53  1  0  0  0
 49 64  1  0  0  0
 49119  1  0  0  0
 50 51  1  0  0  0
 50120  1  0  0  0
 50121  1  0  0  0
 51 52  1  0  0  0
 51122  1  0  0  0
 51123  1  0  0  0
 52124  1  0  0  0
 52125  1  0  0  0
 53 54  1  0  0  0
 54 55  2  0  0  0
 54126  1  0  0  0
 55 57  1  0  0  0
 55127  1  0  0  0
 56 69  2  0  0  0
 57 58  2  0  0  0
 57128  1  0  0  0
 58129  1  0  0  0
 59 60  1  0  0  0
 59 61  1  0  0  0
 59 62  1  0  0  0
 60130  1  0  0  0
 60131  1  0  0  0
 60132  1  0  0  0
 61133  1  0  0  0
 61134  1  0  0  0
 61135  1  0  0  0
 62136  1  0  0  0
 62137  1  0  0  0
 62138  1  0  0  0
 63 65  1  0  0  0
 63139  1  0  0  0
 63140  1  0  0  0
 63141  1  0  0  0
 64142  1  0  0  0
 65143  1  0  0  0
 68 80  1  0  0  0
 71 73  2  0  0  0
 71 75  1  0  0  0
 71144  1  0  0  0
 72 74  2  0  0  0
 72 82  1  0  0  0
 72145  1  0  0  0
 73 74  1  0  0  0
 73 77  1  0  0  0
 74 84  1  0  0  0
 75 76  1  0  0  0
 75 82  2  0  0  0
 76146  1  0  0  0
 76147  1  0  0  0
 76148  1  0  0  0
 77 80  1  0  0  0
 77149  1  0  0  0
 77150  1  0  0  0
 78 79  1  0  0  0
 78 81  1  0  0  0
 78151  1  0  0  0
 78152  1  0  0  0
 79 83  1  0  0  0
 79153  1  0  0  0
 79154  1  0  0  0
 80155  1  0  0  0
 80156  1  0  0  0
 81 84  1  0  0  0
 81157  1  0  0  0
 81158  1  0  0  0
 83159  1  0  0  0
M  ISO  4   1 100  68 101  80 101  83 100
M  END
> <chiral flag>
0

> <version>
0

> <s_m_source_file>
/data/baiqing/PycharmProjects/Reinvent-master-3.2/result/LINK_invent/BTK/process_docking_weight1_custom_sum_contain_oxygen_bond_distance_aromatic_linkinvent_7_9_3/rearranged_h_0082.sdf

> <i_m_source_file_index>
5

> <r_mmod_Potential_Energy-OPLS-2005>
52.0376052856445

> <r_mmod_Stretch_Energy-OPLS-2005>
68.8727798461914

> <r_mmod_Bend_Energy-OPLS-2005>
167.085174560547

> <r_mmod_Torsional_Energy-OPLS-2005>
289.316589355469

> <r_mmod_Improper_Torsional_Energy-OPLS-2005>
28.4827079772949

> <r_mmod_Van_der_Waal_Energy-OPLS-2005>
139.174026489258

> <r_mmod_Electrostatic_Energy-OPLS-2005>
-479.40478515625

> <r_mmod_Solvation_Energy-OPLS-2005>
-220.806716918945

> <b_mmod_Minimization_Converged-OPLS-2005>
0

> <r_mmod_RMS_Derivative-OPLS-2005>
5.75867128372192

$$$$
5
                    3D
 Structure written by MMmdl.
168176  0  0  1  0            999 V2000
  -30.6649  -14.5188   20.5015 C   0  0  0  0  0  0
  -30.4270  -12.3129   19.4435 C   0  0  0  0  0  0
  -29.5013  -12.4907   18.2198 C   0  0  0  0  0  0
  -28.0220  -12.3484   18.6286 C   0  0  0  0  0  0
  -27.6593  -13.2055   19.8711 C   0  0  2  0  0  0
  -28.7002  -13.0195   21.0009 C   0  0  0  0  0  0
  -25.2586  -13.8154   20.5671 C   0  0  0  0  0  0
  -24.1834  -13.0447   20.9173 C   0  0  0  0  0  0
  -24.6384  -11.6905   20.8738 C   0  0  0  0  0  0
  -23.9054  -10.4300   21.0412 C   0  0  0  0  0  0
  -24.3615   -9.4216   21.9189 C   0  0  0  0  0  0
  -23.6294   -8.2250   22.0760 C   0  0  0  0  0  0
  -22.4274   -8.0287   21.3550 C   0  0  0  0  0  0
  -21.9909   -9.0261   20.4651 C   0  0  0  0  0  0
  -22.7230  -10.2141   20.3065 C   0  0  0  0  0  0
  -21.6858   -6.0743   22.5281 C   0  0  0  0  0  0
  -21.4013   -6.5646   23.8214 C   0  0  0  0  0  0
  -21.3660   -5.6792   24.9173 C   0  0  0  0  0  0
  -21.6044   -4.3058   24.7223 C   0  0  0  0  0  0
  -21.8822   -3.8152   23.4349 C   0  0  0  0  0  0
  -21.9196   -4.6967   22.3402 C   0  0  0  0  0  0
  -22.7859  -13.5243   21.1842 C   0  0  0  0  0  0
  -22.1667   -4.2156   21.0978 F   0  0  0  0  0  0
  -21.5631   -3.4539   25.7737 F   0  0  0  0  0  0
  -30.0325  -13.3151   20.4477 N   0  0  0  0  0  0
  -26.3007  -12.9317   20.3346 N   0  0  0  0  0  0
  -25.9311  -11.6482   20.5767 N   0  0  0  0  0  0
  -22.0494  -12.8242   22.0400 N   0  0  0  0  0  0
  -25.4324  -15.1873   20.4077 N   0  0  0  0  0  0
  -31.8183  -14.6862   20.0953 O   0  0  0  0  0  0
  -21.6644   -6.8880   21.4242 O   0  0  0  0  0  0
  -22.3547  -14.5555   20.6693 O   0  0  0  0  0  0
  -24.6177  -31.8640   23.2072 C   0  0  0  0  0  0
  -25.9063  -32.4797   23.8373 C   0  0  1  0  0  0
  -27.2401  -27.4014   20.1059 C   0  0  0  0  0  0
  -25.5911  -33.8593   24.2306 N   0  0  0  0  0  0
  -23.4064  -30.4840   21.5477 C   0  0  2  0  0  0
  -24.8521  -28.9402   20.1168 C   0  0  0  0  0  0
  -22.7420  -29.4633   22.5001 C   0  0  0  0  0  0
  -18.0264  -28.1387   22.8481 C   0  0  0  0  0  0
  -24.1491  -36.7304   23.2639 C   0  0  0  0  0  0
  -25.9354  -30.8198   21.3627 C   0  0  0  0  0  0
  -26.0112  -29.4495   20.7126 C   0  0  0  0  0  0
  -27.2024  -28.6852   20.7043 C   0  0  0  0  0  0
  -26.0587  -26.9113   19.5024 C   0  0  0  0  0  0
  -24.8712  -27.6704   19.5113 C   0  0  0  0  0  0
  -23.6150  -29.8100   20.1640 C   0  0  0  0  0  0
  -25.4113  -36.3094   24.0339 C   0  0  1  0  0  0
  -20.5857  -28.3663   23.1324 C   0  0  2  0  0  0
  -20.6766  -26.9405   22.5418 C   0  0  0  0  0  0
  -19.5751  -26.6388   21.5211 C   0  0  0  0  0  0
  -18.1921  -26.7931   22.1616 C   0  0  0  0  0  0
  -19.1516  -28.8846   23.2893 C   0  0  0  0  0  0
  -18.9449  -30.1451   23.8904 C   0  0  0  0  0  0
  -17.6455  -30.6590   24.0559 C   0  0  0  0  0  0
  -25.9042  -34.9457   23.5120 C   0  0  0  0  0  0
  -16.5341  -29.9089   23.6337 C   0  0  0  0  0  0
  -16.7254  -28.6509   23.0349 C   0  0  0  0  0  0
  -26.4485  -31.6600   25.0722 C   0  0  0  0  0  0
  -25.3736  -31.3739   26.1466 C   0  0  0  0  0  0
  -27.0321  -30.3033   24.6125 C   0  0  0  0  0  0
  -27.6065  -32.4321   25.7477 C   0  0  0  0  0  0
  -27.5582  -37.1808   24.8466 C   0  0  0  0  0  0
  -21.4150  -29.3023   22.3737 N   0  0  0  0  0  0
  -26.4297  -37.3781   23.9412 N   0  0  0  0  0  0
  -24.6712  -31.0714   22.0981 N   0  0  0  0  0  0
  -23.4174  -28.8183   23.3062 O   0  0  0  0  0  0
  -28.4345  -26.7003   20.1374 O   0  0  0  0  0  0
  -26.5593  -34.8915   22.4675 O   0  0  0  0  0  0
  -23.5360  -32.1415   23.7441 O   0  0  0  0  0  0
  -28.5125  -21.6654   20.3327 C   0  0  0  0  0  0
  -29.0561  -22.9091   20.5894 C   0  0  0  0  0  0
  -30.4638  -22.6320   20.5244 C   0  0  0  0  0  0
  -31.6471  -23.5384   20.7267 C   0  0  0  0  0  0
  -28.8664  -24.8085   22.2387 C   0  0  0  0  0  0
  -26.8283  -23.9939   21.0866 C   0  0  0  0  0  0
  -28.6175  -18.1175   21.7660 C   0  0  0  0  0  0
  -31.0949  -18.4190   21.4987 C   0  0  0  0  0  0
  -29.4795  -19.3338   19.7056 C   0  0  0  0  0  0
  -29.8793  -16.8317   19.9622 C   0  0  0  0  0  0
  -28.5480  -25.3084   19.7551 C   0  0  0  0  0  0
  -28.3386  -24.2493   20.8997 C   0  0  0  0  0  0
  -29.7707  -18.1836   20.7453 C   0  0  0  0  0  0
  -30.7280  -21.3624   20.2470 N   0  0  0  0  0  0
  -29.5349  -20.7432   20.1464 N   0  0  0  0  0  0
  -29.8554  -15.5719   20.7430 N   0  0  0  0  0  0
  -31.4733  -12.4113   19.1456 H   0  0  0  0  0  0
  -30.3311  -11.3085   19.8570 H   0  0  0  0  0  0
  -29.7463  -11.7552   17.4525 H   0  0  0  0  0  0
  -29.6667  -13.4712   17.7687 H   0  0  0  0  0  0
  -27.8378  -11.2948   18.8394 H   0  0  0  0  0  0
  -27.3711  -12.6065   17.7921 H   0  0  0  0  0  0
  -27.6916  -14.2463   19.5483 H   0  0  0  0  0  0
  -28.6764  -11.9959   21.3772 H   0  0  0  0  0  0
  -28.4659  -13.6558   21.8561 H   0  0  0  0  0  0
  -25.2768   -9.5694   22.4756 H   0  0  0  0  0  0
  -24.0017   -7.4638   22.7472 H   0  0  0  0  0  0
  -21.0852   -8.8770   19.8951 H   0  0  0  0  0  0
  -22.3695  -10.9679   19.6170 H   0  0  0  0  0  0
  -21.2008   -7.6151   23.9720 H   0  0  0  0  0  0
  -21.1473   -6.0520   25.9073 H   0  0  0  0  0  0
  -22.0603   -2.7620   23.2842 H   0  0  0  0  0  0
  -22.4118  -11.9909   22.4790 H   0  0  0  0  0  0
  -21.1114  -13.1265   22.2604 H   0  0  0  0  0  0
  -24.6662  -15.8418   20.5174 H   0  0  0  0  0  0
  -26.2824  -15.6253   20.0774 H   0  0  0  0  0  0
  -26.7122  -32.5505   23.1120 H   0  0  0  0  0  0
  -25.0090  -33.9736   25.0471 H   0  0  0  0  0  0
  -22.6977  -31.3025   21.4047 H   0  0  0  0  0  0
  -23.3743  -35.9644   23.3308 H   0  0  0  0  0  0
  -24.3588  -36.8918   22.2052 H   0  0  0  0  0  0
  -23.7252  -37.6516   23.6646 H   0  0  0  0  0  0
  -26.0465  -31.5813   20.5892 H   0  0  0  0  0  0
  -26.8231  -30.8763   21.9818 H   0  0  0  0  0  0
  -28.0990  -29.0709   21.1690 H   0  0  0  0  0  0
  -26.0279  -25.9410   19.0314 H   0  0  0  0  0  0
  -23.9773  -27.2702   19.0529 H   0  0  0  0  0  0
  -23.7211  -30.5807   19.3995 H   0  0  0  0  0  0
  -22.7392  -29.2279   19.8732 H   0  0  0  0  0  0
  -25.1290  -36.1953   25.0832 H   0  0  0  0  0  0
  -20.9926  -28.3206   24.1454 H   0  0  0  0  0  0
  -20.5697  -26.2254   23.3590 H   0  0  0  0  0  0
  -21.6638  -26.7474   22.1203 H   0  0  0  0  0  0
  -19.6925  -25.6299   21.1249 H   0  0  0  0  0  0
  -19.6713  -27.3187   20.6732 H   0  0  0  0  0  0
  -17.4203  -26.6668   21.4010 H   0  0  0  0  0  0
  -18.0327  -26.0077   22.9019 H   0  0  0  0  0  0
  -19.7930  -30.7253   24.2290 H   0  0  0  0  0  0
  -17.5018  -31.6282   24.5142 H   0  0  0  0  0  0
  -15.5348  -30.2993   23.7686 H   0  0  0  0  0  0
  -15.8651  -28.0841   22.7072 H   0  0  0  0  0  0
  -24.5876  -30.7135   25.7798 H   0  0  0  0  0  0
  -24.8965  -32.2910   26.4928 H   0  0  0  0  0  0
  -25.8060  -30.8869   27.0214 H   0  0  0  0  0  0
  -26.2890  -29.6788   24.1152 H   0  0  0  0  0  0
  -27.4079  -29.7291   25.4608 H   0  0  0  0  0  0
  -27.8719  -30.4363   23.9297 H   0  0  0  0  0  0
  -27.2730  -33.3648   26.2030 H   0  0  0  0  0  0
  -28.3858  -32.6843   25.0281 H   0  0  0  0  0  0
  -28.0728  -31.8447   26.5393 H   0  0  0  0  0  0
  -28.2600  -38.0102   24.7498 H   0  0  0  0  0  0
  -28.1076  -36.2634   24.6303 H   0  0  0  0  0  0
  -27.2301  -37.1467   25.8869 H   0  0  0  0  0  0
  -20.9324  -29.8732   21.6945 H   0  0  0  0  0  0
  -26.0188  -38.2863   24.1398 H   0  0  0  0  0  0
  -27.4762  -21.3622   20.2551 H   0  0  0  0  0  0
  -32.0464  -23.4379   21.7369 H   0  0  0  0  0  0
  -31.4035  -24.5867   20.5693 H   0  0  0  0  0  0
  -32.4527  -23.2931   20.0324 H   0  0  0  0  0  0
  -28.7546  -24.0827   23.0451 H   0  0  0  0  0  0
  -28.3205  -25.7071   22.5308 H   0  0  0  0  0  0
  -29.9166  -25.0873   22.1943 H   0  0  0  0  0  0
  -26.6424  -23.2503   21.8627 H   0  0  0  0  0  0
  -26.3610  -23.6388   20.1672 H   0  0  0  0  0  0
  -26.3063  -24.9004   21.3925 H   0  0  0  0  0  0
  -28.4848  -19.0703   22.2778 H   0  0  0  0  0  0
  -28.7960  -17.3640   22.5338 H   0  0  0  0  0  0
  -27.6726  -17.8741   21.2794 H   0  0  0  0  0  0
  -31.0573  -19.3177   22.1151 H   0  0  0  0  0  0
  -31.9283  -18.5351   20.8046 H   0  0  0  0  0  0
  -31.3352  -17.5830   22.1559 H   0  0  0  0  0  0
  -28.4991  -19.1694   19.2566 H   0  0  0  0  0  0
  -30.1843  -19.2413   18.8774 H   0  0  0  0  0  0
  -29.0342  -16.7632   19.2754 H   0  0  0  0  0  0
  -30.7583  -16.8631   19.3164 H   0  0  0  0  0  0
  -27.9677  -25.0628   18.8662 H   0  0  0  0  0  0
  -29.5798  -25.2312   19.4159 H   0  0  0  0  0  0
  -28.9604  -15.3298   21.1395 H   0  0  0  0  0  0
  1 25  1  0  0  0
  1 30  2  0  0  0
  1 86  1  0  0  0
  2  3  1  0  0  0
  2 25  1  0  0  0
  2 87  1  0  0  0
  2 88  1  0  0  0
  3  4  1  0  0  0
  3 89  1  0  0  0
  3 90  1  0  0  0
  4  5  1  0  0  0
  4 91  1  0  0  0
  4 92  1  0  0  0
  5  6  1  0  0  0
  5 26  1  0  0  0
  5 93  1  0  0  0
  6 25  1  0  0  0
  6 94  1  0  0  0
  6 95  1  0  0  0
  7  8  2  0  0  0
  7 26  1  0  0  0
  7 29  1  0  0  0
  8  9  1  0  0  0
  8 22  1  0  0  0
  9 10  1  0  0  0
  9 27  2  0  0  0
 10 11  2  0  0  0
 10 15  1  0  0  0
 11 12  1  0  0  0
 11 96  1  0  0  0
 12 13  2  0  0  0
 12 97  1  0  0  0
 13 14  1  0  0  0
 13 31  1  0  0  0
 14 15  2  0  0  0
 14 98  1  0  0  0
 15 99  1  0  0  0
 16 17  2  0  0  0
 16 21  1  0  0  0
 16 31  1  0  0  0
 17 18  1  0  0  0
 17100  1  0  0  0
 18 19  2  0  0  0
 18101  1  0  0  0
 19 20  1  0  0  0
 19 24  1  0  0  0
 20 21  2  0  0  0
 20102  1  0  0  0
 21 23  1  0  0  0
 22 28  1  0  0  0
 22 32  2  0  0  0
 26 27  1  0  0  0
 28103  1  0  0  0
 28104  1  0  0  0
 29105  1  0  0  0
 29106  1  0  0  0
 33 34  1  0  0  0
 33 66  1  0  0  0
 33 70  2  0  0  0
 34 36  1  0  0  0
 34 59  1  0  0  0
 34107  1  0  0  0
 35 44  2  0  0  0
 35 45  1  0  0  0
 35 68  1  0  0  0
 36 56  1  0  0  0
 36108  1  0  0  0
 37 39  1  0  0  0
 37 47  1  0  0  0
 37 66  1  0  0  0
 37109  1  0  0  0
 38 43  2  0  0  0
 38 46  1  0  0  0
 38 47  1  0  0  0
 39 64  1  0  0  0
 39 67  2  0  0  0
 40 52  1  0  0  0
 40 53  2  0  0  0
 40 58  1  0  0  0
 41110  1  0  0  0
 41111  1  0  0  0
 41112  1  0  0  0
 41 48  1  0  0  0
 42 43  1  0  0  0
 42 66  1  0  0  0
 42113  1  0  0  0
 42114  1  0  0  0
 43 44  1  0  0  0
 44115  1  0  0  0
 45 46  2  0  0  0
 45116  1  0  0  0
 46117  1  0  0  0
 47118  1  0  0  0
 47119  1  0  0  0
 48 56  1  0  0  0
 48 65  1  0  0  0
 48120  1  0  0  0
 49 50  1  0  0  0
 49 53  1  0  0  0
 49 64  1  0  0  0
 49121  1  0  0  0
 50 51  1  0  0  0
 50122  1  0  0  0
 50123  1  0  0  0
 51 52  1  0  0  0
 51124  1  0  0  0
 51125  1  0  0  0
 52126  1  0  0  0
 52127  1  0  0  0
 53 54  1  0  0  0
 54 55  2  0  0  0
 54128  1  0  0  0
 55 57  1  0  0  0
 55129  1  0  0  0
 56 69  2  0  0  0
 57 58  2  0  0  0
 57130  1  0  0  0
 58131  1  0  0  0
 59 60  1  0  0  0
 59 61  1  0  0  0
 59 62  1  0  0  0
 60132  1  0  0  0
 60133  1  0  0  0
 60134  1  0  0  0
 61135  1  0  0  0
 61136  1  0  0  0
 61137  1  0  0  0
 62138  1  0  0  0
 62139  1  0  0  0
 62140  1  0  0  0
 63 65  1  0  0  0
 63141  1  0  0  0
 63142  1  0  0  0
 63143  1  0  0  0
 64144  1  0  0  0
 65145  1  0  0  0
 68 81  1  0  0  0
 71 72  2  0  0  0
 71 85  1  0  0  0
 71146  1  0  0  0
 72 73  1  0  0  0
 72 82  1  0  0  0
 73 74  1  0  0  0
 73 84  2  0  0  0
 74147  1  0  0  0
 74148  1  0  0  0
 74149  1  0  0  0
 75150  1  0  0  0
 75151  1  0  0  0
 75152  1  0  0  0
 75 82  1  0  0  0
 76 82  1  0  0  0
 76153  1  0  0  0
 76154  1  0  0  0
 76155  1  0  0  0
 77156  1  0  0  0
 77157  1  0  0  0
 77158  1  0  0  0
 77 83  1  0  0  0
 78 83  1  0  0  0
 78159  1  0  0  0
 78160  1  0  0  0
 78161  1  0  0  0
 79 83  1  0  0  0
 79 85  1  0  0  0
 79162  1  0  0  0
 79163  1  0  0  0
 80 83  1  0  0  0
 80 86  1  0  0  0
 80164  1  0  0  0
 80165  1  0  0  0
 81 82  1  0  0  0
 81166  1  0  0  0
 81167  1  0  0  0
 84 85  1  0  0  0
 86168  1  0  0  0
M  ISO  4   1 100  68 101  81 101  86 100
M  END
> <chiral flag>
0

> <version>
0

> <s_m_source_file>
/data/baiqing/PycharmProjects/Reinvent-master-3.2/result/LINK_invent/BTK/process_docking_weight1_custom_sum_contain_oxygen_bond_distance_aromatic_linkinvent_7_9_3/rearranged_h_0082.sdf

> <i_m_source_file_index>
6

> <r_mmod_Potential_Energy-OPLS-2005>
-73.3950958251953

> <r_mmod_Stretch_Energy-OPLS-2005>
48.2430877685547

> <r_mmod_Bend_Energy-OPLS-2005>
129.594985961914

> <r_mmod_Torsional_Energy-OPLS-2005>
240.056594848633

> <r_mmod_Improper_Torsional_Energy-OPLS-2005>
10.0860738754272

> <r_mmod_Van_der_Waal_Energy-OPLS-2005>
121.508712768555

> <r_mmod_Electrostatic_Energy-OPLS-2005>
-431.407806396484

> <r_mmod_Solvation_Energy-OPLS-2005>
-211.385162353516

> <b_mmod_Minimization_Converged-OPLS-2005>
0

> <r_mmod_RMS_Derivative-OPLS-2005>
2.14260864257812

$$$$
6
                    3D
 Structure written by MMmdl.
157165  0  0  1  0            999 V2000
  -30.7193  -14.4896   20.5447 C   0  0  0  0  0  0
  -30.4112  -12.3119   19.4342 C   0  0  0  0  0  0
  -29.4907  -12.4933   18.2109 C   0  0  0  0  0  0
  -28.0133  -12.3572   18.6256 C   0  0  0  0  0  0
  -27.6553  -13.2156   19.8690 C   0  0  2  0  0  0
  -28.6980  -13.0402   20.9962 C   0  0  0  0  0  0
  -25.2561  -13.8184   20.5696 C   0  0  0  0  0  0
  -24.1821  -13.0448   20.9191 C   0  0  0  0  0  0
  -24.6384  -11.6918   20.8745 C   0  0  0  0  0  0
  -23.9058  -10.4297   21.0408 C   0  0  0  0  0  0
  -24.3608   -9.4214   21.9187 C   0  0  0  0  0  0
  -23.6287   -8.2248   22.0757 C   0  0  0  0  0  0
  -22.4272   -8.0283   21.3544 C   0  0  0  0  0  0
  -21.9905   -9.0256   20.4646 C   0  0  0  0  0  0
  -22.7231  -10.2138   20.3057 C   0  0  0  0  0  0
  -21.6853   -6.0733   22.5278 C   0  0  0  0  0  0
  -21.4014   -6.5638   23.8211 C   0  0  0  0  0  0
  -21.3660   -5.6791   24.9174 C   0  0  0  0  0  0
  -21.6045   -4.3053   24.7225 C   0  0  0  0  0  0
  -21.8819   -3.8145   23.4346 C   0  0  0  0  0  0
  -21.9192   -4.6961   22.3403 C   0  0  0  0  0  0
  -22.7844  -13.5244   21.1856 C   0  0  0  0  0  0
  -22.1660   -4.2146   21.0981 F   0  0  0  0  0  0
  -21.5629   -3.4539   25.7739 F   0  0  0  0  0  0
  -30.0245  -13.3250   20.4309 N   0  0  0  0  0  0
  -26.2994  -12.9366   20.3357 N   0  0  0  0  0  0
  -25.9314  -11.6519   20.5778 N   0  0  0  0  0  0
  -22.0478  -12.8232   22.0403 N   0  0  0  0  0  0
  -25.4289  -15.1905   20.4107 N   0  0  0  0  0  0
  -31.8671  -14.6132   20.1112 O   0  0  0  0  0  0
  -21.6640   -6.8877   21.4239 O   0  0  0  0  0  0
  -22.3534  -14.5551   20.6708 O   0  0  0  0  0  0
  -24.6165  -31.8676   23.2100 C   0  0  0  0  0  0
  -25.9055  -32.4818   23.8391 C   0  0  1  0  0  0
  -27.2210  -27.4061   20.0961 C   0  0  0  0  0  0
  -25.5911  -33.8617   24.2323 N   0  0  0  0  0  0
  -23.4042  -30.4924   21.5515 C   0  0  2  0  0  0
  -24.8481  -28.9620   20.1095 C   0  0  0  0  0  0
  -22.7418  -29.4651   22.4977 C   0  0  0  0  0  0
  -18.0271  -28.1363   22.8479 C   0  0  0  0  0  0
  -24.1495  -36.7305   23.2637 C   0  0  0  0  0  0
  -25.9372  -30.8240   21.3689 C   0  0  0  0  0  0
  -26.0112  -29.4585   20.7106 C   0  0  0  0  0  0
  -27.2005  -28.6886   20.7002 C   0  0  0  0  0  0
  -26.0418  -26.9464   19.4640 C   0  0  0  0  0  0
  -24.8600  -27.7068   19.4815 C   0  0  0  0  0  0
  -23.6126  -29.8314   20.1640 C   0  0  0  0  0  0
  -25.4120  -36.3104   24.0331 C   0  0  1  0  0  0
  -20.5861  -28.3661   23.1305 C   0  0  2  0  0  0
  -20.6767  -26.9394   22.5411 C   0  0  0  0  0  0
  -19.5752  -26.6376   21.5203 C   0  0  0  0  0  0
  -18.1927  -26.7908   22.1609 C   0  0  0  0  0  0
  -19.1520  -28.8826   23.2891 C   0  0  0  0  0  0
  -18.9450  -30.1431   23.8904 C   0  0  0  0  0  0
  -17.6455  -30.6574   24.0553 C   0  0  0  0  0  0
  -25.9045  -34.9470   23.5122 C   0  0  0  0  0  0
  -16.5345  -29.9073   23.6317 C   0  0  0  0  0  0
  -16.7260  -28.6487   23.0340 C   0  0  0  0  0  0
  -26.4477  -31.6602   25.0727 C   0  0  0  0  0  0
  -25.3742  -31.3714   26.1478 C   0  0  0  0  0  0
  -27.0313  -30.3039   24.6122 C   0  0  0  0  0  0
  -27.6043  -32.4335   25.7487 C   0  0  0  0  0  0
  -27.5588  -37.1812   24.8464 C   0  0  0  0  0  0
  -21.4144  -29.3029   22.3717 N   0  0  0  0  0  0
  -26.4306  -37.3786   23.9399 N   0  0  0  0  0  0
  -24.6709  -31.0759   22.1010 N   0  0  0  0  0  0
  -23.4192  -28.8182   23.3009 O   0  0  0  0  0  0
  -28.3715  -26.6338   20.1428 O   0  0  0  0  0  0
  -26.5597  -34.8917   22.4679 O   0  0  0  0  0  0
  -23.5356  -32.1436   23.7485 O   0  0  0  0  0  0
  -30.1348  -22.0630   20.6136 C   0  0  0  0  0  0
  -29.7111  -20.7875   20.9243 C   0  0  0  0  0  0
  -28.0902  -22.2495   21.4371 C   0  0  0  0  0  0
  -26.7917  -22.7725   21.9634 C   0  0  0  0  0  0
  -30.4679  -19.4748   20.8670 C   0  0  0  0  0  0
  -29.6712  -18.1414   21.0081 C   0  0  0  0  0  0
  -29.2410  -24.4387   20.9359 C   0  0  0  0  0  0
  -30.6477  -16.9277   21.0278 C   0  0  0  0  0  0
  -28.2226  -25.1947   20.0453 C   0  0  0  0  0  0
  -29.1371  -22.9491   20.9566 N   0  0  0  0  0  0
  -28.4358  -20.9517   21.4045 N   0  3  0  0  0  0
  -30.0496  -15.5728   20.9999 N   0  0  0  0  0  0
  -31.4576  -12.3895   19.1337 H   0  0  0  0  0  0
  -30.2976  -11.3116   19.8547 H   0  0  0  0  0  0
  -29.7316  -11.7549   17.4450 H   0  0  0  0  0  0
  -29.6606  -13.4717   17.7586 H   0  0  0  0  0  0
  -27.8280  -11.3036   18.8383 H   0  0  0  0  0  0
  -27.3611  -12.6152   17.7902 H   0  0  0  0  0  0
  -27.6879  -14.2572   19.5485 H   0  0  0  0  0  0
  -28.6747  -12.0210   21.3842 H   0  0  0  0  0  0
  -28.4666  -13.6865   21.8440 H   0  0  0  0  0  0
  -25.2749   -9.5694   22.4767 H   0  0  0  0  0  0
  -23.9995   -7.4641   22.7476 H   0  0  0  0  0  0
  -21.0838   -8.8771   19.8951 H   0  0  0  0  0  0
  -22.3684  -10.9676   19.6168 H   0  0  0  0  0  0
  -21.2006   -7.6147   23.9712 H   0  0  0  0  0  0
  -21.1484   -6.0524   25.9077 H   0  0  0  0  0  0
  -22.0597   -2.7607   23.2849 H   0  0  0  0  0  0
  -22.4075  -11.9879   22.4779 H   0  0  0  0  0  0
  -21.1101  -13.1271   22.2616 H   0  0  0  0  0  0
  -24.6652  -15.8490   20.5208 H   0  0  0  0  0  0
  -26.2823  -15.6250   20.0829 H   0  0  0  0  0  0
  -26.7122  -32.5518   23.1148 H   0  0  0  0  0  0
  -25.0089  -33.9780   25.0488 H   0  0  0  0  0  0
  -22.6926  -31.3094   21.4153 H   0  0  0  0  0  0
  -23.3758  -35.9639   23.3309 H   0  0  0  0  0  0
  -24.3584  -36.8910   22.2049 H   0  0  0  0  0  0
  -23.7255  -37.6513   23.6649 H   0  0  0  0  0  0
  -26.0586  -31.5930   20.6044 H   0  0  0  0  0  0
  -26.8215  -30.8703   21.9926 H   0  0  0  0  0  0
  -28.0954  -29.0640   21.1774 H   0  0  0  0  0  0
  -26.0119  -25.9977   18.9482 H   0  0  0  0  0  0
  -23.9693  -27.3238   19.0027 H   0  0  0  0  0  0
  -23.7220  -30.6096   19.4081 H   0  0  0  0  0  0
  -22.7350  -29.2549   19.8663 H   0  0  0  0  0  0
  -25.1303  -36.1968   25.0825 H   0  0  0  0  0  0
  -20.9950  -28.3232   24.1425 H   0  0  0  0  0  0
  -20.5671  -26.2264   23.3599 H   0  0  0  0  0  0
  -21.6640  -26.7441   22.1205 H   0  0  0  0  0  0
  -19.6919  -25.6293   21.1220 H   0  0  0  0  0  0
  -19.6693  -27.3192   20.6737 H   0  0  0  0  0  0
  -17.4199  -26.6643   21.4010 H   0  0  0  0  0  0
  -18.0333  -26.0050   22.9002 H   0  0  0  0  0  0
  -19.7933  -30.7234   24.2284 H   0  0  0  0  0  0
  -17.5014  -31.6251   24.5159 H   0  0  0  0  0  0
  -15.5347  -30.2978   23.7645 H   0  0  0  0  0  0
  -15.8655  -28.0814   22.7052 H   0  0  0  0  0  0
  -24.5913  -30.7056   25.7827 H   0  0  0  0  0  0
  -24.8934  -32.2869   26.4932 H   0  0  0  0  0  0
  -25.8101  -30.8891   27.0236 H   0  0  0  0  0  0
  -26.2863  -29.6795   24.1178 H   0  0  0  0  0  0
  -27.4072  -29.7284   25.4590 H   0  0  0  0  0  0
  -27.8701  -30.4339   23.9279 H   0  0  0  0  0  0
  -27.2650  -33.3631   26.2070 H   0  0  0  0  0  0
  -28.3849  -32.6910   25.0315 H   0  0  0  0  0  0
  -28.0716  -31.8463   26.5406 H   0  0  0  0  0  0
  -28.2616  -38.0100   24.7510 H   0  0  0  0  0  0
  -28.1076  -36.2633   24.6302 H   0  0  0  0  0  0
  -27.2293  -37.1467   25.8862 H   0  0  0  0  0  0
  -20.9300  -29.8757   21.6947 H   0  0  0  0  0  0
  -26.0197  -38.2869   24.1387 H   0  0  0  0  0  0
  -31.0878  -22.4010   20.2268 H   0  0  0  0  0  0
  -26.9677  -23.6973   22.5117 H   0  0  0  0  0  0
  -26.3572  -22.0306   22.6328 H   0  0  0  0  0  0
  -26.1208  -22.9464   21.1225 H   0  0  0  0  0  0
  -31.2299  -19.5107   21.6463 H   0  0  0  0  0  0
  -31.0165  -19.4554   19.9246 H   0  0  0  0  0  0
  -28.9688  -18.0489   20.1791 H   0  0  0  0  0  0
  -29.0854  -18.1487   21.9279 H   0  0  0  0  0  0
  -29.1470  -24.7776   21.9677 H   0  0  0  0  0  0
  -30.2524  -24.6969   20.6227 H   0  0  0  0  0  0
  -31.2863  -16.9921   21.9105 H   0  0  0  0  0  0
  -31.3163  -17.0374   20.1713 H   0  0  0  0  0  0
  -27.2304  -24.8826   20.3632 H   0  0  0  0  0  0
  -28.3376  -24.8933   19.0034 H   0  0  0  0  0  0
  -27.8385  -20.2005   21.7312 H   0  0  0  0  0  0
  -29.0979  -15.4483   21.3128 H   0  0  0  0  0  0
  1 25  1  0  0  0
  1 30  2  0  0  0
  1 82  1  0  0  0
  2  3  1  0  0  0
  2 25  1  0  0  0
  2 83  1  0  0  0
  2 84  1  0  0  0
  3  4  1  0  0  0
  3 85  1  0  0  0
  3 86  1  0  0  0
  4  5  1  0  0  0
  4 87  1  0  0  0
  4 88  1  0  0  0
  5  6  1  0  0  0
  5 26  1  0  0  0
  5 89  1  0  0  0
  6 25  1  0  0  0
  6 90  1  0  0  0
  6 91  1  0  0  0
  7  8  2  0  0  0
  7 26  1  0  0  0
  7 29  1  0  0  0
  8  9  1  0  0  0
  8 22  1  0  0  0
  9 10  1  0  0  0
  9 27  2  0  0  0
 10 11  2  0  0  0
 10 15  1  0  0  0
 11 12  1  0  0  0
 11 92  1  0  0  0
 12 13  2  0  0  0
 12 93  1  0  0  0
 13 14  1  0  0  0
 13 31  1  0  0  0
 14 15  2  0  0  0
 14 94  1  0  0  0
 15 95  1  0  0  0
 16 17  2  0  0  0
 16 21  1  0  0  0
 16 31  1  0  0  0
 17 18  1  0  0  0
 17 96  1  0  0  0
 18 19  2  0  0  0
 18 97  1  0  0  0
 19 20  1  0  0  0
 19 24  1  0  0  0
 20 21  2  0  0  0
 20 98  1  0  0  0
 21 23  1  0  0  0
 22 28  1  0  0  0
 22 32  2  0  0  0
 26 27  1  0  0  0
 28 99  1  0  0  0
 28100  1  0  0  0
 29101  1  0  0  0
 29102  1  0  0  0
 33 34  1  0  0  0
 33 66  1  0  0  0
 33 70  2  0  0  0
 34 36  1  0  0  0
 34 59  1  0  0  0
 34103  1  0  0  0
 35 44  2  0  0  0
 35 45  1  0  0  0
 35 68  1  0  0  0
 36 56  1  0  0  0
 36104  1  0  0  0
 37 39  1  0  0  0
 37 47  1  0  0  0
 37 66  1  0  0  0
 37105  1  0  0  0
 38 43  2  0  0  0
 38 46  1  0  0  0
 38 47  1  0  0  0
 39 64  1  0  0  0
 39 67  2  0  0  0
 40 52  1  0  0  0
 40 53  2  0  0  0
 40 58  1  0  0  0
 41106  1  0  0  0
 41107  1  0  0  0
 41108  1  0  0  0
 41 48  1  0  0  0
 42 43  1  0  0  0
 42 66  1  0  0  0
 42109  1  0  0  0
 42110  1  0  0  0
 43 44  1  0  0  0
 44111  1  0  0  0
 45 46  2  0  0  0
 45112  1  0  0  0
 46113  1  0  0  0
 47114  1  0  0  0
 47115  1  0  0  0
 48 56  1  0  0  0
 48 65  1  0  0  0
 48116  1  0  0  0
 49 50  1  0  0  0
 49 53  1  0  0  0
 49 64  1  0  0  0
 49117  1  0  0  0
 50 51  1  0  0  0
 50118  1  0  0  0
 50119  1  0  0  0
 51 52  1  0  0  0
 51120  1  0  0  0
 51121  1  0  0  0
 52122  1  0  0  0
 52123  1  0  0  0
 53 54  1  0  0  0
 54 55  2  0  0  0
 54124  1  0  0  0
 55 57  1  0  0  0
 55125  1  0  0  0
 56 69  2  0  0  0
 57 58  2  0  0  0
 57126  1  0  0  0
 58127  1  0  0  0
 59 60  1  0  0  0
 59 61  1  0  0  0
 59 62  1  0  0  0
 60128  1  0  0  0
 60129  1  0  0  0
 60130  1  0  0  0
 61131  1  0  0  0
 61132  1  0  0  0
 61133  1  0  0  0
 62134  1  0  0  0
 62135  1  0  0  0
 62136  1  0  0  0
 63 65  1  0  0  0
 63137  1  0  0  0
 63138  1  0  0  0
 63139  1  0  0  0
 64140  1  0  0  0
 65141  1  0  0  0
 68 79  1  0  0  0
 71 72  2  0  0  0
 71 80  1  0  0  0
 71142  1  0  0  0
 72 75  1  0  0  0
 72 81  1  0  0  0
 73 74  1  0  0  0
 73 80  1  0  0  0
 73 81  2  0  0  0
 74143  1  0  0  0
 74144  1  0  0  0
 74145  1  0  0  0
 75 76  1  0  0  0
 75146  1  0  0  0
 75147  1  0  0  0
 76 78  1  0  0  0
 76148  1  0  0  0
 76149  1  0  0  0
 77 79  1  0  0  0
 77 80  1  0  0  0
 77150  1  0  0  0
 77151  1  0  0  0
 78 82  1  0  0  0
 78152  1  0  0  0
 78153  1  0  0  0
 79154  1  0  0  0
 79155  1  0  0  0
 81156  1  0  0  0
 82157  1  0  0  0
M  CHG  1  81   1
M  ISO  4   1 100  68 101  79 101  82 100
M  END
> <chiral flag>
0

> <version>
0

> <s_m_source_file>
/data/baiqing/PycharmProjects/Reinvent-master-3.2/result/LINK_invent/BTK/process_docking_weight1_custom_sum_contain_oxygen_bond_distance_aromatic_linkinvent_7_9_3/rearranged_h_0082.sdf

> <i_m_source_file_index>
7

> <r_mmod_Potential_Energy-OPLS-2005>
-126.766563415527

> <r_mmod_Stretch_Energy-OPLS-2005>
40.6794967651367

> <r_mmod_Bend_Energy-OPLS-2005>
106.143974304199

> <r_mmod_Torsional_Energy-OPLS-2005>
214.352844238281

> <r_mmod_Improper_Torsional_Energy-OPLS-2005>
4.19606018066406

> <r_mmod_Van_der_Waal_Energy-OPLS-2005>
133.310348510742

> <r_mmod_Electrostatic_Energy-OPLS-2005>
-217.647232055664

> <r_mmod_Solvation_Energy-OPLS-2005>
-427.296661376953

> <b_mmod_Minimization_Converged-OPLS-2005>
0

> <r_mmod_RMS_Derivative-OPLS-2005>
0.74856960773468

$$$$
7
                    3D
 Structure written by MMmdl.
153161  0  0  1  0            999 V2000
  -30.5640  -14.8531   20.4209 C   0  0  0  0  0  0
  -30.4201  -12.5335   19.4359 C   0  0  0  0  0  0
  -29.4702  -12.4888   18.2157 C   0  0  0  0  0  0
  -27.9971  -12.3499   18.6392 C   0  0  0  0  0  0
  -27.6203  -13.2452   19.8478 C   0  0  2  0  0  0
  -28.6839  -13.2015   20.9605 C   0  0  0  0  0  0
  -25.2372  -13.8249   20.5782 C   0  0  0  0  0  0
  -24.1696  -13.0475   20.9281 C   0  0  0  0  0  0
  -24.6288  -11.6970   20.8828 C   0  0  0  0  0  0
  -23.8972  -10.4340   21.0413 C   0  0  0  0  0  0
  -24.3536   -9.4263   21.9184 C   0  0  0  0  0  0
  -23.6239   -8.2287   22.0777 C   0  0  0  0  0  0
  -22.4239   -8.0294   21.3540 C   0  0  0  0  0  0
  -21.9855   -9.0258   20.4652 C   0  0  0  0  0  0
  -22.7143  -10.2147   20.3063 C   0  0  0  0  0  0
  -21.6861   -6.0720   22.5284 C   0  0  0  0  0  0
  -21.4004   -6.5619   23.8218 C   0  0  0  0  0  0
  -21.3661   -5.6776   24.9171 C   0  0  0  0  0  0
  -21.6033   -4.3047   24.7213 C   0  0  0  0  0  0
  -21.8824   -3.8134   23.4339 C   0  0  0  0  0  0
  -21.9187   -4.6947   22.3392 C   0  0  0  0  0  0
  -22.7696  -13.5269   21.1849 C   0  0  0  0  0  0
  -22.1668   -4.2146   21.0964 F   0  0  0  0  0  0
  -21.5626   -3.4531   25.7723 F   0  0  0  0  0  0
  -29.9515  -13.6102   20.3476 N   0  0  0  0  0  0
  -26.2811  -12.9476   20.3410 N   0  0  0  0  0  0
  -25.9231  -11.6604   20.5891 N   0  0  0  0  0  0
  -22.0253  -12.8345   22.0379 N   0  0  0  0  0  0
  -25.4002  -15.1979   20.4048 N   0  0  0  0  0  0
  -31.7719  -14.9239   20.1847 O   0  0  0  0  0  0
  -21.6640   -6.8850   21.4246 O   0  0  0  0  0  0
  -22.3426  -14.5544   20.6623 O   0  0  0  0  0  0
  -24.6453  -31.8434   23.2015 C   0  0  0  0  0  0
  -25.9223  -32.4711   23.8370 C   0  0  1  0  0  0
  -27.2143  -27.1803   20.1057 C   0  0  0  0  0  0
  -25.6012  -33.8532   24.2280 N   0  0  0  0  0  0
  -23.4507  -30.4659   21.5441 C   0  0  2  0  0  0
  -24.8954  -28.9169   20.1107 C   0  0  0  0  0  0
  -22.7653  -29.4419   22.4824 C   0  0  0  0  0  0
  -18.0367  -28.1263   22.8452 C   0  0  0  0  0  0
  -24.1483  -36.7297   23.2636 C   0  0  0  0  0  0
  -26.0056  -30.7285   21.3956 C   0  0  0  0  0  0
  -26.0769  -29.3472   20.7293 C   0  0  0  0  0  0
  -27.2422  -28.4955   20.7134 C   0  0  0  0  0  0
  -26.0056  -26.8666   19.4339 C   0  0  0  0  0  0
  -24.8688  -27.6875   19.4500 C   0  0  0  0  0  0
  -23.6830  -29.8227   20.1555 C   0  0  0  0  0  0
  -25.4107  -36.3047   24.0320 C   0  0  1  0  0  0
  -20.6008  -28.3512   23.1108 C   0  0  2  0  0  0
  -20.6869  -26.9184   22.5277 C   0  0  0  0  0  0
  -19.5663  -26.5858   21.5397 C   0  0  0  0  0  0
  -18.1934  -26.7686   22.1819 C   0  0  0  0  0  0
  -19.1656  -28.8704   23.2765 C   0  0  0  0  0  0
  -18.9589  -30.1244   23.8889 C   0  0  0  0  0  0
  -17.6593  -30.6329   24.0648 C   0  0  0  0  0  0
  -25.9045  -34.9420   23.5079 C   0  0  0  0  0  0
  -16.5439  -29.8894   23.6393 C   0  0  0  0  0  0
  -16.7371  -28.6358   23.0350 C   0  0  0  0  0  0
  -26.4547  -31.6601   25.0814 C   0  0  0  0  0  0
  -25.3766  -31.3802   26.1527 C   0  0  0  0  0  0
  -27.0434  -30.3034   24.6365 C   0  0  0  0  0  0
  -27.6062  -32.4356   25.7649 C   0  0  0  0  0  0
  -27.5562  -37.1824   24.8476 C   0  0  0  0  0  0
  -21.4380  -29.2824   22.3461 N   0  0  0  0  0  0
  -26.4274  -37.3759   23.9400 N   0  0  0  0  0  0
  -24.7198  -31.0337   22.1038 N   0  0  0  0  0  0
  -23.4275  -28.7987   23.2997 O   0  0  0  0  0  0
  -28.2434  -26.1733   20.1662 O   0  0  0  0  0  0
  -26.5558  -34.8887   22.4615 O   0  0  0  0  0  0
  -23.5571  -32.1270   23.7242 O   0  0  0  0  0  0
  -28.1307  -20.9218   21.0250 C   0  0  0  0  0  0
  -29.7810  -21.2344   19.3564 C   0  0  0  0  0  0
  -27.8664  -22.3404   21.0182 C   0  0  0  0  0  0
  -29.5025  -22.6609   19.3376 C   0  0  0  0  0  0
  -29.0758  -20.2836   20.1673 C   0  0  0  0  0  0
  -28.5035  -23.2875   20.1560 C   0  0  0  0  0  0
  -31.4896  -17.9730   20.6333 C   0  0  0  0  0  0
  -29.1006  -18.6676   19.9423 C   0  0  0  0  0  0
  -27.8007  -24.7305   19.8809 C   0  0  0  0  0  0
  -30.0162  -17.5566   20.7399 C   0  0  1  0  0  0
  -29.7680  -16.0123   20.5482 N   0  0  0  0  0  0
  -31.4412  -12.7082   19.0944 H   0  0  0  0  0  0
  -30.4364  -11.5718   19.9464 H   0  0  0  0  0  0
  -29.7252  -11.6474   17.5708 H   0  0  0  0  0  0
  -29.5918  -13.3854   17.6064 H   0  0  0  0  0  0
  -27.8209  -11.3027   18.8901 H   0  0  0  0  0  0
  -27.3338  -12.5677   17.7985 H   0  0  0  0  0  0
  -27.5998  -14.2624   19.4604 H   0  0  0  0  0  0
  -28.7619  -12.1996   21.3850 H   0  0  0  0  0  0
  -28.4209  -13.8656   21.7828 H   0  0  0  0  0  0
  -25.2636   -9.5810   22.4784 H   0  0  0  0  0  0
  -23.9975   -7.4701   22.7518 H   0  0  0  0  0  0
  -21.0794   -8.8702   19.8952 H   0  0  0  0  0  0
  -22.3527  -10.9672   19.6217 H   0  0  0  0  0  0
  -21.2006   -7.6139   23.9719 H   0  0  0  0  0  0
  -21.1474   -6.0501   25.9071 H   0  0  0  0  0  0
  -22.0587   -2.7605   23.2835 H   0  0  0  0  0  0
  -22.3782  -12.0124   22.5038 H   0  0  0  0  0  0
  -21.0857  -13.1477   22.2379 H   0  0  0  0  0  0
  -24.6137  -15.8354   20.4759 H   0  0  0  0  0  0
  -26.2111  -15.6266   19.9812 H   0  0  0  0  0  0
  -26.7286  -32.5304   23.1086 H   0  0  0  0  0  0
  -25.0394  -33.9656   25.0585 H   0  0  0  0  0  0
  -22.7503  -31.2907   21.4029 H   0  0  0  0  0  0
  -23.3713  -35.9660   23.3281 H   0  0  0  0  0  0
  -24.3594  -36.8936   22.2060 H   0  0  0  0  0  0
  -23.7245  -37.6506   23.6675 H   0  0  0  0  0  0
  -26.1560  -31.4789   20.6204 H   0  0  0  0  0  0
  -26.8874  -30.7808   22.0260 H   0  0  0  0  0  0
  -28.1489  -28.8210   21.2057 H   0  0  0  0  0  0
  -25.8759  -25.9489   18.8838 H   0  0  0  0  0  0
  -23.9761  -27.3621   18.9353 H   0  0  0  0  0  0
  -23.8620  -30.6108   19.4211 H   0  0  0  0  0  0
  -22.8004  -29.2824   19.8118 H   0  0  0  0  0  0
  -25.1269  -36.1896   25.0814 H   0  0  0  0  0  0
  -21.0153  -28.3022   24.1222 H   0  0  0  0  0  0
  -20.6153  -26.2072   23.3527 H   0  0  0  0  0  0
  -21.6540  -26.7243   22.0587 H   0  0  0  0  0  0
  -19.6647  -27.2165   20.6550 H   0  0  0  0  0  0
  -19.6626  -25.5504   21.2010 H   0  0  0  0  0  0
  -17.4166  -26.6164   21.4292 H   0  0  0  0  0  0
  -18.0406  -26.0095   22.9512 H   0  0  0  0  0  0
  -19.8150  -30.6912   24.2330 H   0  0  0  0  0  0
  -17.5189  -31.5945   24.5399 H   0  0  0  0  0  0
  -15.5430  -30.2735   23.7751 H   0  0  0  0  0  0
  -15.8771  -28.0633   22.7074 H   0  0  0  0  0  0
  -24.5913  -30.7154   25.7896 H   0  0  0  0  0  0
  -24.8983  -32.3002   26.4930 H   0  0  0  0  0  0
  -25.8068  -30.9022   27.0337 H   0  0  0  0  0  0
  -26.3066  -29.6750   24.1354 H   0  0  0  0  0  0
  -27.4082  -29.7321   25.4906 H   0  0  0  0  0  0
  -27.8949  -30.4332   23.9683 H   0  0  0  0  0  0
  -27.2653  -33.3652   26.2226 H   0  0  0  0  0  0
  -28.3966  -32.6913   25.0582 H   0  0  0  0  0  0
  -28.0652  -31.8487   26.5618 H   0  0  0  0  0  0
  -28.2568  -38.0126   24.7453 H   0  0  0  0  0  0
  -28.1053  -36.2634   24.6364 H   0  0  0  0  0  0
  -27.2291  -37.1573   25.8890 H   0  0  0  0  0  0
  -20.9709  -29.8388   21.6432 H   0  0  0  0  0  0
  -26.0126  -38.2818   24.1421 H   0  0  0  0  0  0
  -27.5123  -20.3013   21.6556 H   0  0  0  0  0  0
  -30.5025  -20.8642   18.6408 H   0  0  0  0  0  0
  -27.0501  -22.6838   21.6389 H   0  0  0  0  0  0
  -30.0083  -23.2565   18.5898 H   0  0  0  0  0  0
  -32.1229  -17.4608   21.3563 H   0  0  0  0  0  0
  -31.5996  -19.0426   20.8168 H   0  0  0  0  0  0
  -31.8789  -17.7789   19.6339 H   0  0  0  0  0  0
  -29.3090  -18.5365   18.8806 H   0  0  0  0  0  0
  -28.0615  -18.3445   20.0320 H   0  0  0  0  0  0
  -26.8565  -24.6180   20.4169 H   0  0  0  0  0  0
  -27.5459  -24.6863   18.8212 H   0  0  0  0  0  0
  -29.7587  -17.7156   21.7879 H   0  0  0  0  0  0
  -28.7886  -15.7789   20.5901 H   0  0  0  0  0  0
  1 25  1  0  0  0
  1 30  2  0  0  0
  1 81  1  0  0  0
  2  3  1  0  0  0
  2 25  1  0  0  0
  2 82  1  0  0  0
  2 83  1  0  0  0
  3  4  1  0  0  0
  3 84  1  0  0  0
  3 85  1  0  0  0
  4  5  1  0  0  0
  4 86  1  0  0  0
  4 87  1  0  0  0
  5  6  1  0  0  0
  5 26  1  0  0  0
  5 88  1  0  0  0
  6 25  1  0  0  0
  6 89  1  0  0  0
  6 90  1  0  0  0
  7  8  2  0  0  0
  7 26  1  0  0  0
  7 29  1  0  0  0
  8  9  1  0  0  0
  8 22  1  0  0  0
  9 10  1  0  0  0
  9 27  2  0  0  0
 10 11  2  0  0  0
 10 15  1  0  0  0
 11 12  1  0  0  0
 11 91  1  0  0  0
 12 13  2  0  0  0
 12 92  1  0  0  0
 13 14  1  0  0  0
 13 31  1  0  0  0
 14 15  2  0  0  0
 14 93  1  0  0  0
 15 94  1  0  0  0
 16 17  2  0  0  0
 16 21  1  0  0  0
 16 31  1  0  0  0
 17 18  1  0  0  0
 17 95  1  0  0  0
 18 19  2  0  0  0
 18 96  1  0  0  0
 19 20  1  0  0  0
 19 24  1  0  0  0
 20 21  2  0  0  0
 20 97  1  0  0  0
 21 23  1  0  0  0
 22 28  1  0  0  0
 22 32  2  0  0  0
 26 27  1  0  0  0
 28 98  1  0  0  0
 28 99  1  0  0  0
 29100  1  0  0  0
 29101  1  0  0  0
 33 34  1  0  0  0
 33 66  1  0  0  0
 33 70  2  0  0  0
 34 36  1  0  0  0
 34 59  1  0  0  0
 34102  1  0  0  0
 35 44  2  0  0  0
 35 45  1  0  0  0
 35 68  1  0  0  0
 36 56  1  0  0  0
 36103  1  0  0  0
 37 39  1  0  0  0
 37 47  1  0  0  0
 37 66  1  0  0  0
 37104  1  0  0  0
 38 43  2  0  0  0
 38 46  1  0  0  0
 38 47  1  0  0  0
 39 64  1  0  0  0
 39 67  2  0  0  0
 40 52  1  0  0  0
 40 53  2  0  0  0
 40 58  1  0  0  0
 41105  1  0  0  0
 41106  1  0  0  0
 41107  1  0  0  0
 41 48  1  0  0  0
 42 43  1  0  0  0
 42 66  1  0  0  0
 42108  1  0  0  0
 42109  1  0  0  0
 43 44  1  0  0  0
 44110  1  0  0  0
 45 46  2  0  0  0
 45111  1  0  0  0
 46112  1  0  0  0
 47113  1  0  0  0
 47114  1  0  0  0
 48 56  1  0  0  0
 48 65  1  0  0  0
 48115  1  0  0  0
 49 50  1  0  0  0
 49 53  1  0  0  0
 49 64  1  0  0  0
 49116  1  0  0  0
 50 51  1  0  0  0
 50117  1  0  0  0
 50118  1  0  0  0
 51 52  1  0  0  0
 51119  1  0  0  0
 51120  1  0  0  0
 52121  1  0  0  0
 52122  1  0  0  0
 53 54  1  0  0  0
 54 55  2  0  0  0
 54123  1  0  0  0
 55 57  1  0  0  0
 55124  1  0  0  0
 56 69  2  0  0  0
 57 58  2  0  0  0
 57125  1  0  0  0
 58126  1  0  0  0
 59 60  1  0  0  0
 59 61  1  0  0  0
 59 62  1  0  0  0
 60127  1  0  0  0
 60128  1  0  0  0
 60129  1  0  0  0
 61130  1  0  0  0
 61131  1  0  0  0
 61132  1  0  0  0
 62133  1  0  0  0
 62134  1  0  0  0
 62135  1  0  0  0
 63 65  1  0  0  0
 63136  1  0  0  0
 63137  1  0  0  0
 63138  1  0  0  0
 64139  1  0  0  0
 65140  1  0  0  0
 68 79  1  0  0  0
 71 73  2  0  0  0
 71 75  1  0  0  0
 71141  1  0  0  0
 72 74  1  0  0  0
 72 75  2  0  0  0
 72142  1  0  0  0
 73 76  1  0  0  0
 73143  1  0  0  0
 74 76  2  0  0  0
 74144  1  0  0  0
 75 78  1  0  0  0
 76 79  1  0  0  0
 77145  1  0  0  0
 77146  1  0  0  0
 77147  1  0  0  0
 77 80  1  0  0  0
 78 80  1  0  0  0
 78148  1  0  0  0
 78149  1  0  0  0
 79150  1  0  0  0
 79151  1  0  0  0
 80 81  1  0  0  0
 80152  1  0  0  0
 81153  1  0  0  0
M  ISO  4   1 100  68 101  79 101  81 100
M  END
> <chiral flag>
0

> <version>
0

> <s_m_source_file>
/data/baiqing/PycharmProjects/Reinvent-master-3.2/result/LINK_invent/BTK/process_docking_weight1_custom_sum_contain_oxygen_bond_distance_aromatic_linkinvent_7_9_3/rearranged_h_0082.sdf

> <i_m_source_file_index>
8

> <r_mmod_Potential_Energy-OPLS-2005>
419.279632568359

> <r_mmod_Stretch_Energy-OPLS-2005>
183.512985229492

> <r_mmod_Bend_Energy-OPLS-2005>
243.312713623047

> <r_mmod_Torsional_Energy-OPLS-2005>
233.722595214844

> <r_mmod_Improper_Torsional_Energy-OPLS-2005>
11.152153968811

> <r_mmod_Van_der_Waal_Energy-OPLS-2005>
142.273590087891

> <r_mmod_Electrostatic_Energy-OPLS-2005>
-336.91796875

> <r_mmod_Solvation_Energy-OPLS-2005>
-209.227600097656

> <b_mmod_Minimization_Converged-OPLS-2005>
0

> <r_mmod_RMS_Derivative-OPLS-2005>
7.41691446304321

$$$$
8
                    3D
 Structure written by MMmdl.
169177  0  0  1  0            999 V2000
  -30.6716  -14.5338   20.5399 C   0  0  0  0  0  0
  -30.4256  -12.3370   19.4288 C   0  0  0  0  0  0
  -29.4956  -12.5085   18.2090 C   0  0  0  0  0  0
  -28.0170  -12.3651   18.6223 C   0  0  0  0  0  0
  -27.6577  -13.2116   19.8731 C   0  0  2  0  0  0
  -28.7039  -13.0168   20.9926 C   0  0  0  0  0  0
  -25.2563  -13.8157   20.5695 C   0  0  0  0  0  0
  -24.1827  -13.0429   20.9185 C   0  0  0  0  0  0
  -24.6391  -11.6897   20.8737 C   0  0  0  0  0  0
  -23.9058  -10.4282   21.0400 C   0  0  0  0  0  0
  -24.3610   -9.4199   21.9182 C   0  0  0  0  0  0
  -23.6290   -8.2231   22.0757 C   0  0  0  0  0  0
  -22.4270   -8.0269   21.3548 C   0  0  0  0  0  0
  -21.9900   -9.0240   20.4651 C   0  0  0  0  0  0
  -22.7225  -10.2119   20.3058 C   0  0  0  0  0  0
  -21.6850   -6.0722   22.5274 C   0  0  0  0  0  0
  -21.4013   -6.5634   23.8205 C   0  0  0  0  0  0
  -21.3669   -5.6790   24.9172 C   0  0  0  0  0  0
  -21.6050   -4.3052   24.7227 C   0  0  0  0  0  0
  -21.8824   -3.8141   23.4352 C   0  0  0  0  0  0
  -21.9191   -4.6951   22.3400 C   0  0  0  0  0  0
  -22.7849  -13.5217   21.1848 C   0  0  0  0  0  0
  -22.1661   -4.2134   21.0980 F   0  0  0  0  0  0
  -21.5633   -3.4542   25.7742 F   0  0  0  0  0  0
  -30.0247  -13.3381   20.4304 N   0  0  0  0  0  0
  -26.3007  -12.9343   20.3376 N   0  0  0  0  0  0
  -25.9325  -11.6498   20.5776 N   0  0  0  0  0  0
  -22.0513  -12.8206   22.0414 N   0  0  0  0  0  0
  -25.4283  -15.1877   20.4090 N   0  0  0  0  0  0
  -31.8211  -14.7060   20.1269 O   0  0  0  0  0  0
  -21.6638   -6.8865   21.4238 O   0  0  0  0  0  0
  -22.3535  -14.5533   20.6711 O   0  0  0  0  0  0
  -24.6184  -31.8663   23.2086 C   0  0  0  0  0  0
  -25.9069  -32.4806   23.8390 C   0  0  1  0  0  0
  -27.2259  -27.3925   20.1062 C   0  0  0  0  0  0
  -25.5916  -33.8607   24.2318 N   0  0  0  0  0  0
  -23.4075  -30.4907   21.5499 C   0  0  2  0  0  0
  -24.8535  -28.9543   20.1132 C   0  0  0  0  0  0
  -22.7422  -29.4658   22.4972 C   0  0  0  0  0  0
  -18.0276  -28.1370   22.8490 C   0  0  0  0  0  0
  -24.1489  -36.7305   23.2641 C   0  0  0  0  0  0
  -25.9426  -30.8167   21.3719 C   0  0  0  0  0  0
  -26.0175  -29.4504   20.7148 C   0  0  0  0  0  0
  -27.2084  -28.6794   20.7048 C   0  0  0  0  0  0
  -26.0465  -26.9340   19.4772 C   0  0  0  0  0  0
  -24.8661  -27.6976   19.4878 C   0  0  0  0  0  0
  -23.6178  -29.8265   20.1641 C   0  0  0  0  0  0
  -25.4111  -36.3098   24.0336 C   0  0  1  0  0  0
  -20.5867  -28.3667   23.1300 C   0  0  2  0  0  0
  -20.6769  -26.9399   22.5410 C   0  0  0  0  0  0
  -19.5746  -26.6379   21.5210 C   0  0  0  0  0  0
  -18.1923  -26.7918   22.1620 C   0  0  0  0  0  0
  -19.1523  -28.8835   23.2895 C   0  0  0  0  0  0
  -18.9454  -30.1438   23.8907 C   0  0  0  0  0  0
  -17.6458  -30.6578   24.0561 C   0  0  0  0  0  0
  -25.9045  -34.9463   23.5121 C   0  0  0  0  0  0
  -16.5349  -29.9075   23.6328 C   0  0  0  0  0  0
  -16.7266  -28.6489   23.0354 C   0  0  0  0  0  0
  -26.4485  -31.6593   25.0731 C   0  0  0  0  0  0
  -25.3746  -31.3707   26.1475 C   0  0  0  0  0  0
  -27.0332  -30.3026   24.6153 C   0  0  0  0  0  0
  -27.6046  -32.4327   25.7500 C   0  0  0  0  0  0
  -27.5582  -37.1809   24.8462 C   0  0  0  0  0  0
  -21.4147  -29.3034   22.3703 N   0  0  0  0  0  0
  -26.4295  -37.3783   23.9406 N   0  0  0  0  0  0
  -24.6741  -31.0732   22.1005 N   0  0  0  0  0  0
  -23.4183  -28.8206   23.3026 O   0  0  0  0  0  0
  -28.3677  -26.6030   20.1154 O   0  0  0  0  0  0
  -26.5600  -34.8919   22.4679 O   0  0  0  0  0  0
  -23.5370  -32.1431   23.7464 O   0  0  0  0  0  0
  -27.6769  -22.1863   18.7547 C   0  0  0  0  0  0
  -27.2832  -21.0541   18.0918 C   0  0  0  0  0  0
  -28.7414  -20.4674   19.6966 C   0  0  0  0  0  0
  -27.2429  -20.6188   15.6640 C   0  0  0  0  0  0
  -25.5046  -22.1040   16.6908 C   0  0  0  0  0  0
  -25.4558  -19.6370   17.1561 C   0  0  0  0  0  0
  -29.6026  -19.5322   20.5441 C   0  0  0  0  0  0
  -29.3872  -17.9914   20.2902 C   0  0  0  0  0  0
  -29.3640  -24.2681   20.1760 C   0  0  0  0  0  0
  -29.2548  -22.7697   20.6547 C   0  0  0  0  0  0
  -30.2963  -17.0055   21.0970 C   0  0  0  0  0  0
  -28.1904  -25.2244   20.5488 C   0  0  0  0  0  0
  -26.3728  -20.8505   16.9106 C   0  0  0  0  0  0
  -28.5860  -21.8224   19.7195 N   0  0  0  0  0  0
  -27.9670  -20.0322   18.6945 N   0  3  0  0  0  0
  -29.9162  -15.5733   20.9694 N   0  0  0  0  0  0
  -31.4700  -12.4416   19.1300 H   0  0  0  0  0  0
  -30.3355  -11.3323   19.8443 H   0  0  0  0  0  0
  -29.7421  -11.7749   17.4401 H   0  0  0  0  0  0
  -29.6553  -13.4899   17.7598 H   0  0  0  0  0  0
  -27.8331  -11.3094   18.8239 H   0  0  0  0  0  0
  -27.3653  -12.6350   17.7907 H   0  0  0  0  0  0
  -27.6923  -14.2558   19.5607 H   0  0  0  0  0  0
  -28.6950  -11.9844   21.3449 H   0  0  0  0  0  0
  -28.4682  -13.6251   21.8670 H   0  0  0  0  0  0
  -25.2756   -9.5671   22.4759 H   0  0  0  0  0  0
  -24.0003   -7.4614   22.7472 H   0  0  0  0  0  0
  -21.0835   -8.8744   19.8950 H   0  0  0  0  0  0
  -22.3676  -10.9652   19.6167 H   0  0  0  0  0  0
  -21.2010   -7.6140   23.9699 H   0  0  0  0  0  0
  -21.1489   -6.0526   25.9070 H   0  0  0  0  0  0
  -22.0600   -2.7601   23.2853 H   0  0  0  0  0  0
  -22.4137  -11.9856   22.4773 H   0  0  0  0  0  0
  -21.1125  -13.1219   22.2634 H   0  0  0  0  0  0
  -24.6650  -15.8463   20.5194 H   0  0  0  0  0  0
  -26.2808  -15.6197   20.0787 H   0  0  0  0  0  0
  -26.7138  -32.5493   23.1148 H   0  0  0  0  0  0
  -25.0082  -33.9772   25.0475 H   0  0  0  0  0  0
  -22.6977  -31.3087   21.4112 H   0  0  0  0  0  0
  -23.3749  -35.9639   23.3305 H   0  0  0  0  0  0
  -24.3591  -36.8922   22.2056 H   0  0  0  0  0  0
  -23.7246  -37.6510   23.6658 H   0  0  0  0  0  0
  -26.0718  -31.5852   20.6088 H   0  0  0  0  0  0
  -26.8238  -30.8591   22.0005 H   0  0  0  0  0  0
  -28.1041  -29.0578   21.1772 H   0  0  0  0  0  0
  -26.0270  -25.9856   18.9617 H   0  0  0  0  0  0
  -23.9761  -27.3165   19.0062 H   0  0  0  0  0  0
  -23.7281  -30.6033   19.4062 H   0  0  0  0  0  0
  -22.7402  -29.2508   19.8659 H   0  0  0  0  0  0
  -25.1292  -36.1962   25.0828 H   0  0  0  0  0  0
  -20.9967  -28.3239   24.1418 H   0  0  0  0  0  0
  -20.5671  -26.2277   23.3600 H   0  0  0  0  0  0
  -21.6640  -26.7435   22.1206 H   0  0  0  0  0  0
  -19.6910  -25.6294   21.1231 H   0  0  0  0  0  0
  -19.6686  -27.3195   20.6741 H   0  0  0  0  0  0
  -17.4197  -26.6668   21.4019 H   0  0  0  0  0  0
  -18.0319  -26.0052   22.9004 H   0  0  0  0  0  0
  -19.7930  -30.7248   24.2285 H   0  0  0  0  0  0
  -17.5011  -31.6262   24.5152 H   0  0  0  0  0  0
  -15.5347  -30.2982   23.7644 H   0  0  0  0  0  0
  -15.8665  -28.0811   22.7072 H   0  0  0  0  0  0
  -24.5891  -30.7094   25.7800 H   0  0  0  0  0  0
  -24.8980  -32.2870   26.4963 H   0  0  0  0  0  0
  -25.8092  -30.8829   27.0209 H   0  0  0  0  0  0
  -26.2898  -29.6772   24.1195 H   0  0  0  0  0  0
  -27.4066  -29.7281   25.4642 H   0  0  0  0  0  0
  -27.8750  -30.4329   23.9346 H   0  0  0  0  0  0
  -27.2644  -33.3605   26.2112 H   0  0  0  0  0  0
  -28.3837  -32.6929   25.0323 H   0  0  0  0  0  0
  -28.0735  -31.8438   26.5393 H   0  0  0  0  0  0
  -28.2594  -38.0110   24.7512 H   0  0  0  0  0  0
  -28.1085  -36.2644   24.6283 H   0  0  0  0  0  0
  -27.2303  -37.1451   25.8865 H   0  0  0  0  0  0
  -20.9309  -29.8759   21.6927 H   0  0  0  0  0  0
  -26.0182  -38.2862   24.1394 H   0  0  0  0  0  0
  -27.3850  -23.2102   18.5796 H   0  0  0  0  0  0
  -27.8957  -21.4731   15.4795 H   0  0  0  0  0  0
  -26.6322  -20.4775   14.7720 H   0  0  0  0  0  0
  -27.8781  -19.7388   15.7669 H   0  0  0  0  0  0
  -26.1134  -22.9860   16.4910 H   0  0  0  0  0  0
  -24.8820  -22.3193   17.5598 H   0  0  0  0  0  0
  -24.8376  -21.9788   15.8374 H   0  0  0  0  0  0
  -26.0201  -18.7119   17.2733 H   0  0  0  0  0  0
  -24.7698  -19.4848   16.3228 H   0  0  0  0  0  0
  -24.8529  -19.7714   18.0546 H   0  0  0  0  0  0
  -29.3944  -19.7784   21.5854 H   0  0  0  0  0  0
  -30.6382  -19.8055   20.3443 H   0  0  0  0  0  0
  -29.5437  -17.7856   19.2302 H   0  0  0  0  0  0
  -28.3438  -17.7510   20.4970 H   0  0  0  0  0  0
  -29.5372  -24.2992   19.1006 H   0  0  0  0  0  0
  -30.2667  -24.6875   20.6217 H   0  0  0  0  0  0
  -28.7432  -22.7088   21.6156 H   0  0  0  0  0  0
  -30.2612  -22.3836   20.8175 H   0  0  0  0  0  0
  -30.2397  -17.2582   22.1561 H   0  0  0  0  0  0
  -31.3390  -17.1501   20.8092 H   0  0  0  0  0  0
  -28.0881  -25.2420   21.6337 H   0  0  0  0  0  0
  -27.2660  -24.7863   20.1813 H   0  0  0  0  0  0
  -27.8950  -19.0614   18.4193 H   0  0  0  0  0  0
  -28.9778  -15.3322   21.2502 H   0  0  0  0  0  0
  1 25  1  0  0  0
  1 30  2  0  0  0
  1 86  1  0  0  0
  2  3  1  0  0  0
  2 25  1  0  0  0
  2 87  1  0  0  0
  2 88  1  0  0  0
  3  4  1  0  0  0
  3 89  1  0  0  0
  3 90  1  0  0  0
  4  5  1  0  0  0
  4 91  1  0  0  0
  4 92  1  0  0  0
  5  6  1  0  0  0
  5 26  1  0  0  0
  5 93  1  0  0  0
  6 25  1  0  0  0
  6 94  1  0  0  0
  6 95  1  0  0  0
  7  8  2  0  0  0
  7 26  1  0  0  0
  7 29  1  0  0  0
  8  9  1  0  0  0
  8 22  1  0  0  0
  9 10  1  0  0  0
  9 27  2  0  0  0
 10 11  2  0  0  0
 10 15  1  0  0  0
 11 12  1  0  0  0
 11 96  1  0  0  0
 12 13  2  0  0  0
 12 97  1  0  0  0
 13 14  1  0  0  0
 13 31  1  0  0  0
 14 15  2  0  0  0
 14 98  1  0  0  0
 15 99  1  0  0  0
 16 17  2  0  0  0
 16 21  1  0  0  0
 16 31  1  0  0  0
 17 18  1  0  0  0
 17100  1  0  0  0
 18 19  2  0  0  0
 18101  1  0  0  0
 19 20  1  0  0  0
 19 24  1  0  0  0
 20 21  2  0  0  0
 20102  1  0  0  0
 21 23  1  0  0  0
 22 28  1  0  0  0
 22 32  2  0  0  0
 26 27  1  0  0  0
 28103  1  0  0  0
 28104  1  0  0  0
 29105  1  0  0  0
 29106  1  0  0  0
 33 34  1  0  0  0
 33 66  1  0  0  0
 33 70  2  0  0  0
 34 36  1  0  0  0
 34 59  1  0  0  0
 34107  1  0  0  0
 35 44  2  0  0  0
 35 45  1  0  0  0
 35 68  1  0  0  0
 36 56  1  0  0  0
 36108  1  0  0  0
 37 39  1  0  0  0
 37 47  1  0  0  0
 37 66  1  0  0  0
 37109  1  0  0  0
 38 43  2  0  0  0
 38 46  1  0  0  0
 38 47  1  0  0  0
 39 64  1  0  0  0
 39 67  2  0  0  0
 40 52  1  0  0  0
 40 53  2  0  0  0
 40 58  1  0  0  0
 41110  1  0  0  0
 41111  1  0  0  0
 41112  1  0  0  0
 41 48  1  0  0  0
 42 43  1  0  0  0
 42 66  1  0  0  0
 42113  1  0  0  0
 42114  1  0  0  0
 43 44  1  0  0  0
 44115  1  0  0  0
 45 46  2  0  0  0
 45116  1  0  0  0
 46117  1  0  0  0
 47118  1  0  0  0
 47119  1  0  0  0
 48 56  1  0  0  0
 48 65  1  0  0  0
 48120  1  0  0  0
 49 50  1  0  0  0
 49 53  1  0  0  0
 49 64  1  0  0  0
 49121  1  0  0  0
 50 51  1  0  0  0
 50122  1  0  0  0
 50123  1  0  0  0
 51 52  1  0  0  0
 51124  1  0  0  0
 51125  1  0  0  0
 52126  1  0  0  0
 52127  1  0  0  0
 53 54  1  0  0  0
 54 55  2  0  0  0
 54128  1  0  0  0
 55 57  1  0  0  0
 55129  1  0  0  0
 56 69  2  0  0  0
 57 58  2  0  0  0
 57130  1  0  0  0
 58131  1  0  0  0
 59 60  1  0  0  0
 59 61  1  0  0  0
 59 62  1  0  0  0
 60132  1  0  0  0
 60133  1  0  0  0
 60134  1  0  0  0
 61135  1  0  0  0
 61136  1  0  0  0
 61137  1  0  0  0
 62138  1  0  0  0
 62139  1  0  0  0
 62140  1  0  0  0
 63 65  1  0  0  0
 63141  1  0  0  0
 63142  1  0  0  0
 63143  1  0  0  0
 64144  1  0  0  0
 65145  1  0  0  0
 68 82  1  0  0  0
 71 72  2  0  0  0
 71 84  1  0  0  0
 71146  1  0  0  0
 72 83  1  0  0  0
 72 85  1  0  0  0
 73 77  1  0  0  0
 73 84  1  0  0  0
 73 85  2  0  0  0
 74147  1  0  0  0
 74148  1  0  0  0
 74149  1  0  0  0
 74 83  1  0  0  0
 75 83  1  0  0  0
 75150  1  0  0  0
 75151  1  0  0  0
 75152  1  0  0  0
 76 83  1  0  0  0
 76153  1  0  0  0
 76154  1  0  0  0
 76155  1  0  0  0
 77 78  1  0  0  0
 77156  1  0  0  0
 77157  1  0  0  0
 78 81  1  0  0  0
 78158  1  0  0  0
 78159  1  0  0  0
 79 80  1  0  0  0
 79 82  1  0  0  0
 79160  1  0  0  0
 79161  1  0  0  0
 80 84  1  0  0  0
 80162  1  0  0  0
 80163  1  0  0  0
 81 86  1  0  0  0
 81164  1  0  0  0
 81165  1  0  0  0
 82166  1  0  0  0
 82167  1  0  0  0
 85168  1  0  0  0
 86169  1  0  0  0
M  CHG  1  85   1
M  ISO  4   1 100  68 101  82 101  86 100
M  END
> <chiral flag>
0

> <version>
0

> <s_m_source_file>
/data/baiqing/PycharmProjects/Reinvent-master-3.2/result/LINK_invent/BTK/process_docking_weight1_custom_sum_contain_oxygen_bond_distance_aromatic_linkinvent_7_9_3/rearranged_h_0082.sdf

> <i_m_source_file_index>
9

> <r_mmod_Potential_Energy-OPLS-2005>
-131.889663696289

> <r_mmod_Stretch_Energy-OPLS-2005>
50.2937316894531

> <r_mmod_Bend_Energy-OPLS-2005>
109.890739440918

> <r_mmod_Torsional_Energy-OPLS-2005>
238.521392822266

> <r_mmod_Improper_Torsional_Energy-OPLS-2005>
3.86314225196838

> <r_mmod_Van_der_Waal_Energy-OPLS-2005>
125.443748474121

> <r_mmod_Electrostatic_Energy-OPLS-2005>
-267.264007568359

> <r_mmod_Solvation_Energy-OPLS-2005>
-414.426849365234

> <b_mmod_Minimization_Converged-OPLS-2005>
0

> <r_mmod_RMS_Derivative-OPLS-2005>
1.7083386182785

$$$$
9
                    3D
 Structure written by MMmdl.
178186  0  0  1  0            999 V2000
  -30.7050  -14.4248   20.6319 C   0  0  0  0  0  0
  -30.4303  -12.2999   19.4034 C   0  0  0  0  0  0
  -29.4932  -12.5270   18.1989 C   0  0  0  0  0  0
  -28.0140  -12.3842   18.6121 C   0  0  0  0  0  0
  -27.6687  -13.1999   19.8868 C   0  0  2  0  0  0
  -28.7097  -12.9271   20.9972 C   0  0  0  0  0  0
  -25.2555  -13.8097   20.5583 C   0  0  0  0  0  0
  -24.1826  -13.0393   20.9146 C   0  0  0  0  0  0
  -24.6395  -11.6871   20.8742 C   0  0  0  0  0  0
  -23.9058  -10.4268   21.0411 C   0  0  0  0  0  0
  -24.3610   -9.4186   21.9190 C   0  0  0  0  0  0
  -23.6281   -8.2227   22.0760 C   0  0  0  0  0  0
  -22.4264   -8.0270   21.3546 C   0  0  0  0  0  0
  -21.9899   -9.0242   20.4649 C   0  0  0  0  0  0
  -22.7231  -10.2118   20.3057 C   0  0  0  0  0  0
  -21.6848   -6.0729   22.5278 C   0  0  0  0  0  0
  -21.4009   -6.5635   23.8210 C   0  0  0  0  0  0
  -21.3658   -5.6789   24.9173 C   0  0  0  0  0  0
  -21.6045   -4.3053   24.7226 C   0  0  0  0  0  0
  -21.8819   -3.8141   23.4346 C   0  0  0  0  0  0
  -21.9191   -4.6956   22.3402 C   0  0  0  0  0  0
  -22.7854  -13.5207   21.1818 C   0  0  0  0  0  0
  -22.1660   -4.2143   21.0980 F   0  0  0  0  0  0
  -21.5630   -3.4537   25.7739 F   0  0  0  0  0  0
  -30.0475  -13.2473   20.4604 N   0  0  0  0  0  0
  -26.3051  -12.9291   20.3409 N   0  0  0  0  0  0
  -25.9334  -11.6457   20.5807 N   0  0  0  0  0  0
  -22.0499  -12.8218   22.0396 N   0  0  0  0  0  0
  -25.4137  -15.1783   20.3801 N   0  0  0  0  0  0
  -31.7778  -14.6962   20.0832 O   0  0  0  0  0  0
  -21.6630   -6.8867   21.4238 O   0  0  0  0  0  0
  -22.3535  -14.5519   20.6678 O   0  0  0  0  0  0
  -24.6097  -31.8713   23.2131 C   0  0  0  0  0  0
  -25.9008  -32.4846   23.8407 C   0  0  1  0  0  0
  -27.2469  -27.4703   20.0920 C   0  0  0  0  0  0
  -25.5892  -33.8645   24.2341 N   0  0  0  0  0  0
  -23.3982  -30.4945   21.5520 C   0  0  2  0  0  0
  -24.8493  -28.9607   20.1231 C   0  0  0  0  0  0
  -22.7391  -29.4677   22.5000 C   0  0  0  0  0  0
  -18.0280  -28.1360   22.8477 C   0  0  0  0  0  0
  -24.1498  -36.7314   23.2642 C   0  0  0  0  0  0
  -25.9242  -30.8433   21.3674 C   0  0  0  0  0  0
  -26.0053  -29.4766   20.7247 C   0  0  0  0  0  0
  -27.2081  -28.7367   20.7171 C   0  0  0  0  0  0
  -26.0789  -26.9648   19.4879 C   0  0  0  0  0  0
  -24.8775  -27.6974   19.5075 C   0  0  0  0  0  0
  -23.6088  -29.8239   20.1686 C   0  0  0  0  0  0
  -25.4112  -36.3118   24.0344 C   0  0  1  0  0  0
  -20.5863  -28.3639   23.1322 C   0  0  2  0  0  0
  -20.6780  -26.9384   22.5411 C   0  0  0  0  0  0
  -19.5762  -26.6369   21.5206 C   0  0  0  0  0  0
  -18.1933  -26.7900   22.1613 C   0  0  0  0  0  0
  -19.1526  -28.8815   23.2896 C   0  0  0  0  0  0
  -18.9464  -30.1425   23.8896 C   0  0  0  0  0  0
  -17.6472  -30.6568   24.0564 C   0  0  0  0  0  0
  -25.9032  -34.9484   23.5134 C   0  0  0  0  0  0
  -16.5356  -29.9069   23.6331 C   0  0  0  0  0  0
  -16.7274  -28.6497   23.0327 C   0  0  0  0  0  0
  -26.4448  -31.6613   25.0718 C   0  0  0  0  0  0
  -25.3733  -31.3733   26.1489 C   0  0  0  0  0  0
  -27.0275  -30.3062   24.6060 C   0  0  0  0  0  0
  -27.6021  -32.4328   25.7483 C   0  0  0  0  0  0
  -27.5584  -37.1815   24.8464 C   0  0  0  0  0  0
  -21.4126  -29.3020   22.3738 N   0  0  0  0  0  0
  -26.4299  -37.3799   23.9411 N   0  0  0  0  0  0
  -24.6619  -31.0838   22.1026 N   0  0  0  0  0  0
  -23.4185  -28.8232   23.3038 O   0  0  0  0  0  0
  -28.3837  -26.7096   19.9666 O   0  0  0  0  0  0
  -26.5585  -34.8932   22.4690 O   0  0  0  0  0  0
  -23.5298  -32.1443   23.7537 O   0  0  0  0  0  0
  -30.6977  -21.5279   23.9223 C   0  0  0  0  0  0
  -30.7145  -22.8918   23.9308 C   0  0  0  0  0  0
  -30.7610  -23.3205   22.5702 C   0  0  0  0  0  0
  -30.7971  -22.1929   21.7833 C   0  0  0  0  0  0
  -30.6750  -23.7630   25.1591 C   0  0  0  0  0  0
  -30.9029  -22.0932   20.2889 C   0  0  0  0  0  0
  -28.6544  -19.5120   20.6550 C   0  0  0  0  0  0
  -28.1712  -19.7687   23.0644 C   0  0  0  0  0  0
  -27.7405  -16.9238   21.7662 C   0  0  0  0  0  0
  -29.2756  -17.0717   23.7071 C   0  0  0  0  0  0
  -30.7614  -24.7633   22.0996 C   0  0  0  0  0  0
  -29.4867  -25.1229   21.3188 C   0  0  0  0  0  0
  -30.6019  -19.6536   22.2603 C   0  0  0  0  0  0
  -30.2349  -16.7775   21.4008 C   0  0  0  0  0  0
  -29.2976  -26.6255   21.0525 C   0  0  0  0  0  0
  -29.1474  -19.0846   22.0628 C   0  0  0  0  0  0
  -29.1104  -17.4957   22.2235 C   0  0  0  0  0  0
  -30.6917  -21.0787   22.6161 N   0  0  0  0  0  0
  -30.0361  -15.3253   21.3634 N   0  0  0  0  0  0
  -31.4733  -12.4148   19.1013 H   0  0  0  0  0  0
  -30.3393  -11.2766   19.7701 H   0  0  0  0  0  0
  -29.7278  -11.8221   17.4005 H   0  0  0  0  0  0
  -29.6615  -13.5227   17.7856 H   0  0  0  0  0  0
  -27.8174  -11.3254   18.7850 H   0  0  0  0  0  0
  -27.3636  -12.6823   17.7886 H   0  0  0  0  0  0
  -27.7277  -14.2562   19.6226 H   0  0  0  0  0  0
  -28.6830  -11.8754   21.2857 H   0  0  0  0  0  0
  -28.4639  -13.4727   21.9088 H   0  0  0  0  0  0
  -25.2756   -9.5663   22.4761 H   0  0  0  0  0  0
  -23.9988   -7.4620   22.7482 H   0  0  0  0  0  0
  -21.0830   -8.8757   19.8959 H   0  0  0  0  0  0
  -22.3689  -10.9656   19.6164 H   0  0  0  0  0  0
  -21.2000   -7.6143   23.9710 H   0  0  0  0  0  0
  -21.1482   -6.0522   25.9077 H   0  0  0  0  0  0
  -22.0602   -2.7604   23.2848 H   0  0  0  0  0  0
  -22.4110  -11.9872   22.4776 H   0  0  0  0  0  0
  -21.1130  -13.1262   22.2617 H   0  0  0  0  0  0
  -24.6438  -15.8287   20.4888 H   0  0  0  0  0  0
  -26.2701  -15.6238   20.0787 H   0  0  0  0  0  0
  -26.7082  -32.5568   23.1177 H   0  0  0  0  0  0
  -25.0080  -33.9812   25.0512 H   0  0  0  0  0  0
  -22.6844  -31.3088   21.4116 H   0  0  0  0  0  0
  -23.3760  -35.9650   23.3312 H   0  0  0  0  0  0
  -24.3601  -36.8905   22.2058 H   0  0  0  0  0  0
  -23.7252  -37.6528   23.6635 H   0  0  0  0  0  0
  -26.0340  -31.6070   20.5960 H   0  0  0  0  0  0
  -26.8136  -30.8977   21.9841 H   0  0  0  0  0  0
  -28.1014  -29.1520   21.1616 H   0  0  0  0  0  0
  -26.1058  -26.0024   18.9962 H   0  0  0  0  0  0
  -23.9917  -27.2915   19.0397 H   0  0  0  0  0  0
  -23.7160  -30.5975   19.4073 H   0  0  0  0  0  0
  -22.7335  -29.2424   19.8729 H   0  0  0  0  0  0
  -25.1291  -36.1991   25.0836 H   0  0  0  0  0  0
  -20.9953  -28.3203   24.1443 H   0  0  0  0  0  0
  -20.5700  -26.2246   23.3584 H   0  0  0  0  0  0
  -21.6647  -26.7439   22.1199 H   0  0  0  0  0  0
  -19.6936  -25.6292   21.1210 H   0  0  0  0  0  0
  -19.6706  -27.3206   20.6756 H   0  0  0  0  0  0
  -17.4212  -26.6648   21.4006 H   0  0  0  0  0  0
  -18.0336  -26.0024   22.8992 H   0  0  0  0  0  0
  -19.7954  -30.7237   24.2240 H   0  0  0  0  0  0
  -17.5044  -31.6246   24.5159 H   0  0  0  0  0  0
  -15.5366  -30.2983   23.7651 H   0  0  0  0  0  0
  -15.8669  -28.0843   22.7002 H   0  0  0  0  0  0
  -24.5859  -30.7123   25.7844 H   0  0  0  0  0  0
  -24.8981  -32.2908   26.4974 H   0  0  0  0  0  0
  -25.8094  -30.8875   27.0224 H   0  0  0  0  0  0
  -26.2814  -29.6850   24.1088 H   0  0  0  0  0  0
  -27.4047  -29.7264   25.4492 H   0  0  0  0  0  0
  -27.8644  -30.4403   23.9201 H   0  0  0  0  0  0
  -27.2624  -33.3602   26.2107 H   0  0  0  0  0  0
  -28.3813  -32.6933   25.0305 H   0  0  0  0  0  0
  -28.0704  -31.8425   26.5367 H   0  0  0  0  0  0
  -28.2603  -38.0113   24.7505 H   0  0  0  0  0  0
  -28.1077  -36.2641   24.6290 H   0  0  0  0  0  0
  -27.2302  -37.1468   25.8868 H   0  0  0  0  0  0
  -20.9270  -29.8739   21.6961 H   0  0  0  0  0  0
  -26.0192  -38.2880   24.1406 H   0  0  0  0  0  0
  -30.6531  -20.8226   24.7423 H   0  0  0  0  0  0
  -30.4129  -23.1756   26.0391 H   0  0  0  0  0  0
  -29.9320  -24.5530   25.0483 H   0  0  0  0  0  0
  -31.6490  -24.2220   25.3312 H   0  0  0  0  0  0
  -31.6164  -22.8232   19.9055 H   0  0  0  0  0  0
  -29.9445  -22.2992   19.8137 H   0  0  0  0  0  0
  -31.2405  -21.1152   19.9508 H   0  0  0  0  0  0
  -28.6467  -20.5955   20.5565 H   0  0  0  0  0  0
  -27.6288  -19.2034   20.4562 H   0  0  0  0  0  0
  -29.2804  -19.1196   19.8542 H   0  0  0  0  0  0
  -28.0936  -20.8410   22.8805 H   0  0  0  0  0  0
  -28.5001  -19.6578   24.0971 H   0  0  0  0  0  0
  -27.1526  -19.3921   23.0025 H   0  0  0  0  0  0
  -27.6135  -15.8792   22.0493 H   0  0  0  0  0  0
  -27.6270  -16.9716   20.6837 H   0  0  0  0  0  0
  -26.8903  -17.4395   22.2080 H   0  0  0  0  0  0
  -29.2954  -15.9878   23.8207 H   0  0  0  0  0  0
  -28.4490  -17.4163   24.3285 H   0  0  0  0  0  0
  -30.1972  -17.4439   24.1514 H   0  0  0  0  0  0
  -31.6411  -24.9394   21.4802 H   0  0  0  0  0  0
  -30.8595  -25.4252   22.9597 H   0  0  0  0  0  0
  -28.6109  -24.7575   21.8547 H   0  0  0  0  0  0
  -29.5021  -24.5892   20.3686 H   0  0  0  0  0  0
  -31.2223  -19.4586   21.3870 H   0  0  0  0  0  0
  -31.0986  -19.1136   23.0642 H   0  0  0  0  0  0
  -31.2219  -16.9868   21.8153 H   0  0  0  0  0  0
  -30.2476  -17.1377   20.3714 H   0  0  0  0  0  0
  -30.2362  -27.0894   20.7472 H   0  0  0  0  0  0
  -28.9555  -27.1283   21.9589 H   0  0  0  0  0  0
  -29.1832  -14.9918   21.7844 H   0  0  0  0  0  0
  1 25  1  0  0  0
  1 30  2  0  0  0
  1 89  1  0  0  0
  2  3  1  0  0  0
  2 25  1  0  0  0
  2 90  1  0  0  0
  2 91  1  0  0  0
  3  4  1  0  0  0
  3 92  1  0  0  0
  3 93  1  0  0  0
  4  5  1  0  0  0
  4 94  1  0  0  0
  4 95  1  0  0  0
  5  6  1  0  0  0
  5 26  1  0  0  0
  5 96  1  0  0  0
  6 25  1  0  0  0
  6 97  1  0  0  0
  6 98  1  0  0  0
  7  8  2  0  0  0
  7 26  1  0  0  0
  7 29  1  0  0  0
  8  9  1  0  0  0
  8 22  1  0  0  0
  9 10  1  0  0  0
  9 27  2  0  0  0
 10 11  2  0  0  0
 10 15  1  0  0  0
 11 12  1  0  0  0
 11 99  1  0  0  0
 12 13  2  0  0  0
 12100  1  0  0  0
 13 14  1  0  0  0
 13 31  1  0  0  0
 14 15  2  0  0  0
 14101  1  0  0  0
 15102  1  0  0  0
 16 17  2  0  0  0
 16 21  1  0  0  0
 16 31  1  0  0  0
 17 18  1  0  0  0
 17103  1  0  0  0
 18 19  2  0  0  0
 18104  1  0  0  0
 19 20  1  0  0  0
 19 24  1  0  0  0
 20 21  2  0  0  0
 20105  1  0  0  0
 21 23  1  0  0  0
 22 28  1  0  0  0
 22 32  2  0  0  0
 26 27  1  0  0  0
 28106  1  0  0  0
 28107  1  0  0  0
 29108  1  0  0  0
 29109  1  0  0  0
 33 34  1  0  0  0
 33 66  1  0  0  0
 33 70  2  0  0  0
 34 36  1  0  0  0
 34 59  1  0  0  0
 34110  1  0  0  0
 35 44  2  0  0  0
 35 45  1  0  0  0
 35 68  1  0  0  0
 36 56  1  0  0  0
 36111  1  0  0  0
 37 39  1  0  0  0
 37 47  1  0  0  0
 37 66  1  0  0  0
 37112  1  0  0  0
 38 43  2  0  0  0
 38 46  1  0  0  0
 38 47  1  0  0  0
 39 64  1  0  0  0
 39 67  2  0  0  0
 40 52  1  0  0  0
 40 53  2  0  0  0
 40 58  1  0  0  0
 41113  1  0  0  0
 41114  1  0  0  0
 41115  1  0  0  0
 41 48  1  0  0  0
 42 43  1  0  0  0
 42 66  1  0  0  0
 42116  1  0  0  0
 42117  1  0  0  0
 43 44  1  0  0  0
 44118  1  0  0  0
 45 46  2  0  0  0
 45119  1  0  0  0
 46120  1  0  0  0
 47121  1  0  0  0
 47122  1  0  0  0
 48 56  1  0  0  0
 48 65  1  0  0  0
 48123  1  0  0  0
 49 50  1  0  0  0
 49 53  1  0  0  0
 49 64  1  0  0  0
 49124  1  0  0  0
 50 51  1  0  0  0
 50125  1  0  0  0
 50126  1  0  0  0
 51 52  1  0  0  0
 51127  1  0  0  0
 51128  1  0  0  0
 52129  1  0  0  0
 52130  1  0  0  0
 53 54  1  0  0  0
 54 55  2  0  0  0
 54131  1  0  0  0
 55 57  1  0  0  0
 55132  1  0  0  0
 56 69  2  0  0  0
 57 58  2  0  0  0
 57133  1  0  0  0
 58134  1  0  0  0
 59 60  1  0  0  0
 59 61  1  0  0  0
 59 62  1  0  0  0
 60135  1  0  0  0
 60136  1  0  0  0
 60137  1  0  0  0
 61138  1  0  0  0
 61139  1  0  0  0
 61140  1  0  0  0
 62141  1  0  0  0
 62142  1  0  0  0
 62143  1  0  0  0
 63 65  1  0  0  0
 63144  1  0  0  0
 63145  1  0  0  0
 63146  1  0  0  0
 64147  1  0  0  0
 65148  1  0  0  0
 68 85  1  0  0  0
 71 72  2  0  0  0
 71 88  1  0  0  0
 71149  1  0  0  0
 72 73  1  0  0  0
 72 75  1  0  0  0
 73 74  2  0  0  0
 73 81  1  0  0  0
 74 76  1  0  0  0
 74 88  1  0  0  0
 75150  1  0  0  0
 75151  1  0  0  0
 75152  1  0  0  0
 76153  1  0  0  0
 76154  1  0  0  0
 76155  1  0  0  0
 77156  1  0  0  0
 77157  1  0  0  0
 77158  1  0  0  0
 77 86  1  0  0  0
 78 86  1  0  0  0
 78159  1  0  0  0
 78160  1  0  0  0
 78161  1  0  0  0
 79162  1  0  0  0
 79163  1  0  0  0
 79164  1  0  0  0
 79 87  1  0  0  0
 80 87  1  0  0  0
 80165  1  0  0  0
 80166  1  0  0  0
 80167  1  0  0  0
 81 82  1  0  0  0
 81168  1  0  0  0
 81169  1  0  0  0
 82 85  1  0  0  0
 82170  1  0  0  0
 82171  1  0  0  0
 83 86  1  0  0  0
 83 88  1  0  0  0
 83172  1  0  0  0
 83173  1  0  0  0
 84 87  1  0  0  0
 84 89  1  0  0  0
 84174  1  0  0  0
 84175  1  0  0  0
 85176  1  0  0  0
 85177  1  0  0  0
 86 87  1  0  0  0
 89178  1  0  0  0
M  ISO  4   1 100  68 101  85 101  89 100
M  END
> <chiral flag>
0

> <version>
0

> <s_m_source_file>
/data/baiqing/PycharmProjects/Reinvent-master-3.2/result/LINK_invent/BTK/process_docking_weight1_custom_sum_contain_oxygen_bond_distance_aromatic_linkinvent_7_9_3/rearranged_h_0082.sdf

> <i_m_source_file_index>
10

> <r_mmod_Potential_Energy-OPLS-2005>
-90.2761001586914

> <r_mmod_Stretch_Energy-OPLS-2005>
43.4237480163574

> <r_mmod_Bend_Energy-OPLS-2005>
121.442863464355

> <r_mmod_Torsional_Energy-OPLS-2005>
252.589477539062

> <r_mmod_Improper_Torsional_Energy-OPLS-2005>
3.33743214607239

> <r_mmod_Van_der_Waal_Energy-OPLS-2005>
143.573760986328

> <r_mmod_Electrostatic_Energy-OPLS-2005>
-467.063934326172

> <r_mmod_Solvation_Energy-OPLS-2005>
-195.325561523438

> <b_mmod_Minimization_Converged-OPLS-2005>
0

> <r_mmod_RMS_Derivative-OPLS-2005>
1.46315121650696

$$$$
10
                    3D
 Structure written by MMmdl.
157165  0  0  1  0            999 V2000
  -30.6050  -14.7481   20.4170 C   0  0  0  0  0  0
  -30.4278  -12.4364   19.4959 C   0  0  0  0  0  0
  -29.5153  -12.4848   18.2510 C   0  0  0  0  0  0
  -28.0360  -12.3281   18.6529 C   0  0  0  0  0  0
  -27.6407  -13.2323   19.8491 C   0  0  2  0  0  0
  -28.6806  -13.1912   20.9907 C   0  0  0  0  0  0
  -25.2490  -13.8210   20.5704 C   0  0  0  0  0  0
  -24.1787  -13.0413   20.9173 C   0  0  0  0  0  0
  -24.6401  -11.6909   20.8725 C   0  0  0  0  0  0
  -23.9100  -10.4256   21.0398 C   0  0  0  0  0  0
  -24.3634   -9.4167   21.9187 C   0  0  0  0  0  0
  -23.6292   -8.2227   22.0757 C   0  0  0  0  0  0
  -22.4280   -8.0293   21.3551 C   0  0  0  0  0  0
  -21.9892   -9.0280   20.4662 C   0  0  0  0  0  0
  -22.7250  -10.2138   20.3069 C   0  0  0  0  0  0
  -21.6877   -6.0738   22.5290 C   0  0  0  0  0  0
  -21.4044   -6.5663   23.8226 C   0  0  0  0  0  0
  -21.3631   -5.6803   24.9189 C   0  0  0  0  0  0
  -21.6026   -4.3066   24.7235 C   0  0  0  0  0  0
  -21.8809   -3.8153   23.4353 C   0  0  0  0  0  0
  -21.9188   -4.6956   22.3405 C   0  0  0  0  0  0
  -22.7804  -13.5202   21.1842 C   0  0  0  0  0  0
  -22.1660   -4.2121   21.0988 F   0  0  0  0  0  0
  -21.5586   -3.4581   25.7749 F   0  0  0  0  0  0
  -29.9907  -13.5165   20.4071 N   0  0  0  0  0  0
  -26.2948  -12.9437   20.3279 N   0  0  0  0  0  0
  -25.9333  -11.6574   20.5712 N   0  0  0  0  0  0
  -22.0470  -12.8258   22.0451 N   0  0  0  0  0  0
  -25.4092  -15.1942   20.4142 N   0  0  0  0  0  0
  -31.7996  -14.8528   20.1215 O   0  0  0  0  0  0
  -21.6624   -6.8912   21.4273 O   0  0  0  0  0  0
  -22.3506  -14.5520   20.6660 O   0  0  0  0  0  0
  -24.6302  -31.8558   23.1969 C   0  0  0  0  0  0
  -25.9127  -32.4772   23.8308 C   0  0  1  0  0  0
  -27.2488  -27.2904   20.1508 C   0  0  0  0  0  0
  -25.5911  -33.8570   24.2218 N   0  0  0  0  0  0
  -23.4287  -30.4760   21.5397 C   0  0  2  0  0  0
  -24.8819  -28.9187   20.1171 C   0  0  0  0  0  0
  -22.7497  -29.4611   22.4908 C   0  0  0  0  0  0
  -18.0294  -28.1399   22.8510 C   0  0  0  0  0  0
  -24.1481  -36.7257   23.2660 C   0  0  0  0  0  0
  -25.9737  -30.7764   21.3820 C   0  0  0  0  0  0
  -26.0488  -29.4025   20.7213 C   0  0  0  0  0  0
  -27.2378  -28.6062   20.7133 C   0  0  0  0  0  0
  -26.0581  -26.8541   19.5392 C   0  0  0  0  0  0
  -24.8895  -27.6509   19.5095 C   0  0  0  0  0  0
  -23.6468  -29.8006   20.1578 C   0  0  0  0  0  0
  -25.4122  -36.3060   24.0315 C   0  0  1  0  0  0
  -20.5889  -28.3704   23.1270 C   0  0  2  0  0  0
  -20.6788  -26.9428   22.5427 C   0  0  0  0  0  0
  -19.5763  -26.6398   21.5234 C   0  0  0  0  0  0
  -18.1933  -26.7950   22.1632 C   0  0  0  0  0  0
  -19.1548  -28.8873   23.2899 C   0  0  0  0  0  0
  -18.9468  -30.1462   23.8930 C   0  0  0  0  0  0
  -17.6465  -30.6611   24.0576 C   0  0  0  0  0  0
  -25.9063  -34.9447   23.5055 C   0  0  0  0  0  0
  -16.5356  -29.9109   23.6339 C   0  0  0  0  0  0
  -16.7276  -28.6524   23.0378 C   0  0  0  0  0  0
  -26.4507  -31.6626   25.0725 C   0  0  0  0  0  0
  -25.3726  -31.3791   26.1430 C   0  0  0  0  0  0
  -27.0434  -30.3048   24.6291 C   0  0  0  0  0  0
  -27.6021  -32.4453   25.7448 C   0  0  0  0  0  0
  -27.5570  -37.1784   24.8460 C   0  0  0  0  0  0
  -21.4210  -29.3025   22.3622 N   0  0  0  0  0  0
  -26.4294  -37.3765   23.9397 N   0  0  0  0  0  0
  -24.6953  -31.0554   22.0943 N   0  0  0  0  0  0
  -23.4191  -28.8214   23.3046 O   0  0  0  0  0  0
  -28.3799  -26.4460   20.1259 O   0  0  0  0  0  0
  -26.5651  -34.8916   22.4630 O   0  0  0  0  0  0
  -23.5439  -32.1359   23.7269 O   0  0  0  0  0  0
  -30.3662  -17.9171   22.6506 C   0  0  0  0  0  0
  -29.9870  -18.3495   21.4042 C   0  0  0  0  0  0
  -29.5512  -19.9467   22.9197 C   0  0  0  0  0  0
  -28.9878  -21.0597   23.7455 C   0  0  0  0  0  0
  -30.0319  -17.3517   20.2097 C   0  0  0  0  0  0
  -29.3545  -22.4908   21.0007 C   0  0  0  0  0  0
  -28.8696  -23.7348   20.0716 C   0  0  0  0  0  0
  -29.2440  -20.8963   20.5704 C   0  0  0  0  0  0
  -28.3406  -25.0987   20.7841 C   0  0  0  0  0  0
  -29.6198  -19.7453   21.5728 N   0  0  0  0  0  0
  -30.0826  -18.8978   23.5357 N   0  3  0  0  0  0
  -29.8024  -15.8680   20.5291 N   0  0  0  0  0  0
  -31.4770  -12.5345   19.2120 H   0  0  0  0  0  0
  -30.3405  -11.4679   19.9980 H   0  0  0  0  0  0
  -29.7987  -11.6987   17.5501 H   0  0  0  0  0  0
  -29.6533  -13.4323   17.7248 H   0  0  0  0  0  0
  -27.8793  -11.2842   18.9229 H   0  0  0  0  0  0
  -27.3831  -12.5254   17.7976 H   0  0  0  0  0  0
  -27.6316  -14.2495   19.4580 H   0  0  0  0  0  0
  -28.7012  -12.2088   21.4685 H   0  0  0  0  0  0
  -28.4124  -13.9092   21.7689 H   0  0  0  0  0  0
  -25.2789   -9.5637   22.4774 H   0  0  0  0  0  0
  -23.9981   -7.4608   22.7513 H   0  0  0  0  0  0
  -21.0773   -8.8844   19.9006 H   0  0  0  0  0  0
  -22.3711  -10.9700   19.6218 H   0  0  0  0  0  0
  -21.2099   -7.6172   23.9741 H   0  0  0  0  0  0
  -21.1456   -6.0529   25.9081 H   0  0  0  0  0  0
  -22.0589   -2.7614   23.2875 H   0  0  0  0  0  0
  -22.4076  -11.9904   22.4833 H   0  0  0  0  0  0
  -21.1101  -13.1322   22.2703 H   0  0  0  0  0  0
  -24.6292  -15.8329   20.5269 H   0  0  0  0  0  0
  -26.2376  -15.6493   20.0551 H   0  0  0  0  0  0
  -26.7215  -32.5405   23.1057 H   0  0  0  0  0  0
  -25.0023  -33.9712   25.0340 H   0  0  0  0  0  0
  -22.7255  -31.2980   21.3890 H   0  0  0  0  0  0
  -23.3752  -35.9575   23.3339 H   0  0  0  0  0  0
  -24.3578  -36.8893   22.2082 H   0  0  0  0  0  0
  -23.7246  -37.6472   23.6692 H   0  0  0  0  0  0
  -26.1312  -31.5496   20.6266 H   0  0  0  0  0  0
  -26.8415  -30.8048   22.0312 H   0  0  0  0  0  0
  -28.1407  -28.9878   21.1681 H   0  0  0  0  0  0
  -26.0343  -25.8767   19.0834 H   0  0  0  0  0  0
  -24.0007  -27.2692   19.0259 H   0  0  0  0  0  0
  -23.7595  -30.5721   19.3964 H   0  0  0  0  0  0
  -22.7670  -29.2234   19.8665 H   0  0  0  0  0  0
  -25.1327  -36.1881   25.0824 H   0  0  0  0  0  0
  -21.0027  -28.3325   24.1371 H   0  0  0  0  0  0
  -20.5699  -26.2347   23.3654 H   0  0  0  0  0  0
  -21.6652  -26.7453   22.1212 H   0  0  0  0  0  0
  -19.6934  -25.6303   21.1290 H   0  0  0  0  0  0
  -19.6704  -27.3189   20.6754 H   0  0  0  0  0  0
  -17.4219  -26.6726   21.4025 H   0  0  0  0  0  0
  -18.0289  -26.0077   22.9001 H   0  0  0  0  0  0
  -19.7930  -30.7283   24.2345 H   0  0  0  0  0  0
  -17.5005  -31.6295   24.5149 H   0  0  0  0  0  0
  -15.5353  -30.3019   23.7662 H   0  0  0  0  0  0
  -15.8672  -28.0853   22.7091 H   0  0  0  0  0  0
  -24.5762  -30.7351   25.7695 H   0  0  0  0  0  0
  -24.9068  -32.2995   26.4966 H   0  0  0  0  0  0
  -25.7959  -30.8812   27.0147 H   0  0  0  0  0  0
  -26.3075  -29.6730   24.1315 H   0  0  0  0  0  0
  -27.4097  -29.7381   25.4875 H   0  0  0  0  0  0
  -27.8927  -30.4350   23.9560 H   0  0  0  0  0  0
  -27.2573  -33.3718   26.2035 H   0  0  0  0  0  0
  -28.3754  -32.7105   25.0231 H   0  0  0  0  0  0
  -28.0800  -31.8645   26.5345 H   0  0  0  0  0  0
  -28.2608  -38.0063   24.7495 H   0  0  0  0  0  0
  -28.1056  -36.2608   24.6287 H   0  0  0  0  0  0
  -27.2289  -37.1412   25.8868 H   0  0  0  0  0  0
  -20.9412  -29.8710   21.6782 H   0  0  0  0  0  0
  -26.0159  -38.2846   24.1403 H   0  0  0  0  0  0
  -30.7600  -16.9643   22.9822 H   0  0  0  0  0  0
  -29.7216  -21.8616   23.7989 H   0  0  0  0  0  0
  -28.8059  -20.6968   24.7566 H   0  0  0  0  0  0
  -28.0313  -21.3666   23.3321 H   0  0  0  0  0  0
  -30.9836  -17.4658   19.6861 H   0  0  0  0  0  0
  -29.2656  -17.6462   19.4856 H   0  0  0  0  0  0
  -28.7937  -22.6815   21.9084 H   0  0  0  0  0  0
  -30.3983  -22.6961   21.2782 H   0  0  0  0  0  0
  -28.0735  -23.3869   19.4131 H   0  0  0  0  0  0
  -29.7000  -24.0013   19.4120 H   0  0  0  0  0  0
  -29.8807  -20.7437   19.6925 H   0  0  0  0  0  0
  -28.2264  -20.6899   20.2330 H   0  0  0  0  0  0
  -28.9512  -25.2238   21.6804 H   0  0  0  0  0  0
  -27.3387  -24.9241   21.1810 H   0  0  0  0  0  0
  -30.1924  -18.8108   24.5392 H   0  0  0  0  0  0
  -28.8379  -15.6379   20.7060 H   0  0  0  0  0  0
  1 25  1  0  0  0
  1 30  2  0  0  0
  1 82  1  0  0  0
  2  3  1  0  0  0
  2 25  1  0  0  0
  2 83  1  0  0  0
  2 84  1  0  0  0
  3  4  1  0  0  0
  3 85  1  0  0  0
  3 86  1  0  0  0
  4  5  1  0  0  0
  4 87  1  0  0  0
  4 88  1  0  0  0
  5  6  1  0  0  0
  5 26  1  0  0  0
  5 89  1  0  0  0
  6 25  1  0  0  0
  6 90  1  0  0  0
  6 91  1  0  0  0
  7  8  2  0  0  0
  7 26  1  0  0  0
  7 29  1  0  0  0
  8  9  1  0  0  0
  8 22  1  0  0  0
  9 10  1  0  0  0
  9 27  2  0  0  0
 10 11  2  0  0  0
 10 15  1  0  0  0
 11 12  1  0  0  0
 11 92  1  0  0  0
 12 13  2  0  0  0
 12 93  1  0  0  0
 13 14  1  0  0  0
 13 31  1  0  0  0
 14 15  2  0  0  0
 14 94  1  0  0  0
 15 95  1  0  0  0
 16 17  2  0  0  0
 16 21  1  0  0  0
 16 31  1  0  0  0
 17 18  1  0  0  0
 17 96  1  0  0  0
 18 19  2  0  0  0
 18 97  1  0  0  0
 19 20  1  0  0  0
 19 24  1  0  0  0
 20 21  2  0  0  0
 20 98  1  0  0  0
 21 23  1  0  0  0
 22 28  1  0  0  0
 22 32  2  0  0  0
 26 27  1  0  0  0
 28 99  1  0  0  0
 28100  1  0  0  0
 29101  1  0  0  0
 29102  1  0  0  0
 33 34  1  0  0  0
 33 66  1  0  0  0
 33 70  2  0  0  0
 34 36  1  0  0  0
 34 59  1  0  0  0
 34103  1  0  0  0
 35 44  2  0  0  0
 35 45  1  0  0  0
 35 68  1  0  0  0
 36 56  1  0  0  0
 36104  1  0  0  0
 37 39  1  0  0  0
 37 47  1  0  0  0
 37 66  1  0  0  0
 37105  1  0  0  0
 38 43  2  0  0  0
 38 46  1  0  0  0
 38 47  1  0  0  0
 39 64  1  0  0  0
 39 67  2  0  0  0
 40 52  1  0  0  0
 40 53  2  0  0  0
 40 58  1  0  0  0
 41106  1  0  0  0
 41107  1  0  0  0
 41108  1  0  0  0
 41 48  1  0  0  0
 42 43  1  0  0  0
 42 66  1  0  0  0
 42109  1  0  0  0
 42110  1  0  0  0
 43 44  1  0  0  0
 44111  1  0  0  0
 45 46  2  0  0  0
 45112  1  0  0  0
 46113  1  0  0  0
 47114  1  0  0  0
 47115  1  0  0  0
 48 56  1  0  0  0
 48 65  1  0  0  0
 48116  1  0  0  0
 49 50  1  0  0  0
 49 53  1  0  0  0
 49 64  1  0  0  0
 49117  1  0  0  0
 50 51  1  0  0  0
 50118  1  0  0  0
 50119  1  0  0  0
 51 52  1  0  0  0
 51120  1  0  0  0
 51121  1  0  0  0
 52122  1  0  0  0
 52123  1  0  0  0
 53 54  1  0  0  0
 54 55  2  0  0  0
 54124  1  0  0  0
 55 57  1  0  0  0
 55125  1  0  0  0
 56 69  2  0  0  0
 57 58  2  0  0  0
 57126  1  0  0  0
 58127  1  0  0  0
 59 60  1  0  0  0
 59 61  1  0  0  0
 59 62  1  0  0  0
 60128  1  0  0  0
 60129  1  0  0  0
 60130  1  0  0  0
 61131  1  0  0  0
 61132  1  0  0  0
 61133  1  0  0  0
 62134  1  0  0  0
 62135  1  0  0  0
 62136  1  0  0  0
 63 65  1  0  0  0
 63137  1  0  0  0
 63138  1  0  0  0
 63139  1  0  0  0
 64140  1  0  0  0
 65141  1  0  0  0
 68 79  1  0  0  0
 71 72  2  0  0  0
 71 81  1  0  0  0
 71142  1  0  0  0
 72 75  1  0  0  0
 72 80  1  0  0  0
 73 74  1  0  0  0
 73 80  1  0  0  0
 73 81  2  0  0  0
 74143  1  0  0  0
 74144  1  0  0  0
 74145  1  0  0  0
 75 82  1  0  0  0
 75146  1  0  0  0
 75147  1  0  0  0
 76 77  1  0  0  0
 76 78  1  0  0  0
 76148  1  0  0  0
 76149  1  0  0  0
 77 79  1  0  0  0
 77150  1  0  0  0
 77151  1  0  0  0
 78 80  1  0  0  0
 78152  1  0  0  0
 78153  1  0  0  0
 79154  1  0  0  0
 79155  1  0  0  0
 81156  1  0  0  0
 82157  1  0  0  0
M  CHG  1  81   1
M  ISO  4   1 100  68 101  79 101  82 100
M  END
> <chiral flag>
0

> <version>
0

> <s_m_source_file>
/data/baiqing/PycharmProjects/Reinvent-master-3.2/result/LINK_invent/BTK/process_docking_weight1_custom_sum_contain_oxygen_bond_distance_aromatic_linkinvent_7_9_3/rearranged_h_0082.sdf

> <i_m_source_file_index>
11

> <r_mmod_Potential_Energy-OPLS-2005>
118.307441711426

> <r_mmod_Stretch_Energy-OPLS-2005>
145.160003662109

> <r_mmod_Bend_Energy-OPLS-2005>
197.685653686523

> <r_mmod_Torsional_Energy-OPLS-2005>
250.921005249023

> <r_mmod_Improper_Torsional_Energy-OPLS-2005>
6.20806741714478

> <r_mmod_Van_der_Waal_Energy-OPLS-2005>
119.297157287598

> <r_mmod_Electrostatic_Energy-OPLS-2005>
-245.345458984375

> <r_mmod_Solvation_Energy-OPLS-2005>
-434.317138671875

> <b_mmod_Minimization_Converged-OPLS-2005>
0

> <r_mmod_RMS_Derivative-OPLS-2005>
8.17119693756104

$$$$
11
                    3D
 Structure written by MMmdl.
173181  0  0  1  0            999 V2000
  -30.6858  -14.4641   20.5913 C   0  0  0  0  0  0
  -30.4203  -12.3083   19.4210 C   0  0  0  0  0  0
  -29.4982  -12.5161   18.2006 C   0  0  0  0  0  0
  -28.0105  -12.3888   18.5952 C   0  0  0  0  0  0
  -27.6596  -13.1960   19.8775 C   0  0  2  0  0  0
  -28.6973  -12.9154   20.9832 C   0  0  0  0  0  0
  -25.2582  -13.8141   20.5649 C   0  0  0  0  0  0
  -24.1828  -13.0424   20.9145 C   0  0  0  0  0  0
  -24.6377  -11.6888   20.8720 C   0  0  0  0  0  0
  -23.9038  -10.4285   21.0394 C   0  0  0  0  0  0
  -24.3605   -9.4209   21.9180 C   0  0  0  0  0  0
  -23.6277   -8.2237   22.0753 C   0  0  0  0  0  0
  -22.4253   -8.0277   21.3540 C   0  0  0  0  0  0
  -21.9881   -9.0245   20.4647 C   0  0  0  0  0  0
  -22.7207  -10.2125   20.3044 C   0  0  0  0  0  0
  -21.6848   -6.0731   22.5282 C   0  0  0  0  0  0
  -21.4030   -6.5637   23.8221 C   0  0  0  0  0  0
  -21.3661   -5.6789   24.9180 C   0  0  0  0  0  0
  -21.6037   -4.3050   24.7227 C   0  0  0  0  0  0
  -21.8818   -3.8132   23.4355 C   0  0  0  0  0  0
  -21.9200   -4.6954   22.3413 C   0  0  0  0  0  0
  -22.7856  -13.5233   21.1821 C   0  0  0  0  0  0
  -22.1652   -4.2133   21.0984 F   0  0  0  0  0  0
  -21.5620   -3.4539   25.7750 F   0  0  0  0  0  0
  -30.0180  -13.2814   20.4499 N   0  0  0  0  0  0
  -26.2998  -12.9279   20.3322 N   0  0  0  0  0  0
  -25.9287  -11.6446   20.5696 N   0  0  0  0  0  0
  -22.0506  -12.8257   22.0400 N   0  0  0  0  0  0
  -25.4291  -15.1877   20.4066 N   0  0  0  0  0  0
  -31.8280  -14.6064   20.1358 O   0  0  0  0  0  0
  -21.6625   -6.8869   21.4231 O   0  0  0  0  0  0
  -22.3543  -14.5548   20.6699 O   0  0  0  0  0  0
  -24.6156  -31.8697   23.2116 C   0  0  0  0  0  0
  -25.9055  -32.4832   23.8406 C   0  0  1  0  0  0
  -27.2426  -27.4559   20.0549 C   0  0  0  0  0  0
  -25.5913  -33.8624   24.2332 N   0  0  0  0  0  0
  -23.4018  -30.4966   21.5520 C   0  0  2  0  0  0
  -24.8447  -28.9604   20.1243 C   0  0  0  0  0  0
  -22.7415  -29.4689   22.4988 C   0  0  0  0  0  0
  -18.0270  -28.1381   22.8478 C   0  0  0  0  0  0
  -24.1492  -36.7321   23.2630 C   0  0  0  0  0  0
  -25.9319  -30.8333   21.3680 C   0  0  0  0  0  0
  -26.0076  -29.4673   20.7180 C   0  0  0  0  0  0
  -27.2063  -28.7173   20.6914 C   0  0  0  0  0  0
  -26.0412  -26.9421   19.5071 C   0  0  0  0  0  0
  -24.8519  -27.6907   19.5291 C   0  0  0  0  0  0
  -23.6113  -29.8328   20.1679 C   0  0  0  0  0  0
  -25.4107  -36.3116   24.0337 C   0  0  1  0  0  0
  -20.5866  -28.3682   23.1304 C   0  0  2  0  0  0
  -20.6764  -26.9415   22.5407 C   0  0  0  0  0  0
  -19.5747  -26.6396   21.5201 C   0  0  0  0  0  0
  -18.1924  -26.7923   22.1613 C   0  0  0  0  0  0
  -19.1518  -28.8844   23.2885 C   0  0  0  0  0  0
  -18.9456  -30.1446   23.8908 C   0  0  0  0  0  0
  -17.6458  -30.6583   24.0581 C   0  0  0  0  0  0
  -25.9038  -34.9482   23.5133 C   0  0  0  0  0  0
  -16.5348  -29.9099   23.6322 C   0  0  0  0  0  0
  -16.7257  -28.6517   23.0331 C   0  0  0  0  0  0
  -26.4481  -31.6603   25.0729 C   0  0  0  0  0  0
  -25.3749  -31.3712   26.1484 C   0  0  0  0  0  0
  -27.0301  -30.3044   24.6103 C   0  0  0  0  0  0
  -27.6061  -32.4309   25.7488 C   0  0  0  0  0  0
  -27.5588  -37.1809   24.8453 C   0  0  0  0  0  0
  -21.4142  -29.3051   22.3716 N   0  0  0  0  0  0
  -26.4291  -37.3802   23.9415 N   0  0  0  0  0  0
  -24.6673  -31.0809   22.1019 N   0  0  0  0  0  0
  -23.4177  -28.8210   23.3019 O   0  0  0  0  0  0
  -28.4428  -26.7725   19.9538 O   0  0  0  0  0  0
  -26.5600  -34.8933   22.4692 O   0  0  0  0  0  0
  -23.5346  -32.1447   23.7525 O   0  0  0  0  0  0
  -30.9273  -23.4570   18.9760 C   0  0  0  0  0  0
  -31.8975  -25.4462   19.9358 C   0  0  0  0  0  0
  -30.9206  -24.8553   19.1237 C   0  0  0  0  0  0
  -31.9704  -22.6911   19.5449 C   0  0  0  0  0  0
  -32.9282  -23.3949   20.3323 C   0  0  0  0  0  0
  -34.1210  -22.7442   21.0208 C   0  0  0  0  0  0
  -31.6628  -20.9227   17.7348 C   0  0  0  0  0  0
  -31.7252  -20.4945   21.6716 C   0  0  0  0  0  0
  -29.0949  -15.7878   22.0286 C   0  0  0  0  0  0
  -29.9764  -25.7105   18.2949 C   0  0  0  0  0  0
  -30.1907  -16.8293   20.0963 C   0  0  0  0  0  0
  -31.3743  -17.6479   20.6695 C   0  0  0  0  0  0
  -28.5508  -25.8742   18.8390 C   0  0  0  0  0  0
  -32.0925  -21.1853   19.2004 C   0  0  2  0  0  0
  -31.3990  -20.1894   20.1930 C   0  0  1  0  0  0
  -32.8654  -24.7296   20.5360 N   0  0  0  0  0  0
  -29.9376  -15.5777   20.8433 N   0  0  0  0  0  0
  -31.7666  -18.7940   19.8079 N   0  3  0  0  0  0
  -31.4671  -12.4114   19.1241 H   0  0  0  0  0  0
  -30.3201  -11.2905   19.8036 H   0  0  0  0  0  0
  -29.7419  -11.7984   17.4157 H   0  0  0  0  0  0
  -29.6813  -13.5001   17.7674 H   0  0  0  0  0  0
  -27.7962  -11.3308   18.7514 H   0  0  0  0  0  0
  -27.3756  -12.7041   17.7680 H   0  0  0  0  0  0
  -27.7210  -14.2533   19.6201 H   0  0  0  0  0  0
  -28.6875  -11.8542   21.2342 H   0  0  0  0  0  0
  -28.4387  -13.3963   21.9210 H   0  0  0  0  0  0
  -25.2766   -9.5682   22.4744 H   0  0  0  0  0  0
  -23.9991   -7.4625   22.7489 H   0  0  0  0  0  0
  -21.0800   -8.8768   19.8976 H   0  0  0  0  0  0
  -22.3667  -10.9655   19.6141 H   0  0  0  0  0  0
  -21.2036   -7.6140   23.9716 H   0  0  0  0  0  0
  -21.1469   -6.0521   25.9088 H   0  0  0  0  0  0
  -22.0600   -2.7588   23.2867 H   0  0  0  0  0  0
  -22.4112  -11.9910   22.4762 H   0  0  0  0  0  0
  -21.1136  -13.1300   22.2625 H   0  0  0  0  0  0
  -24.6636  -15.8438   20.5211 H   0  0  0  0  0  0
  -26.2789  -15.6247   20.0740 H   0  0  0  0  0  0
  -26.7131  -32.5550   23.1168 H   0  0  0  0  0  0
  -25.0071  -33.9785   25.0495 H   0  0  0  0  0  0
  -22.6896  -31.3130   21.4139 H   0  0  0  0  0  0
  -23.3755  -35.9653   23.3286 H   0  0  0  0  0  0
  -24.3588  -36.8943   22.2045 H   0  0  0  0  0  0
  -23.7254  -37.6526   23.6649 H   0  0  0  0  0  0
  -26.0483  -31.5971   20.5977 H   0  0  0  0  0  0
  -26.8193  -30.8841   21.9871 H   0  0  0  0  0  0
  -28.1103  -29.1193   21.1275 H   0  0  0  0  0  0
  -26.0046  -25.9678   19.0425 H   0  0  0  0  0  0
  -23.9529  -27.2852   19.0842 H   0  0  0  0  0  0
  -23.7308  -30.6068   19.4085 H   0  0  0  0  0  0
  -22.7344  -29.2574   19.8658 H   0  0  0  0  0  0
  -25.1282  -36.1971   25.0830 H   0  0  0  0  0  0
  -20.9940  -28.3247   24.1436 H   0  0  0  0  0  0
  -20.5663  -26.2289   23.3591 H   0  0  0  0  0  0
  -21.6642  -26.7449   22.1215 H   0  0  0  0  0  0
  -19.6909  -25.6315   21.1218 H   0  0  0  0  0  0
  -19.6685  -27.3222   20.6741 H   0  0  0  0  0  0
  -17.4185  -26.6646   21.4027 H   0  0  0  0  0  0
  -18.0343  -26.0075   22.9020 H   0  0  0  0  0  0
  -19.7936  -30.7250   24.2287 H   0  0  0  0  0  0
  -17.5022  -31.6261   24.5188 H   0  0  0  0  0  0
  -15.5355  -30.3008   23.7643 H   0  0  0  0  0  0
  -15.8652  -28.0852   22.7027 H   0  0  0  0  0  0
  -24.5904  -30.7083   25.7821 H   0  0  0  0  0  0
  -24.8971  -32.2870   26.4962 H   0  0  0  0  0  0
  -25.8108  -30.8848   27.0222 H   0  0  0  0  0  0
  -26.2839  -29.6810   24.1161 H   0  0  0  0  0  0
  -27.4072  -29.7276   25.4558 H   0  0  0  0  0  0
  -27.8679  -30.4352   23.9250 H   0  0  0  0  0  0
  -27.2690  -33.3600   26.2092 H   0  0  0  0  0  0
  -28.3858  -32.6881   25.0307 H   0  0  0  0  0  0
  -28.0740  -31.8415   26.5379 H   0  0  0  0  0  0
  -28.2584  -38.0131   24.7550 H   0  0  0  0  0  0
  -28.1114  -36.2670   24.6217 H   0  0  0  0  0  0
  -27.2312  -37.1380   25.8856 H   0  0  0  0  0  0
  -20.9293  -29.8804   21.6971 H   0  0  0  0  0  0
  -26.0179  -38.2880   24.1434 H   0  0  0  0  0  0
  -30.1751  -23.0059   18.3461 H   0  0  0  0  0  0
  -31.9384  -26.5176   20.0628 H   0  0  0  0  0  0
  -34.5701  -21.9401   20.4437 H   0  0  0  0  0  0
  -33.8359  -22.3572   21.9985 H   0  0  0  0  0  0
  -34.9125  -23.4771   21.1936 H   0  0  0  0  0  0
  -32.1475  -21.6300   17.0590 H   0  0  0  0  0  0
  -30.5862  -21.0162   17.5901 H   0  0  0  0  0  0
  -31.9392  -19.9275   17.3870 H   0  0  0  0  0  0
  -31.6390  -21.5538   21.9065 H   0  0  0  0  0  0
  -32.7331  -20.1692   21.9382 H   0  0  0  0  0  0
  -31.0244  -20.0042   22.3453 H   0  0  0  0  0  0
  -29.1890  -16.8026   22.4164 H   0  0  0  0  0  0
  -29.3667  -15.1188   22.8466 H   0  0  0  0  0  0
  -28.0409  -15.6399   21.7899 H   0  0  0  0  0  0
  -29.9070  -25.2377   17.3124 H   0  0  0  0  0  0
  -30.4247  -26.6864   18.1080 H   0  0  0  0  0  0
  -30.3892  -16.5746   19.0540 H   0  0  0  0  0  0
  -29.2855  -17.4384   20.0780 H   0  0  0  0  0  0
  -32.2568  -17.0111   20.7223 H   0  0  0  0  0  0
  -31.1833  -17.9329   21.7018 H   0  0  0  0  0  0
  -28.1155  -24.9047   19.0870 H   0  0  0  0  0  0
  -27.9861  -26.2679   17.9911 H   0  0  0  0  0  0
  -33.1557  -20.9565   19.2111 H   0  0  0  0  0  0
  -30.3165  -20.2952   20.0814 H   0  0  0  0  0  0
  -31.4227  -18.6246   18.8760 H   0  0  0  0  0  0
  -32.7717  -18.7509   19.7419 H   0  0  0  0  0  0
  1 25  1  0  0  0
  1 30  2  0  0  0
  1 87  1  0  0  0
  2  3  1  0  0  0
  2 25  1  0  0  0
  2 89  1  0  0  0
  2 90  1  0  0  0
  3  4  1  0  0  0
  3 91  1  0  0  0
  3 92  1  0  0  0
  4  5  1  0  0  0
  4 93  1  0  0  0
  4 94  1  0  0  0
  5  6  1  0  0  0
  5 26  1  0  0  0
  5 95  1  0  0  0
  6 25  1  0  0  0
  6 96  1  0  0  0
  6 97  1  0  0  0
  7  8  2  0  0  0
  7 26  1  0  0  0
  7 29  1  0  0  0
  8  9  1  0  0  0
  8 22  1  0  0  0
  9 10  1  0  0  0
  9 27  2  0  0  0
 10 11  2  0  0  0
 10 15  1  0  0  0
 11 12  1  0  0  0
 11 98  1  0  0  0
 12 13  2  0  0  0
 12 99  1  0  0  0
 13 14  1  0  0  0
 13 31  1  0  0  0
 14 15  2  0  0  0
 14100  1  0  0  0
 15101  1  0  0  0
 16 17  2  0  0  0
 16 21  1  0  0  0
 16 31  1  0  0  0
 17 18  1  0  0  0
 17102  1  0  0  0
 18 19  2  0  0  0
 18103  1  0  0  0
 19 20  1  0  0  0
 19 24  1  0  0  0
 20 21  2  0  0  0
 20104  1  0  0  0
 21 23  1  0  0  0
 22 28  1  0  0  0
 22 32  2  0  0  0
 26 27  1  0  0  0
 28105  1  0  0  0
 28106  1  0  0  0
 29107  1  0  0  0
 29108  1  0  0  0
 33 34  1  0  0  0
 33 66  1  0  0  0
 33 70  2  0  0  0
 34 36  1  0  0  0
 34 59  1  0  0  0
 34109  1  0  0  0
 35 44  2  0  0  0
 35 45  1  0  0  0
 35 68  1  0  0  0
 36 56  1  0  0  0
 36110  1  0  0  0
 37 39  1  0  0  0
 37 47  1  0  0  0
 37 66  1  0  0  0
 37111  1  0  0  0
 38 43  2  0  0  0
 38 46  1  0  0  0
 38 47  1  0  0  0
 39 64  1  0  0  0
 39 67  2  0  0  0
 40 52  1  0  0  0
 40 53  2  0  0  0
 40 58  1  0  0  0
 41112  1  0  0  0
 41113  1  0  0  0
 41114  1  0  0  0
 41 48  1  0  0  0
 42 43  1  0  0  0
 42 66  1  0  0  0
 42115  1  0  0  0
 42116  1  0  0  0
 43 44  1  0  0  0
 44117  1  0  0  0
 45 46  2  0  0  0
 45118  1  0  0  0
 46119  1  0  0  0
 47120  1  0  0  0
 47121  1  0  0  0
 48 56  1  0  0  0
 48 65  1  0  0  0
 48122  1  0  0  0
 49 50  1  0  0  0
 49 53  1  0  0  0
 49 64  1  0  0  0
 49123  1  0  0  0
 50 51  1  0  0  0
 50124  1  0  0  0
 50125  1  0  0  0
 51 52  1  0  0  0
 51126  1  0  0  0
 51127  1  0  0  0
 52128  1  0  0  0
 52129  1  0  0  0
 53 54  1  0  0  0
 54 55  2  0  0  0
 54130  1  0  0  0
 55 57  1  0  0  0
 55131  1  0  0  0
 56 69  2  0  0  0
 57 58  2  0  0  0
 57132  1  0  0  0
 58133  1  0  0  0
 59 60  1  0  0  0
 59 61  1  0  0  0
 59 62  1  0  0  0
 60134  1  0  0  0
 60135  1  0  0  0
 60136  1  0  0  0
 61137  1  0  0  0
 61138  1  0  0  0
 61139  1  0  0  0
 62140  1  0  0  0
 62141  1  0  0  0
 62142  1  0  0  0
 63 65  1  0  0  0
 63143  1  0  0  0
 63144  1  0  0  0
 63145  1  0  0  0
 64146  1  0  0  0
 65147  1  0  0  0
 68 83  1  0  0  0
 71 73  2  0  0  0
 71 74  1  0  0  0
 71148  1  0  0  0
 72 73  1  0  0  0
 72 86  2  0  0  0
 72149  1  0  0  0
 73 80  1  0  0  0
 74 75  2  0  0  0
 74 84  1  0  0  0
 75 76  1  0  0  0
 75 86  1  0  0  0
 76150  1  0  0  0
 76151  1  0  0  0
 76152  1  0  0  0
 77153  1  0  0  0
 77154  1  0  0  0
 77155  1  0  0  0
 77 84  1  0  0  0
 78156  1  0  0  0
 78157  1  0  0  0
 78158  1  0  0  0
 78 85  1  0  0  0
 79 87  1  0  0  0
 79159  1  0  0  0
 79160  1  0  0  0
 79161  1  0  0  0
 80 83  1  0  0  0
 80162  1  0  0  0
 80163  1  0  0  0
 81 82  1  0  0  0
 81 87  1  0  0  0
 81164  1  0  0  0
 81165  1  0  0  0
 82 88  1  0  0  0
 82166  1  0  0  0
 82167  1  0  0  0
 83168  1  0  0  0
 83169  1  0  0  0
 84 85  1  0  0  0
 84170  1  0  0  0
 85 88  1  0  0  0
 85171  1  0  0  0
 88172  1  0  0  0
 88173  1  0  0  0
M  CHG  1  88   1
M  ISO  4   1 100  68 101  83 101  87 100
M  END
> <chiral flag>
0

> <version>
0

> <s_m_source_file>
/data/baiqing/PycharmProjects/Reinvent-master-3.2/result/LINK_invent/BTK/process_docking_weight1_custom_sum_contain_oxygen_bond_distance_aromatic_linkinvent_7_9_3/rearranged_h_0082.sdf

> <i_m_source_file_index>
12

> <r_mmod_Potential_Energy-OPLS-2005>
-225.524185180664

> <r_mmod_Stretch_Energy-OPLS-2005>
44.018482208252

> <r_mmod_Bend_Energy-OPLS-2005>
122.389488220215

> <r_mmod_Torsional_Energy-OPLS-2005>
287.134552001953

> <r_mmod_Improper_Torsional_Energy-OPLS-2005>
13.9040126800537

> <r_mmod_Van_der_Waal_Energy-OPLS-2005>
180.086547851562

> <r_mmod_Electrostatic_Energy-OPLS-2005>
-426.289215087891

> <r_mmod_Solvation_Energy-OPLS-2005>
-459.764984130859

> <b_mmod_Minimization_Converged-OPLS-2005>
0

> <r_mmod_RMS_Derivative-OPLS-2005>
3.98207926750183

$$$$
12
                    3D
 Structure written by MMmdl.
163171  0  0  1  0            999 V2000
  -30.7276  -14.5501   20.3976 C   0  0  0  0  0  0
  -30.4086  -12.3169   19.4427 C   0  0  0  0  0  0
  -29.4888  -12.4608   18.2162 C   0  0  0  0  0  0
  -28.0192  -12.2944   18.6507 C   0  0  0  0  0  0
  -27.6473  -13.2137   19.8448 C   0  0  2  0  0  0
  -28.7027  -13.1460   20.9710 C   0  0  0  0  0  0
  -25.2589  -13.8173   20.5777 C   0  0  0  0  0  0
  -24.1814  -13.0419   20.9184 C   0  0  0  0  0  0
  -24.6408  -11.6922   20.8769 C   0  0  0  0  0  0
  -23.9091  -10.4291   21.0433 C   0  0  0  0  0  0
  -24.3657   -9.4204   21.9189 C   0  0  0  0  0  0
  -23.6315   -8.2232   22.0743 C   0  0  0  0  0  0
  -22.4289   -8.0282   21.3529 C   0  0  0  0  0  0
  -21.9944   -9.0276   20.4632 C   0  0  0  0  0  0
  -22.7291  -10.2144   20.3058 C   0  0  0  0  0  0
  -21.6875   -6.0737   22.5276 C   0  0  0  0  0  0
  -21.4016   -6.5626   23.8207 C   0  0  0  0  0  0
  -21.3647   -5.6778   24.9160 C   0  0  0  0  0  0
  -21.6040   -4.3036   24.7225 C   0  0  0  0  0  0
  -21.8840   -3.8142   23.4347 C   0  0  0  0  0  0
  -21.9182   -4.6950   22.3400 C   0  0  0  0  0  0
  -22.7839  -13.5209   21.1820 C   0  0  0  0  0  0
  -22.1649   -4.2130   21.0977 F   0  0  0  0  0  0
  -21.5637   -3.4537   25.7759 F   0  0  0  0  0  0
  -30.0217  -13.3873   20.3743 N   0  0  0  0  0  0
  -26.2995  -12.9370   20.3375 N   0  0  0  0  0  0
  -25.9329  -11.6523   20.5830 N   0  0  0  0  0  0
  -22.0559  -12.8170   22.0426 N   0  0  0  0  0  0
  -25.4376  -15.1862   20.4306 N   0  0  0  0  0  0
  -31.9434  -14.5655   20.2363 O   0  0  0  0  0  0
  -21.6627   -6.8891   21.4249 O   0  0  0  0  0  0
  -22.3494  -14.5486   20.6663 O   0  0  0  0  0  0
  -24.6163  -31.8698   23.2087 C   0  0  0  0  0  0
  -25.9053  -32.4794   23.8425 C   0  0  1  0  0  0
  -27.2299  -27.4073   20.0882 C   0  0  0  0  0  0
  -25.5944  -33.8617   24.2339 N   0  0  0  0  0  0
  -23.4031  -30.4976   21.5494 C   0  0  2  0  0  0
  -24.8504  -28.9644   20.1066 C   0  0  0  0  0  0
  -22.7405  -29.4684   22.4941 C   0  0  0  0  0  0
  -18.0289  -28.1393   22.8475 C   0  0  0  0  0  0
  -24.1509  -36.7333   23.2642 C   0  0  0  0  0  0
  -25.9364  -30.8260   21.3670 C   0  0  0  0  0  0
  -26.0141  -29.4592   20.7087 C   0  0  0  0  0  0
  -27.2047  -28.6888   20.6971 C   0  0  0  0  0  0
  -26.0432  -26.9426   19.4717 C   0  0  0  0  0  0
  -24.8642  -27.7075   19.4801 C   0  0  0  0  0  0
  -23.6137  -29.8387   20.1596 C   0  0  0  0  0  0
  -25.4127  -36.3103   24.0326 C   0  0  1  0  0  0
  -20.5854  -28.3710   23.1302 C   0  0  2  0  0  0
  -20.6744  -26.9453   22.5384 C   0  0  0  0  0  0
  -19.5718  -26.6416   21.5187 C   0  0  0  0  0  0
  -18.1909  -26.7931   22.1610 C   0  0  0  0  0  0
  -19.1527  -28.8871   23.2887 C   0  0  0  0  0  0
  -18.9466  -30.1449   23.8925 C   0  0  0  0  0  0
  -17.6462  -30.6580   24.0601 C   0  0  0  0  0  0
  -25.9053  -34.9463   23.5119 C   0  0  0  0  0  0
  -16.5359  -29.9104   23.6318 C   0  0  0  0  0  0
  -16.7274  -28.6538   23.0294 C   0  0  0  0  0  0
  -26.4494  -31.6556   25.0731 C   0  0  0  0  0  0
  -25.3779  -31.3665   26.1478 C   0  0  0  0  0  0
  -27.0332  -30.3001   24.6099 C   0  0  0  0  0  0
  -27.6064  -32.4284   25.7489 C   0  0  0  0  0  0
  -27.5586  -37.1820   24.8455 C   0  0  0  0  0  0
  -21.4127  -29.3098   22.3710 N   0  0  0  0  0  0
  -26.4312  -37.3778   23.9383 N   0  0  0  0  0  0
  -24.6689  -31.0792   22.0987 N   0  0  0  0  0  0
  -23.4204  -28.8237   23.2983 O   0  0  0  0  0  0
  -28.3888  -26.6399   20.1060 O   0  0  0  0  0  0
  -26.5586  -34.8896   22.4667 O   0  0  0  0  0  0
  -23.5336  -32.1471   23.7464 O   0  0  0  0  0  0
  -29.8956  -19.5291   19.9523 C   0  0  0  0  0  0
  -28.9248  -20.4959   19.6310 C   0  0  0  0  0  0
  -29.5277  -18.1644   19.9196 C   0  0  0  0  0  0
  -27.4027  -18.7913   19.3431 C   0  0  0  0  0  0
  -25.8113  -18.7730   17.3624 C   0  0  0  0  0  0
  -31.4947  -17.1526   18.7877 C   0  0  0  0  0  0
  -29.2575  -21.9880   19.3932 C   0  0  0  0  0  0
  -26.0187  -18.4091   18.8426 C   0  0  0  0  0  0
  -29.3698  -22.8921   20.6590 C   0  0  0  0  0  0
  -29.5137  -24.4343   20.4233 C   0  0  0  0  0  0
  -28.2204  -25.2030   20.0568 C   0  0  0  0  0  0
  -30.5911  -17.0605   20.0467 C   0  0  2  0  0  0
  -27.6642  -20.1005   19.3740 N   0  0  0  0  0  0
  -28.2679  -17.8026   19.5867 N   0  0  0  0  0  0
  -30.0264  -15.7011   20.2797 N   0  0  0  0  0  0
  -31.4562  -12.3640   19.1383 H   0  0  0  0  0  0
  -30.2769  -11.3423   19.9169 H   0  0  0  0  0  0
  -29.7553  -11.7232   17.4548 H   0  0  0  0  0  0
  -29.6176  -13.4435   17.7587 H   0  0  0  0  0  0
  -27.8815  -11.2496   18.9356 H   0  0  0  0  0  0
  -27.3435  -12.4657   17.8133 H   0  0  0  0  0  0
  -27.6466  -14.2302   19.4511 H   0  0  0  0  0  0
  -28.6806  -12.1752   21.4732 H   0  0  0  0  0  0
  -28.4837  -13.9004   21.7313 H   0  0  0  0  0  0
  -25.2827   -9.5632   22.4718 H   0  0  0  0  0  0
  -24.0005   -7.4639   22.7477 H   0  0  0  0  0  0
  -21.0855   -8.8850   19.8957 H   0  0  0  0  0  0
  -22.3812  -10.9682   19.6125 H   0  0  0  0  0  0
  -21.2039   -7.6140   23.9710 H   0  0  0  0  0  0
  -21.1429   -6.0499   25.9049 H   0  0  0  0  0  0
  -22.0638   -2.7597   23.2883 H   0  0  0  0  0  0
  -22.4251  -11.9757   22.4608 H   0  0  0  0  0  0
  -21.1211  -13.1156   22.2815 H   0  0  0  0  0  0
  -24.6815  -15.8547   20.5337 H   0  0  0  0  0  0
  -26.3133  -15.6111   20.1494 H   0  0  0  0  0  0
  -26.7137  -32.5493   23.1207 H   0  0  0  0  0  0
  -25.0133  -33.9822   25.0502 H   0  0  0  0  0  0
  -22.6857  -31.3113   21.4148 H   0  0  0  0  0  0
  -23.3720  -35.9706   23.3303 H   0  0  0  0  0  0
  -24.3634  -36.8952   22.2063 H   0  0  0  0  0  0
  -23.7288  -37.6564   23.6645 H   0  0  0  0  0  0
  -26.0564  -31.5939   20.6031 H   0  0  0  0  0  0
  -26.8193  -30.8761   21.9925 H   0  0  0  0  0  0
  -28.0967  -29.0689   21.1743 H   0  0  0  0  0  0
  -26.0056  -25.9898   18.9629 H   0  0  0  0  0  0
  -23.9786  -27.3254   18.9873 H   0  0  0  0  0  0
  -23.7316  -30.6222   19.4089 H   0  0  0  0  0  0
  -22.7289  -29.2816   19.8508 H   0  0  0  0  0  0
  -25.1296  -36.2003   25.0811 H   0  0  0  0  0  0
  -20.9982  -28.3280   24.1416 H   0  0  0  0  0  0
  -20.5585  -26.2396   23.3622 H   0  0  0  0  0  0
  -21.6606  -26.7436   22.1217 H   0  0  0  0  0  0
  -19.6903  -25.6369   21.1168 H   0  0  0  0  0  0
  -19.6629  -27.3270   20.6756 H   0  0  0  0  0  0
  -17.4164  -26.6686   21.4005 H   0  0  0  0  0  0
  -18.0364  -26.0054   22.9026 H   0  0  0  0  0  0
  -19.7938  -30.7252   24.2312 H   0  0  0  0  0  0
  -17.5030  -31.6244   24.5220 H   0  0  0  0  0  0
  -15.5347  -30.3017   23.7607 H   0  0  0  0  0  0
  -15.8688  -28.0869   22.6922 H   0  0  0  0  0  0
  -24.5905  -30.7073   25.7802 H   0  0  0  0  0  0
  -24.9033  -32.2847   26.4967 H   0  0  0  0  0  0
  -25.8160  -30.8789   27.0199 H   0  0  0  0  0  0
  -26.2898  -29.6726   24.1157 H   0  0  0  0  0  0
  -27.4140  -29.7247   25.4542 H   0  0  0  0  0  0
  -27.8719  -30.4315   23.9244 H   0  0  0  0  0  0
  -27.2652  -33.3527   26.2172 H   0  0  0  0  0  0
  -28.3817  -32.6942   25.0286 H   0  0  0  0  0  0
  -28.0803  -31.8353   26.5329 H   0  0  0  0  0  0
  -28.2584  -38.0127   24.7470 H   0  0  0  0  0  0
  -28.1098  -36.2659   24.6299 H   0  0  0  0  0  0
  -27.2319  -37.1492   25.8862 H   0  0  0  0  0  0
  -20.9252  -29.8967   21.7076 H   0  0  0  0  0  0
  -26.0198  -38.2864   24.1327 H   0  0  0  0  0  0
  -30.9192  -19.8186   20.1428 H   0  0  0  0  0  0
  -25.8735  -19.8514   17.2094 H   0  0  0  0  0  0
  -24.8443  -18.4295   16.9881 H   0  0  0  0  0  0
  -26.5918  -18.3213   16.7502 H   0  0  0  0  0  0
  -32.3646  -16.4992   18.8175 H   0  0  0  0  0  0
  -30.9445  -16.9262   17.8751 H   0  0  0  0  0  0
  -31.9092  -18.1571   18.6862 H   0  0  0  0  0  0
  -28.5035  -22.4036   18.7205 H   0  0  0  0  0  0
  -30.1880  -22.0397   18.8214 H   0  0  0  0  0  0
  -25.2606  -18.8867   19.4649 H   0  0  0  0  0  0
  -25.8846  -17.3344   18.9539 H   0  0  0  0  0  0
  -30.2585  -22.5680   21.2023 H   0  0  0  0  0  0
  -28.5294  -22.7047   21.3302 H   0  0  0  0  0  0
  -29.8782  -24.8691   21.3537 H   0  0  0  0  0  0
  -30.2910  -24.6407   19.6846 H   0  0  0  0  0  0
  -27.9078  -24.8862   19.0622 H   0  0  0  0  0  0
  -27.4309  -24.9100   20.7518 H   0  0  0  0  0  0
  -31.2008  -17.3112   20.9173 H   0  0  0  0  0  0
  -29.0202  -15.6686   20.2537 H   0  0  0  0  0  0
  1 25  1  0  0  0
  1 30  2  0  0  0
  1 85  1  0  0  0
  2  3  1  0  0  0
  2 25  1  0  0  0
  2 86  1  0  0  0
  2 87  1  0  0  0
  3  4  1  0  0  0
  3 88  1  0  0  0
  3 89  1  0  0  0
  4  5  1  0  0  0
  4 90  1  0  0  0
  4 91  1  0  0  0
  5  6  1  0  0  0
  5 26  1  0  0  0
  5 92  1  0  0  0
  6 25  1  0  0  0
  6 93  1  0  0  0
  6 94  1  0  0  0
  7  8  2  0  0  0
  7 26  1  0  0  0
  7 29  1  0  0  0
  8  9  1  0  0  0
  8 22  1  0  0  0
  9 10  1  0  0  0
  9 27  2  0  0  0
 10 11  2  0  0  0
 10 15  1  0  0  0
 11 12  1  0  0  0
 11 95  1  0  0  0
 12 13  2  0  0  0
 12 96  1  0  0  0
 13 14  1  0  0  0
 13 31  1  0  0  0
 14 15  2  0  0  0
 14 97  1  0  0  0
 15 98  1  0  0  0
 16 17  2  0  0  0
 16 21  1  0  0  0
 16 31  1  0  0  0
 17 18  1  0  0  0
 17 99  1  0  0  0
 18 19  2  0  0  0
 18100  1  0  0  0
 19 20  1  0  0  0
 19 24  1  0  0  0
 20 21  2  0  0  0
 20101  1  0  0  0
 21 23  1  0  0  0
 22 28  1  0  0  0
 22 32  2  0  0  0
 26 27  1  0  0  0
 28102  1  0  0  0
 28103  1  0  0  0
 29104  1  0  0  0
 29105  1  0  0  0
 33 34  1  0  0  0
 33 66  1  0  0  0
 33 70  2  0  0  0
 34 36  1  0  0  0
 34 59  1  0  0  0
 34106  1  0  0  0
 35 44  2  0  0  0
 35 45  1  0  0  0
 35 68  1  0  0  0
 36 56  1  0  0  0
 36107  1  0  0  0
 37 39  1  0  0  0
 37 47  1  0  0  0
 37 66  1  0  0  0
 37108  1  0  0  0
 38 43  2  0  0  0
 38 46  1  0  0  0
 38 47  1  0  0  0
 39 64  1  0  0  0
 39 67  2  0  0  0
 40 52  1  0  0  0
 40 53  2  0  0  0
 40 58  1  0  0  0
 41109  1  0  0  0
 41110  1  0  0  0
 41111  1  0  0  0
 41 48  1  0  0  0
 42 43  1  0  0  0
 42 66  1  0  0  0
 42112  1  0  0  0
 42113  1  0  0  0
 43 44  1  0  0  0
 44114  1  0  0  0
 45 46  2  0  0  0
 45115  1  0  0  0
 46116  1  0  0  0
 47117  1  0  0  0
 47118  1  0  0  0
 48 56  1  0  0  0
 48 65  1  0  0  0
 48119  1  0  0  0
 49 50  1  0  0  0
 49 53  1  0  0  0
 49 64  1  0  0  0
 49120  1  0  0  0
 50 51  1  0  0  0
 50121  1  0  0  0
 50122  1  0  0  0
 51 52  1  0  0  0
 51123  1  0  0  0
 51124  1  0  0  0
 52125  1  0  0  0
 52126  1  0  0  0
 53 54  1  0  0  0
 54 55  2  0  0  0
 54127  1  0  0  0
 55 57  1  0  0  0
 55128  1  0  0  0
 56 69  2  0  0  0
 57 58  2  0  0  0
 57129  1  0  0  0
 58130  1  0  0  0
 59 60  1  0  0  0
 59 61  1  0  0  0
 59 62  1  0  0  0
 60131  1  0  0  0
 60132  1  0  0  0
 60133  1  0  0  0
 61134  1  0  0  0
 61135  1  0  0  0
 61136  1  0  0  0
 62137  1  0  0  0
 62138  1  0  0  0
 62139  1  0  0  0
 63 65  1  0  0  0
 63140  1  0  0  0
 63141  1  0  0  0
 63142  1  0  0  0
 64143  1  0  0  0
 65144  1  0  0  0
 68 81  1  0  0  0
 71 72  2  0  0  0
 71 73  1  0  0  0
 71145  1  0  0  0
 72 77  1  0  0  0
 72 83  1  0  0  0
 73 82  1  0  0  0
 73 84  2  0  0  0
 74 78  1  0  0  0
 74 83  2  0  0  0
 74 84  1  0  0  0
 75 78  1  0  0  0
 75146  1  0  0  0
 75147  1  0  0  0
 75148  1  0  0  0
 76149  1  0  0  0
 76150  1  0  0  0
 76151  1  0  0  0
 76 82  1  0  0  0
 77 79  1  0  0  0
 77152  1  0  0  0
 77153  1  0  0  0
 78154  1  0  0  0
 78155  1  0  0  0
 79 80  1  0  0  0
 79156  1  0  0  0
 79157  1  0  0  0
 80 81  1  0  0  0
 80158  1  0  0  0
 80159  1  0  0  0
 81160  1  0  0  0
 81161  1  0  0  0
 82 85  1  0  0  0
 82162  1  0  0  0
 85163  1  0  0  0
M  ISO  4   1 100  68 101  81 101  85 100
M  END
> <chiral flag>
0

> <version>
0

> <s_m_source_file>
/data/baiqing/PycharmProjects/Reinvent-master-3.2/result/LINK_invent/BTK/process_docking_weight1_custom_sum_contain_oxygen_bond_distance_aromatic_linkinvent_7_9_3/rearranged_h_0082.sdf

> <i_m_source_file_index>
13

> <r_mmod_Potential_Energy-OPLS-2005>
-624.851623535156

> <r_mmod_Stretch_Energy-OPLS-2005>
44.0880813598633

> <r_mmod_Bend_Energy-OPLS-2005>
109.553253173828

> <r_mmod_Torsional_Energy-OPLS-2005>
198.813278198242

> <r_mmod_Improper_Torsional_Energy-OPLS-2005>
9.71996116638184

> <r_mmod_Van_der_Waal_Energy-OPLS-2005>
155.493515014648

> <r_mmod_Electrostatic_Energy-OPLS-2005>
-973.699035644531

> <r_mmod_Solvation_Energy-OPLS-2005>
-207.911071777344

> <b_mmod_Minimization_Converged-OPLS-2005>
0

> <r_mmod_RMS_Derivative-OPLS-2005>
7.20668840408325

$$$$
13
                    3D
 Structure written by MMmdl.
164172  0  0  1  0            999 V2000
  -30.6535  -14.5295   20.5403 C   0  0  0  0  0  0
  -30.4364  -12.3354   19.4195 C   0  0  0  0  0  0
  -29.5003  -12.5000   18.2038 C   0  0  0  0  0  0
  -28.0191  -12.3598   18.6145 C   0  0  0  0  0  0
  -27.6588  -13.2048   19.8652 C   0  0  2  0  0  0
  -28.7037  -12.9972   20.9840 C   0  0  0  0  0  0
  -25.2590  -13.8139   20.5648 C   0  0  0  0  0  0
  -24.1840  -13.0417   20.9165 C   0  0  0  0  0  0
  -24.6403  -11.6893   20.8727 C   0  0  0  0  0  0
  -23.9059  -10.4273   21.0385 C   0  0  0  0  0  0
  -24.3612   -9.4195   21.9168 C   0  0  0  0  0  0
  -23.6284   -8.2227   22.0740 C   0  0  0  0  0  0
  -22.4264   -8.0270   21.3541 C   0  0  0  0  0  0
  -21.9907   -9.0236   20.4634 C   0  0  0  0  0  0
  -22.7233  -10.2114   20.3039 C   0  0  0  0  0  0
  -21.6856   -6.0726   22.5272 C   0  0  0  0  0  0
  -21.4009   -6.5632   23.8205 C   0  0  0  0  0  0
  -21.3651   -5.6790   24.9167 C   0  0  0  0  0  0
  -21.6045   -4.3052   24.7231 C   0  0  0  0  0  0
  -21.8827   -3.8143   23.4348 C   0  0  0  0  0  0
  -21.9197   -4.6946   22.3405 C   0  0  0  0  0  0
  -22.7870  -13.5217   21.1846 C   0  0  0  0  0  0
  -22.1670   -4.2137   21.0979 F   0  0  0  0  0  0
  -21.5627   -3.4537   25.7736 F   0  0  0  0  0  0
  -30.0262  -13.3261   20.4260 N   0  0  0  0  0  0
  -26.3008  -12.9315   20.3313 N   0  0  0  0  0  0
  -25.9327  -11.6479   20.5736 N   0  0  0  0  0  0
  -22.0527  -12.8188   22.0398 N   0  0  0  0  0  0
  -25.4322  -15.1863   20.4031 N   0  0  0  0  0  0
  -31.8039  -14.7261   20.1392 O   0  0  0  0  0  0
  -21.6639   -6.8864   21.4234 O   0  0  0  0  0  0
  -22.3539  -14.5520   20.6692 O   0  0  0  0  0  0
  -24.6198  -31.8676   23.2106 C   0  0  0  0  0  0
  -25.9088  -32.4811   23.8425 C   0  0  1  0  0  0
  -27.2306  -27.4058   20.0953 C   0  0  0  0  0  0
  -25.5959  -33.8611   24.2374 N   0  0  0  0  0  0
  -23.4084  -30.4903   21.5563 C   0  0  2  0  0  0
  -24.8517  -28.9583   20.1163 C   0  0  0  0  0  0
  -22.7440  -29.4638   22.5018 C   0  0  0  0  0  0
  -18.0277  -28.1366   22.8467 C   0  0  0  0  0  0
  -24.1489  -36.7276   23.2634 C   0  0  0  0  0  0
  -25.9422  -30.8249   21.3684 C   0  0  0  0  0  0
  -26.0174  -29.4601   20.7081 C   0  0  0  0  0  0
  -27.2094  -28.6934   20.6880 C   0  0  0  0  0  0
  -26.0388  -26.9311   19.4946 C   0  0  0  0  0  0
  -24.8604  -27.6976   19.5016 C   0  0  0  0  0  0
  -23.6150  -29.8250   20.1703 C   0  0  0  0  0  0
  -25.4108  -36.3100   24.0339 C   0  0  1  0  0  0
  -20.5864  -28.3665   23.1294 C   0  0  2  0  0  0
  -20.6786  -26.9400   22.5385 C   0  0  0  0  0  0
  -19.5768  -26.6368   21.5182 C   0  0  0  0  0  0
  -18.1943  -26.7910   22.1591 C   0  0  0  0  0  0
  -19.1522  -28.8828   23.2874 C   0  0  0  0  0  0
  -18.9444  -30.1442   23.8868 C   0  0  0  0  0  0
  -17.6443  -30.6567   24.0537 C   0  0  0  0  0  0
  -25.9037  -34.9459   23.5131 C   0  0  0  0  0  0
  -16.5333  -29.9041   23.6354 C   0  0  0  0  0  0
  -16.7263  -28.6470   23.0360 C   0  0  0  0  0  0
  -26.4511  -31.6567   25.0734 C   0  0  0  0  0  0
  -25.3754  -31.3568   26.1437 C   0  0  0  0  0  0
  -27.0389  -30.3046   24.6065 C   0  0  0  0  0  0
  -27.6124  -32.4264   25.7467 C   0  0  0  0  0  0
  -27.5574  -37.1787   24.8469 C   0  0  0  0  0  0
  -21.4168  -29.3031   22.3719 N   0  0  0  0  0  0
  -26.4294  -37.3780   23.9412 N   0  0  0  0  0  0
  -24.6754  -31.0740   22.1037 N   0  0  0  0  0  0
  -23.4190  -28.8187   23.3080 O   0  0  0  0  0  0
  -28.3953  -26.6501   20.1265 O   0  0  0  0  0  0
  -26.5551  -34.8902   22.4665 O   0  0  0  0  0  0
  -23.5380  -32.1450   23.7477 O   0  0  0  0  0  0
  -28.2878  -19.5743   21.6547 C   0  0  0  0  0  0
  -29.6281  -20.5017   19.8886 C   0  0  0  0  0  0
  -29.1448  -19.3475   20.5588 C   0  0  0  0  0  0
  -27.9487  -20.8919   22.0208 C   0  0  0  0  0  0
  -29.2237  -21.7938   20.3042 C   0  0  0  0  0  0
  -27.8441  -21.2816   24.5224 C   0  0  0  0  0  0
  -30.0953  -17.8276   18.7108 C   0  0  0  0  0  0
  -27.0488  -21.1464   23.2176 C   0  0  0  0  0  0
  -29.5779  -23.0164   19.4442 C   0  0  0  0  0  0
  -29.5821  -24.4323   20.0986 C   0  0  0  0  0  0
  -30.1500  -16.9836   21.1155 C   0  0  0  0  0  0
  -28.2800  -25.2355   19.8538 C   0  0  0  0  0  0
  -29.4045  -17.8944   20.0832 C   0  0  1  0  0  0
  -28.3986  -21.9808   21.3571 N   0  0  0  0  0  0
  -29.8609  -15.5372   20.9657 N   0  0  0  0  0  0
  -31.4762  -12.4629   19.1145 H   0  0  0  0  0  0
  -30.3641  -11.3274   19.8306 H   0  0  0  0  0  0
  -29.7445  -11.7647   17.4366 H   0  0  0  0  0  0
  -29.6612  -13.4787   17.7484 H   0  0  0  0  0  0
  -27.8279  -11.3039   18.8156 H   0  0  0  0  0  0
  -27.3711  -12.6296   17.7803 H   0  0  0  0  0  0
  -27.6962  -14.2491   19.5548 H   0  0  0  0  0  0
  -28.6946  -11.9598   21.3219 H   0  0  0  0  0  0
  -28.4635  -13.5936   21.8655 H   0  0  0  0  0  0
  -25.2763   -9.5667   22.4738 H   0  0  0  0  0  0
  -23.9996   -7.4622   22.7460 H   0  0  0  0  0  0
  -21.0844   -8.8758   19.8938 H   0  0  0  0  0  0
  -22.3700  -10.9649   19.6139 H   0  0  0  0  0  0
  -21.1999   -7.6145   23.9701 H   0  0  0  0  0  0
  -21.1464   -6.0521   25.9071 H   0  0  0  0  0  0
  -22.0616   -2.7604   23.2857 H   0  0  0  0  0  0
  -22.4164  -11.9845   22.4773 H   0  0  0  0  0  0
  -21.1138  -13.1175   22.2608 H   0  0  0  0  0  0
  -24.6614  -15.8397   20.4854 H   0  0  0  0  0  0
  -26.2820  -15.6195   20.0658 H   0  0  0  0  0  0
  -26.7131  -32.5514   23.1162 H   0  0  0  0  0  0
  -25.0268  -33.9794   25.0632 H   0  0  0  0  0  0
  -22.6993  -31.3075   21.4193 H   0  0  0  0  0  0
  -23.3758  -35.9599   23.3313 H   0  0  0  0  0  0
  -24.3568  -36.8882   22.2040 H   0  0  0  0  0  0
  -23.7241  -37.6482   23.6639 H   0  0  0  0  0  0
  -26.0592  -31.5918   20.6027 H   0  0  0  0  0  0
  -26.8284  -30.8746   21.9890 H   0  0  0  0  0  0
  -28.1139  -29.0769   21.1406 H   0  0  0  0  0  0
  -25.9869  -25.9666   19.0129 H   0  0  0  0  0  0
  -23.9626  -27.3095   19.0398 H   0  0  0  0  0  0
  -23.7186  -30.5983   19.4098 H   0  0  0  0  0  0
  -22.7396  -29.2422   19.8798 H   0  0  0  0  0  0
  -25.1289  -36.1951   25.0828 H   0  0  0  0  0  0
  -20.9941  -28.3223   24.1425 H   0  0  0  0  0  0
  -20.5737  -26.2257   23.3572 H   0  0  0  0  0  0
  -21.6660  -26.7494   22.1157 H   0  0  0  0  0  0
  -19.6951  -25.6278   21.1241 H   0  0  0  0  0  0
  -19.6722  -27.3136   20.6675 H   0  0  0  0  0  0
  -17.4241  -26.6646   21.3970 H   0  0  0  0  0  0
  -18.0340  -26.0042   22.8966 H   0  0  0  0  0  0
  -19.7914  -30.7258   24.2227 H   0  0  0  0  0  0
  -17.5004  -31.6258   24.5124 H   0  0  0  0  0  0
  -15.5331  -30.2927   23.7730 H   0  0  0  0  0  0
  -15.8660  -28.0775   22.7100 H   0  0  0  0  0  0
  -24.6002  -30.6882   25.7688 H   0  0  0  0  0  0
  -24.8837  -32.2648   26.4921 H   0  0  0  0  0  0
  -25.8100  -30.8695   27.0168 H   0  0  0  0  0  0
  -26.2947  -29.6750   24.1176 H   0  0  0  0  0  0
  -27.4290  -29.7320   25.4483 H   0  0  0  0  0  0
  -27.8715  -30.4440   23.9165 H   0  0  0  0  0  0
  -27.2846  -33.3617   26.2004 H   0  0  0  0  0  0
  -28.3935  -32.6710   25.0258 H   0  0  0  0  0  0
  -28.0787  -31.8394   26.5391 H   0  0  0  0  0  0
  -28.2580  -38.0105   24.7583 H   0  0  0  0  0  0
  -28.1111  -36.2640   24.6267 H   0  0  0  0  0  0
  -27.2280  -37.1372   25.8870 H   0  0  0  0  0  0
  -20.9361  -29.8723   21.6883 H   0  0  0  0  0  0
  -26.0181  -38.2860   24.1416 H   0  0  0  0  0  0
  -27.8644  -18.7400   22.1982 H   0  0  0  0  0  0
  -30.2548  -20.4158   19.0127 H   0  0  0  0  0  0
  -27.1795  -21.4272   25.3738 H   0  0  0  0  0  0
  -28.5224  -22.1324   24.4812 H   0  0  0  0  0  0
  -28.4360  -20.3844   24.7125 H   0  0  0  0  0  0
  -29.5344  -18.3814   17.9564 H   0  0  0  0  0  0
  -30.1861  -16.7995   18.3625 H   0  0  0  0  0  0
  -31.1028  -18.2460   18.7553 H   0  0  0  0  0  0
  -26.3279  -20.3334   23.3030 H   0  0  0  0  0  0
  -26.4649  -22.0523   23.0503 H   0  0  0  0  0  0
  -28.9295  -23.0078   18.5681 H   0  0  0  0  0  0
  -30.5785  -22.8374   19.0513 H   0  0  0  0  0  0
  -30.3841  -24.9989   19.6244 H   0  0  0  0  0  0
  -29.8384  -24.3828   21.1573 H   0  0  0  0  0  0
  -29.8248  -17.2493   22.1213 H   0  0  0  0  0  0
  -31.2225  -17.1818   21.0915 H   0  0  0  0  0  0
  -27.4868  -24.7942   20.4604 H   0  0  0  0  0  0
  -27.9997  -25.1149   18.8069 H   0  0  0  0  0  0
  -28.4034  -17.4821   19.9440 H   0  0  0  0  0  0
  -28.9247  -15.2561   21.2157 H   0  0  0  0  0  0
  1 25  1  0  0  0
  1 30  2  0  0  0
  1 85  1  0  0  0
  2  3  1  0  0  0
  2 25  1  0  0  0
  2 86  1  0  0  0
  2 87  1  0  0  0
  3  4  1  0  0  0
  3 88  1  0  0  0
  3 89  1  0  0  0
  4  5  1  0  0  0
  4 90  1  0  0  0
  4 91  1  0  0  0
  5  6  1  0  0  0
  5 26  1  0  0  0
  5 92  1  0  0  0
  6 25  1  0  0  0
  6 93  1  0  0  0
  6 94  1  0  0  0
  7  8  2  0  0  0
  7 26  1  0  0  0
  7 29  1  0  0  0
  8  9  1  0  0  0
  8 22  1  0  0  0
  9 10  1  0  0  0
  9 27  2  0  0  0
 10 11  2  0  0  0
 10 15  1  0  0  0
 11 12  1  0  0  0
 11 95  1  0  0  0
 12 13  2  0  0  0
 12 96  1  0  0  0
 13 14  1  0  0  0
 13 31  1  0  0  0
 14 15  2  0  0  0
 14 97  1  0  0  0
 15 98  1  0  0  0
 16 17  2  0  0  0
 16 21  1  0  0  0
 16 31  1  0  0  0
 17 18  1  0  0  0
 17 99  1  0  0  0
 18 19  2  0  0  0
 18100  1  0  0  0
 19 20  1  0  0  0
 19 24  1  0  0  0
 20 21  2  0  0  0
 20101  1  0  0  0
 21 23  1  0  0  0
 22 28  1  0  0  0
 22 32  2  0  0  0
 26 27  1  0  0  0
 28102  1  0  0  0
 28103  1  0  0  0
 29104  1  0  0  0
 29105  1  0  0  0
 33 34  1  0  0  0
 33 66  1  0  0  0
 33 70  2  0  0  0
 34 36  1  0  0  0
 34 59  1  0  0  0
 34106  1  0  0  0
 35 44  2  0  0  0
 35 45  1  0  0  0
 35 68  1  0  0  0
 36 56  1  0  0  0
 36107  1  0  0  0
 37 39  1  0  0  0
 37 47  1  0  0  0
 37 66  1  0  0  0
 37108  1  0  0  0
 38 43  2  0  0  0
 38 46  1  0  0  0
 38 47  1  0  0  0
 39 64  1  0  0  0
 39 67  2  0  0  0
 40 52  1  0  0  0
 40 53  2  0  0  0
 40 58  1  0  0  0
 41109  1  0  0  0
 41110  1  0  0  0
 41111  1  0  0  0
 41 48  1  0  0  0
 42 43  1  0  0  0
 42 66  1  0  0  0
 42112  1  0  0  0
 42113  1  0  0  0
 43 44  1  0  0  0
 44114  1  0  0  0
 45 46  2  0  0  0
 45115  1  0  0  0
 46116  1  0  0  0
 47117  1  0  0  0
 47118  1  0  0  0
 48 56  1  0  0  0
 48 65  1  0  0  0
 48119  1  0  0  0
 49 50  1  0  0  0
 49 53  1  0  0  0
 49 64  1  0  0  0
 49120  1  0  0  0
 50 51  1  0  0  0
 50121  1  0  0  0
 50122  1  0  0  0
 51 52  1  0  0  0
 51123  1  0  0  0
 51124  1  0  0  0
 52125  1  0  0  0
 52126  1  0  0  0
 53 54  1  0  0  0
 54 55  2  0  0  0
 54127  1  0  0  0
 55 57  1  0  0  0
 55128  1  0  0  0
 56 69  2  0  0  0
 57 58  2  0  0  0
 57129  1  0  0  0
 58130  1  0  0  0
 59 60  1  0  0  0
 59 61  1  0  0  0
 59 62  1  0  0  0
 60131  1  0  0  0
 60132  1  0  0  0
 60133  1  0  0  0
 61134  1  0  0  0
 61135  1  0  0  0
 61136  1  0  0  0
 62137  1  0  0  0
 62138  1  0  0  0
 62139  1  0  0  0
 63 65  1  0  0  0
 63140  1  0  0  0
 63141  1  0  0  0
 63142  1  0  0  0
 64143  1  0  0  0
 65144  1  0  0  0
 68 82  1  0  0  0
 71 73  2  0  0  0
 71 74  1  0  0  0
 71145  1  0  0  0
 72 73  1  0  0  0
 72 75  2  0  0  0
 72146  1  0  0  0
 73 83  1  0  0  0
 74 78  1  0  0  0
 74 84  2  0  0  0
 75 79  1  0  0  0
 75 84  1  0  0  0
 76 78  1  0  0  0
 76147  1  0  0  0
 76148  1  0  0  0
 76149  1  0  0  0
 77150  1  0  0  0
 77151  1  0  0  0
 77152  1  0  0  0
 77 83  1  0  0  0
 78153  1  0  0  0
 78154  1  0  0  0
 79 80  1  0  0  0
 79155  1  0  0  0
 79156  1  0  0  0
 80 82  1  0  0  0
 80157  1  0  0  0
 80158  1  0  0  0
 81 83  1  0  0  0
 81 85  1  0  0  0
 81159  1  0  0  0
 81160  1  0  0  0
 82161  1  0  0  0
 82162  1  0  0  0
 83163  1  0  0  0
 85164  1  0  0  0
M  ISO  4   1 100  68 101  82 101  85 100
M  END
> <chiral flag>
0

> <version>
0

> <s_m_source_file>
/data/baiqing/PycharmProjects/Reinvent-master-3.2/result/LINK_invent/BTK/process_docking_weight1_custom_sum_contain_oxygen_bond_distance_aromatic_linkinvent_7_9_3/rearranged_h_0082.sdf

> <i_m_source_file_index>
14

> <r_mmod_Potential_Energy-OPLS-2005>
-261.313293457031

> <r_mmod_Stretch_Energy-OPLS-2005>
43.5787620544434

> <r_mmod_Bend_Energy-OPLS-2005>
106.398559570312

> <r_mmod_Torsional_Energy-OPLS-2005>
210.563659667969

> <r_mmod_Improper_Torsional_Energy-OPLS-2005>
4.7551736831665

> <r_mmod_Van_der_Waal_Energy-OPLS-2005>
152.780044555664

> <r_mmod_Electrostatic_Energy-OPLS-2005>
-582.13671875

> <r_mmod_Solvation_Energy-OPLS-2005>
-217.482467651367

> <b_mmod_Minimization_Converged-OPLS-2005>
0

> <r_mmod_RMS_Derivative-OPLS-2005>
3.18853521347046

$$$$
14
                    3D
 Structure written by MMmdl.
162170  0  0  1  0            999 V2000
  -30.5338  -14.9944   20.3641 C   0  0  0  0  0  0
  -30.4610  -12.5917   19.5068 C   0  0  0  0  0  0
  -29.5339  -12.4610   18.2703 C   0  0  0  0  0  0
  -28.0657  -12.2387   18.6910 C   0  0  0  0  0  0
  -27.6269  -13.2034   19.8137 C   0  0  2  0  0  0
  -28.6825  -13.2743   20.9472 C   0  0  0  0  0  0
  -25.2324  -13.7970   20.5589 C   0  0  0  0  0  0
  -24.1718  -13.0187   20.9255 C   0  0  0  0  0  0
  -24.6398  -11.6739   20.8853 C   0  0  0  0  0  0
  -23.9082  -10.4130   21.0511 C   0  0  0  0  0  0
  -24.3620   -9.4050   21.9296 C   0  0  0  0  0  0
  -23.6268   -8.2109   22.0832 C   0  0  0  0  0  0
  -22.4254   -8.0199   21.3598 C   0  0  0  0  0  0
  -21.9908   -9.0159   20.4698 C   0  0  0  0  0  0
  -22.7267  -10.2006   20.3131 C   0  0  0  0  0  0
  -21.6788   -6.0697   22.5299 C   0  0  0  0  0  0
  -21.3951   -6.5630   23.8216 C   0  0  0  0  0  0
  -21.3695   -5.6820   24.9205 C   0  0  0  0  0  0
  -21.6085   -4.3076   24.7277 C   0  0  0  0  0  0
  -21.8827   -3.8129   23.4399 C   0  0  0  0  0  0
  -21.9158   -4.6930   22.3433 C   0  0  0  0  0  0
  -22.7758  -13.5010   21.1899 C   0  0  0  0  0  0
  -22.1630   -4.2110   21.1014 F   0  0  0  0  0  0
  -21.5680   -3.4582   25.7802 F   0  0  0  0  0  0
  -29.9612  -13.7109   20.3644 N   0  0  0  0  0  0
  -26.2847  -12.9213   20.3168 N   0  0  0  0  0  0
  -25.9328  -11.6379   20.5865 N   0  0  0  0  0  0
  -22.0435  -12.8013   22.0489 N   0  0  0  0  0  0
  -25.3396  -15.1687   20.3872 N   0  0  0  0  0  0
  -31.7570  -15.0149   20.1775 O   0  0  0  0  0  0
  -21.6590   -6.8822   21.4259 O   0  0  0  0  0  0
  -22.3410  -14.5307   20.6768 O   0  0  0  0  0  0
  -24.6442  -31.8478   23.1914 C   0  0  0  0  0  0
  -25.9221  -32.4713   23.8312 C   0  0  1  0  0  0
  -27.2342  -27.1572   20.1276 C   0  0  0  0  0  0
  -25.6013  -33.8532   24.2236 N   0  0  0  0  0  0
  -23.4470  -30.4618   21.5405 C   0  0  2  0  0  0
  -24.8992  -28.8940   20.1092 C   0  0  0  0  0  0
  -22.7574  -29.4536   22.4930 C   0  0  0  0  0  0
  -18.0284  -28.1341   22.8464 C   0  0  0  0  0  0
  -24.1485  -36.7228   23.2648 C   0  0  0  0  0  0
  -26.0055  -30.7183   21.3944 C   0  0  0  0  0  0
  -26.0765  -29.3356   20.7264 C   0  0  0  0  0  0
  -27.2429  -28.4825   20.7203 C   0  0  0  0  0  0
  -26.0338  -26.8250   19.4569 C   0  0  0  0  0  0
  -24.8897  -27.6503   19.4646 C   0  0  0  0  0  0
  -23.6685  -29.7862   20.1624 C   0  0  0  0  0  0
  -25.4135  -36.3046   24.0319 C   0  0  1  0  0  0
  -20.5903  -28.3670   23.1241 C   0  0  2  0  0  0
  -20.6766  -26.9369   22.5412 C   0  0  0  0  0  0
  -19.5756  -26.6333   21.5194 C   0  0  0  0  0  0
  -18.1920  -26.7890   22.1581 C   0  0  0  0  0  0
  -19.1545  -28.8825   23.2833 C   0  0  0  0  0  0
  -18.9461  -30.1420   23.8847 C   0  0  0  0  0  0
  -17.6459  -30.6548   24.0522 C   0  0  0  0  0  0
  -25.9089  -34.9417   23.5072 C   0  0  0  0  0  0
  -16.5351  -29.9014   23.6339 C   0  0  0  0  0  0
  -16.7272  -28.6429   23.0382 C   0  0  0  0  0  0
  -26.4546  -31.6597   25.0757 C   0  0  0  0  0  0
  -25.3700  -31.3798   26.1424 C   0  0  0  0  0  0
  -27.0431  -30.3001   24.6365 C   0  0  0  0  0  0
  -27.6114  -32.4361   25.7494 C   0  0  0  0  0  0
  -27.5580  -37.1759   24.8469 C   0  0  0  0  0  0
  -21.4269  -29.3010   22.3645 N   0  0  0  0  0  0
  -26.4301  -37.3752   23.9405 N   0  0  0  0  0  0
  -24.7176  -31.0307   22.0959 N   0  0  0  0  0  0
  -23.4200  -28.8086   23.3093 O   0  0  0  0  0  0
  -28.2924  -26.1769   20.2039 O   0  0  0  0  0  0
  -26.5637  -34.8895   22.4621 O   0  0  0  0  0  0
  -23.5561  -32.1378   23.7123 O   0  0  0  0  0  0
  -31.2762  -19.5419   22.2137 C   0  0  0  0  0  0
  -30.6810  -20.6628   21.5949 C   0  0  0  0  0  0
  -30.9760  -18.2172   21.8104 C   0  0  0  0  0  0
  -29.7411  -20.4843   20.5682 C   0  0  0  0  0  0
  -30.1863  -17.9880   20.6571 C   0  0  0  0  0  0
  -31.4135  -17.0755   22.7214 C   0  0  0  0  0  0
  -27.0530  -24.3949   21.3758 C   0  0  0  0  0  0
  -29.3954  -16.5228   18.7118 C   0  0  0  0  0  0
  -28.3796  -16.4027   21.0434 C   0  0  0  0  0  0
  -28.8044  -21.7566   20.1117 C   0  0  0  0  0  0
  -29.1576  -23.4026   20.2456 C   0  0  0  0  0  0
  -28.0143  -24.6408   20.1945 C   0  0  2  0  0  0
  -29.6835  -16.4645   20.2369 C   0  0  0  0  0  0
  -29.5512  -19.1528   20.1177 N   0  0  0  0  0  0
  -31.4869  -12.7496   19.1722 H   0  0  0  0  0  0
  -30.4786  -11.6537   20.0664 H   0  0  0  0  0  0
  -29.8628  -11.6217   17.6565 H   0  0  0  0  0  0
  -29.6199  -13.3440   17.6394 H   0  0  0  0  0  0
  -27.9781  -11.2088   19.0393 H   0  0  0  0  0  0
  -27.3945  -12.3241   17.8369 H   0  0  0  0  0  0
  -27.5578  -14.1524   19.2921 H   0  0  0  0  0  0
  -28.8058  -12.3093   21.4410 H   0  0  0  0  0  0
  -28.3611  -13.9465   21.7369 H   0  0  0  0  0  0
  -25.2762   -9.5477   22.4890 H   0  0  0  0  0  0
  -23.9956   -7.4479   22.7547 H   0  0  0  0  0  0
  -21.0853   -8.8647   19.8992 H   0  0  0  0  0  0
  -22.3760  -10.9540   19.6231 H   0  0  0  0  0  0
  -21.1858   -7.6130   23.9679 H   0  0  0  0  0  0
  -21.1572   -6.0583   25.9109 H   0  0  0  0  0  0
  -22.0577   -2.7584   23.2920 H   0  0  0  0  0  0
  -22.4035  -11.9638   22.4802 H   0  0  0  0  0  0
  -21.1121  -13.1155   22.2828 H   0  0  0  0  0  0
  -24.5534  -15.7858   20.5682 H   0  0  0  0  0  0
  -26.1610  -15.6526   20.0546 H   0  0  0  0  0  0
  -26.7285  -32.5293   23.1037 H   0  0  0  0  0  0
  -25.0274  -33.9705   25.0462 H   0  0  0  0  0  0
  -22.7474  -31.2861   21.3852 H   0  0  0  0  0  0
  -23.3789  -35.9508   23.3295 H   0  0  0  0  0  0
  -24.3592  -36.8889   22.2068 H   0  0  0  0  0  0
  -23.7166  -37.6388   23.6702 H   0  0  0  0  0  0
  -26.1761  -31.4753   20.6270 H   0  0  0  0  0  0
  -26.8709  -30.7584   22.0459 H   0  0  0  0  0  0
  -28.1355  -28.8156   21.2299 H   0  0  0  0  0  0
  -25.9377  -25.8807   18.9446 H   0  0  0  0  0  0
  -23.9941  -27.3025   18.9712 H   0  0  0  0  0  0
  -23.7814  -30.5558   19.3988 H   0  0  0  0  0  0
  -22.7869  -29.2145   19.8684 H   0  0  0  0  0  0
  -25.1300  -36.1909   25.0811 H   0  0  0  0  0  0
  -20.9963  -28.3220   24.1371 H   0  0  0  0  0  0
  -20.5607  -26.2272   23.3622 H   0  0  0  0  0  0
  -21.6638  -26.7341   22.1236 H   0  0  0  0  0  0
  -19.6925  -25.6232   21.1234 H   0  0  0  0  0  0
  -19.6715  -27.3117   20.6703 H   0  0  0  0  0  0
  -17.4218  -26.6658   21.3954 H   0  0  0  0  0  0
  -18.0288  -26.0014   22.8951 H   0  0  0  0  0  0
  -19.7948  -30.7237   24.2210 H   0  0  0  0  0  0
  -17.5010  -31.6237   24.5097 H   0  0  0  0  0  0
  -15.5343  -30.2880   23.7711 H   0  0  0  0  0  0
  -15.8673  -28.0698   22.7177 H   0  0  0  0  0  0
  -24.5921  -30.7111   25.7717 H   0  0  0  0  0  0
  -24.8807  -32.2956   26.4746 H   0  0  0  0  0  0
  -25.7929  -30.9041   27.0276 H   0  0  0  0  0  0
  -26.3064  -29.6698   24.1363 H   0  0  0  0  0  0
  -27.4040  -29.7349   25.4971 H   0  0  0  0  0  0
  -27.8969  -30.4265   23.9700 H   0  0  0  0  0  0
  -27.2812  -33.3756   26.1937 H   0  0  0  0  0  0
  -28.3954  -32.6779   25.0301 H   0  0  0  0  0  0
  -28.0733  -31.8557   26.5493 H   0  0  0  0  0  0
  -28.2601  -38.0057   24.7545 H   0  0  0  0  0  0
  -28.1069  -36.2591   24.6256 H   0  0  0  0  0  0
  -27.2301  -37.1353   25.8874 H   0  0  0  0  0  0
  -20.9499  -29.8737   21.6828 H   0  0  0  0  0  0
  -26.0179  -38.2823   24.1418 H   0  0  0  0  0  0
  -31.9179  -19.7037   23.0685 H   0  0  0  0  0  0
  -30.8890  -21.6495   21.9862 H   0  0  0  0  0  0
  -31.4946  -17.4136   23.7559 H   0  0  0  0  0  0
  -32.3687  -16.6533   22.4135 H   0  0  0  0  0  0
  -30.6733  -16.2786   22.7508 H   0  0  0  0  0  0
  -26.7126  -23.3617   21.4091 H   0  0  0  0  0  0
  -26.1510  -25.0033   21.3268 H   0  0  0  0  0  0
  -27.5476  -24.6211   22.3201 H   0  0  0  0  0  0
  -28.9803  -15.5940   18.3253 H   0  0  0  0  0  0
  -30.3115  -16.7139   18.1532 H   0  0  0  0  0  0
  -28.6893  -17.3058   18.4459 H   0  0  0  0  0  0
  -27.8740  -17.3687   21.0723 H   0  0  0  0  0  0
  -28.5351  -16.1095   22.0813 H   0  0  0  0  0  0
  -27.6857  -15.7303   20.5869 H   0  0  0  0  0  0
  -27.8972  -21.5931   20.6929 H   0  0  0  0  0  0
  -28.4931  -21.5692   19.0847 H   0  0  0  0  0  0
  -29.8936  -23.6222   19.4719 H   0  0  0  0  0  0
  -29.6980  -23.5214   21.1830 H   0  0  0  0  0  0
  -27.4661  -24.4488   19.2749 H   0  0  0  0  0  0
  1 25  1  0  0  0
  1 30  2  0  0  0
  1 83  1  0  0  0
  2  3  1  0  0  0
  2 25  1  0  0  0
  2 85  1  0  0  0
  2 86  1  0  0  0
  3  4  1  0  0  0
  3 87  1  0  0  0
  3 88  1  0  0  0
  4  5  1  0  0  0
  4 89  1  0  0  0
  4 90  1  0  0  0
  5  6  1  0  0  0
  5 26  1  0  0  0
  5 91  1  0  0  0
  6 25  1  0  0  0
  6 92  1  0  0  0
  6 93  1  0  0  0
  7  8  2  0  0  0
  7 26  1  0  0  0
  7 29  1  0  0  0
  8  9  1  0  0  0
  8 22  1  0  0  0
  9 10  1  0  0  0
  9 27  2  0  0  0
 10 11  2  0  0  0
 10 15  1  0  0  0
 11 12  1  0  0  0
 11 94  1  0  0  0
 12 13  2  0  0  0
 12 95  1  0  0  0
 13 14  1  0  0  0
 13 31  1  0  0  0
 14 15  2  0  0  0
 14 96  1  0  0  0
 15 97  1  0  0  0
 16 17  2  0  0  0
 16 21  1  0  0  0
 16 31  1  0  0  0
 17 18  1  0  0  0
 17 98  1  0  0  0
 18 19  2  0  0  0
 18 99  1  0  0  0
 19 20  1  0  0  0
 19 24  1  0  0  0
 20 21  2  0  0  0
 20100  1  0  0  0
 21 23  1  0  0  0
 22 28  1  0  0  0
 22 32  2  0  0  0
 26 27  1  0  0  0
 28101  1  0  0  0
 28102  1  0  0  0
 29103  1  0  0  0
 29104  1  0  0  0
 33 34  1  0  0  0
 33 66  1  0  0  0
 33 70  2  0  0  0
 34 36  1  0  0  0
 34 59  1  0  0  0
 34105  1  0  0  0
 35 44  2  0  0  0
 35 45  1  0  0  0
 35 68  1  0  0  0
 36 56  1  0  0  0
 36106  1  0  0  0
 37 39  1  0  0  0
 37 47  1  0  0  0
 37 66  1  0  0  0
 37107  1  0  0  0
 38 43  2  0  0  0
 38 46  1  0  0  0
 38 47  1  0  0  0
 39 64  1  0  0  0
 39 67  2  0  0  0
 40 52  1  0  0  0
 40 53  2  0  0  0
 40 58  1  0  0  0
 41108  1  0  0  0
 41109  1  0  0  0
 41110  1  0  0  0
 41 48  1  0  0  0
 42 43  1  0  0  0
 42 66  1  0  0  0
 42111  1  0  0  0
 42112  1  0  0  0
 43 44  1  0  0  0
 44113  1  0  0  0
 45 46  2  0  0  0
 45114  1  0  0  0
 46115  1  0  0  0
 47116  1  0  0  0
 47117  1  0  0  0
 48 56  1  0  0  0
 48 65  1  0  0  0
 48118  1  0  0  0
 49 50  1  0  0  0
 49 53  1  0  0  0
 49 64  1  0  0  0
 49119  1  0  0  0
 50 51  1  0  0  0
 50120  1  0  0  0
 50121  1  0  0  0
 51 52  1  0  0  0
 51122  1  0  0  0
 51123  1  0  0  0
 52124  1  0  0  0
 52125  1  0  0  0
 53 54  1  0  0  0
 54 55  2  0  0  0
 54126  1  0  0  0
 55 57  1  0  0  0
 55127  1  0  0  0
 56 69  2  0  0  0
 57 58  2  0  0  0
 57128  1  0  0  0
 58129  1  0  0  0
 59 60  1  0  0  0
 59 61  1  0  0  0
 59 62  1  0  0  0
 60130  1  0  0  0
 60131  1  0  0  0
 60132  1  0  0  0
 61133  1  0  0  0
 61134  1  0  0  0
 61135  1  0  0  0
 62136  1  0  0  0
 62137  1  0  0  0
 62138  1  0  0  0
 63 65  1  0  0  0
 63139  1  0  0  0
 63140  1  0  0  0
 63141  1  0  0  0
 64142  1  0  0  0
 65143  1  0  0  0
 68 82  1  0  0  0
 71 72  2  0  0  0
 71 73  1  0  0  0
 71144  1  0  0  0
 72 74  1  0  0  0
 72145  1  0  0  0
 73 75  2  0  0  0
 73 76  1  0  0  0
 74 80  1  0  0  0
 74 84  2  0  0  0
 75 83  1  0  0  0
 75 84  1  0  0  0
 76146  1  0  0  0
 76147  1  0  0  0
 76148  1  0  0  0
 77149  1  0  0  0
 77150  1  0  0  0
 77151  1  0  0  0
 77 82  1  0  0  0
 78152  1  0  0  0
 78153  1  0  0  0
 78154  1  0  0  0
 78 83  1  0  0  0
 79 83  1  0  0  0
 79155  1  0  0  0
 79156  1  0  0  0
 79157  1  0  0  0
 80 81  1  0  0  0
 80158  1  0  0  0
 80159  1  0  0  0
 81 82  1  0  0  0
 81160  1  0  0  0
 81161  1  0  0  0
 82162  1  0  0  0
M  ISO  4   1 100  68 101  82 101  83 100
M  END
> <chiral flag>
0

> <version>
0

> <s_m_source_file>
/data/baiqing/PycharmProjects/Reinvent-master-3.2/result/LINK_invent/BTK/process_docking_weight1_custom_sum_contain_oxygen_bond_distance_aromatic_linkinvent_7_9_3/rearranged_h_0082.sdf

> <i_m_source_file_index>
15

> <r_mmod_Potential_Energy-OPLS-2005>
508.249633789062

> <r_mmod_Stretch_Energy-OPLS-2005>
282.806488037109

> <r_mmod_Bend_Energy-OPLS-2005>
282.004150390625

> <r_mmod_Torsional_Energy-OPLS-2005>
221.02604675293

> <r_mmod_Improper_Torsional_Energy-OPLS-2005>
11.8184957504272

> <r_mmod_Van_der_Waal_Energy-OPLS-2005>
155.206665039062

> <r_mmod_Electrostatic_Energy-OPLS-2005>
-450.516143798828

> <r_mmod_Solvation_Energy-OPLS-2005>
-196.501480102539

> <b_mmod_Minimization_Converged-OPLS-2005>
0

> <r_mmod_RMS_Derivative-OPLS-2005>
5.52203845977783

$$$$
15
                    3D
 Structure written by MMmdl.
164172  0  0  1  0            999 V2000
  -30.6180  -14.7390   20.5058 C   0  0  0  0  0  0
  -30.4494  -12.4664   19.4646 C   0  0  0  0  0  0
  -29.5139  -12.5217   18.2356 C   0  0  0  0  0  0
  -28.0392  -12.3370   18.6435 C   0  0  0  0  0  0
  -27.6486  -13.2231   19.8551 C   0  0  2  0  0  0
  -28.6957  -13.1335   20.9868 C   0  0  0  0  0  0
  -25.2541  -13.8179   20.5648 C   0  0  0  0  0  0
  -24.1808  -13.0423   20.9178 C   0  0  0  0  0  0
  -24.6371  -11.6895   20.8703 C   0  0  0  0  0  0
  -23.9037  -10.4278   21.0382 C   0  0  0  0  0  0
  -24.3592   -9.4223   21.9184 C   0  0  0  0  0  0
  -23.6260   -8.2249   22.0754 C   0  0  0  0  0  0
  -22.4249   -8.0281   21.3537 C   0  0  0  0  0  0
  -21.9884   -9.0240   20.4646 C   0  0  0  0  0  0
  -22.7194  -10.2121   20.3055 C   0  0  0  0  0  0
  -21.6843   -6.0745   22.5267 C   0  0  0  0  0  0
  -21.4009   -6.5644   23.8211 C   0  0  0  0  0  0
  -21.3667   -5.6784   24.9170 C   0  0  0  0  0  0
  -21.6052   -4.3047   24.7207 C   0  0  0  0  0  0
  -21.8825   -3.8146   23.4327 C   0  0  0  0  0  0
  -21.9181   -4.6968   22.3392 C   0  0  0  0  0  0
  -22.7855  -13.5273   21.1789 C   0  0  0  0  0  0
  -22.1648   -4.2167   21.0961 F   0  0  0  0  0  0
  -21.5657   -3.4531   25.7725 F   0  0  0  0  0  0
  -29.9967  -13.5109   20.4111 N   0  0  0  0  0  0
  -26.2961  -12.9341   20.3267 N   0  0  0  0  0  0
  -25.9311  -11.6498   20.5731 N   0  0  0  0  0  0
  -22.0440  -12.8329   22.0393 N   0  0  0  0  0  0
  -25.4221  -15.1886   20.4043 N   0  0  0  0  0  0
  -31.8048  -14.8640   20.1965 O   0  0  0  0  0  0
  -21.6621   -6.8871   21.4226 O   0  0  0  0  0  0
  -22.3557  -14.5532   20.6581 O   0  0  0  0  0  0
  -24.6364  -31.8558   23.1993 C   0  0  0  0  0  0
  -25.9194  -32.4764   23.8372 C   0  0  1  0  0  0
  -27.2277  -27.2607   20.1356 C   0  0  0  0  0  0
  -25.6043  -33.8585   24.2282 N   0  0  0  0  0  0
  -23.4366  -30.4796   21.5380 C   0  0  2  0  0  0
  -24.8884  -28.9368   20.0993 C   0  0  0  0  0  0
  -22.7496  -29.4604   22.4834 C   0  0  0  0  0  0
  -18.0317  -28.1401   22.8506 C   0  0  0  0  0  0
  -24.1504  -36.7260   23.2626 C   0  0  0  0  0  0
  -25.9861  -30.7663   21.3877 C   0  0  0  0  0  0
  -26.0558  -29.3912   20.7261 C   0  0  0  0  0  0
  -27.2279  -28.5677   20.7319 C   0  0  0  0  0  0
  -26.0444  -26.8863   19.4588 C   0  0  0  0  0  0
  -24.8924  -27.6980   19.4442 C   0  0  0  0  0  0
  -23.6593  -29.8254   20.1495 C   0  0  0  0  0  0
  -25.4133  -36.3066   24.0299 C   0  0  1  0  0  0
  -20.5928  -28.3715   23.1260 C   0  0  2  0  0  0
  -20.6815  -26.9403   22.5415 C   0  0  0  0  0  0
  -19.5777  -26.6374   21.5241 C   0  0  0  0  0  0
  -18.1957  -26.7963   22.1618 C   0  0  0  0  0  0
  -19.1577  -28.8869   23.2910 C   0  0  0  0  0  0
  -18.9468  -30.1483   23.8900 C   0  0  0  0  0  0
  -17.6457  -30.6584   24.0589 C   0  0  0  0  0  0
  -25.9049  -34.9447   23.5037 C   0  0  0  0  0  0
  -16.5354  -29.9060   23.6382 C   0  0  0  0  0  0
  -16.7302  -28.6512   23.0359 C   0  0  0  0  0  0
  -26.4557  -31.6609   25.0770 C   0  0  0  0  0  0
  -25.3773  -31.3806   26.1470 C   0  0  0  0  0  0
  -27.0431  -30.3019   24.6307 C   0  0  0  0  0  0
  -27.6110  -32.4312   25.7588 C   0  0  0  0  0  0
  -27.5557  -37.1777   24.8456 C   0  0  0  0  0  0
  -21.4188  -29.3078   22.3589 N   0  0  0  0  0  0
  -26.4294  -37.3753   23.9380 N   0  0  0  0  0  0
  -24.7044  -31.0493   22.0992 N   0  0  0  0  0  0
  -23.4168  -28.8127   23.2932 O   0  0  0  0  0  0
  -28.3026  -26.3407   20.2342 O   0  0  0  0  0  0
  -26.5526  -34.8898   22.4547 O   0  0  0  0  0  0
  -23.5483  -32.1435   23.7208 O   0  0  0  0  0  0
  -27.0291  -20.6599   19.1123 C   0  0  0  0  0  0
  -27.4040  -21.9449   19.5227 C   0  0  0  0  0  0
  -27.8837  -19.5646   19.3287 C   0  0  0  0  0  0
  -28.6273  -22.1602   20.1820 C   0  0  0  0  0  0
  -29.1184  -19.7579   20.0007 C   0  0  0  0  0  0
  -27.4517  -18.2116   18.7703 C   0  0  0  0  0  0
  -31.5841  -19.0355   19.8794 C   0  0  0  0  0  0
  -30.4398  -23.9990   20.1948 C   0  0  0  0  0  0
  -28.9072  -23.7559   22.1572 C   0  0  0  0  0  0
  -30.1057  -17.3140   21.1309 C   0  0  0  0  0  0
  -28.0124  -24.8626   20.0975 C   0  0  0  0  0  0
  -30.1494  -18.5142   20.0375 C   0  0  1  0  0  0
  -28.9948  -23.6701   20.6262 C   0  0  0  0  0  0
  -29.4448  -21.0488   20.4414 N   0  0  0  0  0  0
  -29.8250  -15.8439   20.7684 N   0  0  0  0  0  0
  -31.4779  -12.6273   19.1336 H   0  0  0  0  0  0
  -30.4372  -11.4838   19.9404 H   0  0  0  0  0  0
  -29.8086  -11.7634   17.5081 H   0  0  0  0  0  0
  -29.6274  -13.4900   17.7430 H   0  0  0  0  0  0
  -27.8964  -11.2821   18.8899 H   0  0  0  0  0  0
  -27.3799  -12.5499   17.7997 H   0  0  0  0  0  0
  -27.6497  -14.2496   19.4868 H   0  0  0  0  0  0
  -28.7326  -12.1201   21.3901 H   0  0  0  0  0  0
  -28.4204  -13.7897   21.8144 H   0  0  0  0  0  0
  -25.2715   -9.5739   22.4792 H   0  0  0  0  0  0
  -24.0000   -7.4663   22.7476 H   0  0  0  0  0  0
  -21.0846   -8.8721   19.8933 H   0  0  0  0  0  0
  -22.3618  -10.9674   19.6200 H   0  0  0  0  0  0
  -21.1988   -7.6150   23.9724 H   0  0  0  0  0  0
  -21.1494   -6.0512   25.9083 H   0  0  0  0  0  0
  -22.0593   -2.7612   23.2797 H   0  0  0  0  0  0
  -22.3976  -12.0017   22.4882 H   0  0  0  0  0  0
  -21.1044  -13.1400   22.2426 H   0  0  0  0  0  0
  -24.6562  -15.8427   20.5268 H   0  0  0  0  0  0
  -26.2676  -15.6228   20.0584 H   0  0  0  0  0  0
  -26.7274  -32.5372   23.1133 H   0  0  0  0  0  0
  -25.0617  -33.9802   25.0704 H   0  0  0  0  0  0
  -22.7390  -31.3068   21.3932 H   0  0  0  0  0  0
  -23.3765  -35.9586   23.3307 H   0  0  0  0  0  0
  -24.3656  -36.8847   22.2040 H   0  0  0  0  0  0
  -23.7236  -37.6445   23.6666 H   0  0  0  0  0  0
  -26.1313  -31.5202   20.6108 H   0  0  0  0  0  0
  -26.8629  -30.8112   22.0258 H   0  0  0  0  0  0
  -28.1102  -28.9123   21.2524 H   0  0  0  0  0  0
  -25.9704  -25.9458   18.9349 H   0  0  0  0  0  0
  -24.0177  -27.3539   18.9146 H   0  0  0  0  0  0
  -23.7846  -30.6142   19.4046 H   0  0  0  0  0  0
  -22.7803  -29.2600   19.8357 H   0  0  0  0  0  0
  -25.1313  -36.1938   25.0788 H   0  0  0  0  0  0
  -21.0131  -28.3303   24.1335 H   0  0  0  0  0  0
  -20.5843  -26.2235   23.3604 H   0  0  0  0  0  0
  -21.6649  -26.7471   22.1095 H   0  0  0  0  0  0
  -19.6926  -25.6302   21.1234 H   0  0  0  0  0  0
  -19.6756  -27.3217   20.6818 H   0  0  0  0  0  0
  -17.4242  -26.6816   21.3985 H   0  0  0  0  0  0
  -18.0276  -26.0086   22.8984 H   0  0  0  0  0  0
  -19.7936  -30.7370   24.2182 H   0  0  0  0  0  0
  -17.4996  -31.6277   24.5172 H   0  0  0  0  0  0
  -15.5363  -30.2956   23.7729 H   0  0  0  0  0  0
  -15.8702  -28.0871   22.7004 H   0  0  0  0  0  0
  -24.5949  -30.7157   25.7800 H   0  0  0  0  0  0
  -24.9008  -32.3011   26.4841 H   0  0  0  0  0  0
  -25.8063  -30.9020   27.0287 H   0  0  0  0  0  0
  -26.3071  -29.6734   24.1283 H   0  0  0  0  0  0
  -27.4056  -29.7309   25.4874 H   0  0  0  0  0  0
  -27.8961  -30.4267   23.9634 H   0  0  0  0  0  0
  -27.2754  -33.3638   26.2135 H   0  0  0  0  0  0
  -28.4002  -32.6796   25.0482 H   0  0  0  0  0  0
  -28.0709  -31.8459   26.5552 H   0  0  0  0  0  0
  -28.2548  -38.0097   24.7499 H   0  0  0  0  0  0
  -28.1066  -36.2603   24.6306 H   0  0  0  0  0  0
  -27.2270  -37.1431   25.8860 H   0  0  0  0  0  0
  -20.9291  -29.8763   21.6826 H   0  0  0  0  0  0
  -26.0150  -38.2801   24.1435 H   0  0  0  0  0  0
  -26.0864  -20.5204   18.6037 H   0  0  0  0  0  0
  -26.7235  -22.7535   19.3078 H   0  0  0  0  0  0
  -27.4927  -17.4394   19.5381 H   0  0  0  0  0  0
  -28.0966  -17.9164   17.9412 H   0  0  0  0  0  0
  -26.4312  -18.2336   18.3846 H   0  0  0  0  0  0
  -31.6476  -19.6511   18.9845 H   0  0  0  0  0  0
  -32.2929  -18.2127   19.7717 H   0  0  0  0  0  0
  -31.8964  -19.6465   20.7262 H   0  0  0  0  0  0
  -31.1628  -23.3533   20.7022 H   0  0  0  0  0  0
  -30.6823  -25.0330   20.4483 H   0  0  0  0  0  0
  -30.5910  -23.8732   19.1228 H   0  0  0  0  0  0
  -27.8910  -23.5560   22.5029 H   0  0  0  0  0  0
  -29.1919  -24.7485   22.5121 H   0  0  0  0  0  0
  -29.5601  -23.0170   22.6190 H   0  0  0  0  0  0
  -31.0551  -17.3176   21.6734 H   0  0  0  0  0  0
  -29.3757  -17.5933   21.8871 H   0  0  0  0  0  0
  -27.0647  -24.6911   20.6161 H   0  0  0  0  0  0
  -27.8042  -24.6643   19.0472 H   0  0  0  0  0  0
  -30.0034  -18.0043   19.0864 H   0  0  0  0  0  0
  -28.8577  -15.5865   20.8944 H   0  0  0  0  0  0
  1 25  1  0  0  0
  1 30  2  0  0  0
  1 85  1  0  0  0
  2  3  1  0  0  0
  2 25  1  0  0  0
  2 86  1  0  0  0
  2 87  1  0  0  0
  3  4  1  0  0  0
  3 88  1  0  0  0
  3 89  1  0  0  0
  4  5  1  0  0  0
  4 90  1  0  0  0
  4 91  1  0  0  0
  5  6  1  0  0  0
  5 26  1  0  0  0
  5 92  1  0  0  0
  6 25  1  0  0  0
  6 93  1  0  0  0
  6 94  1  0  0  0
  7  8  2  0  0  0
  7 26  1  0  0  0
  7 29  1  0  0  0
  8  9  1  0  0  0
  8 22  1  0  0  0
  9 10  1  0  0  0
  9 27  2  0  0  0
 10 11  2  0  0  0
 10 15  1  0  0  0
 11 12  1  0  0  0
 11 95  1  0  0  0
 12 13  2  0  0  0
 12 96  1  0  0  0
 13 14  1  0  0  0
 13 31  1  0  0  0
 14 15  2  0  0  0
 14 97  1  0  0  0
 15 98  1  0  0  0
 16 17  2  0  0  0
 16 21  1  0  0  0
 16 31  1  0  0  0
 17 18  1  0  0  0
 17 99  1  0  0  0
 18 19  2  0  0  0
 18100  1  0  0  0
 19 20  1  0  0  0
 19 24  1  0  0  0
 20 21  2  0  0  0
 20101  1  0  0  0
 21 23  1  0  0  0
 22 28  1  0  0  0
 22 32  2  0  0  0
 26 27  1  0  0  0
 28102  1  0  0  0
 28103  1  0  0  0
 29104  1  0  0  0
 29105  1  0  0  0
 33 34  1  0  0  0
 33 66  1  0  0  0
 33 70  2  0  0  0
 34 36  1  0  0  0
 34 59  1  0  0  0
 34106  1  0  0  0
 35 44  2  0  0  0
 35 45  1  0  0  0
 35 68  1  0  0  0
 36 56  1  0  0  0
 36107  1  0  0  0
 37 39  1  0  0  0
 37 47  1  0  0  0
 37 66  1  0  0  0
 37108  1  0  0  0
 38 43  2  0  0  0
 38 46  1  0  0  0
 38 47  1  0  0  0
 39 64  1  0  0  0
 39 67  2  0  0  0
 40 52  1  0  0  0
 40 53  2  0  0  0
 40 58  1  0  0  0
 41109  1  0  0  0
 41110  1  0  0  0
 41111  1  0  0  0
 41 48  1  0  0  0
 42 43  1  0  0  0
 42 66  1  0  0  0
 42112  1  0  0  0
 42113  1  0  0  0
 43 44  1  0  0  0
 44114  1  0  0  0
 45 46  2  0  0  0
 45115  1  0  0  0
 46116  1  0  0  0
 47117  1  0  0  0
 47118  1  0  0  0
 48 56  1  0  0  0
 48 65  1  0  0  0
 48119  1  0  0  0
 49 50  1  0  0  0
 49 53  1  0  0  0
 49 64  1  0  0  0
 49120  1  0  0  0
 50 51  1  0  0  0
 50121  1  0  0  0
 50122  1  0  0  0
 51 52  1  0  0  0
 51123  1  0  0  0
 51124  1  0  0  0
 52125  1  0  0  0
 52126  1  0  0  0
 53 54  1  0  0  0
 54 55  2  0  0  0
 54127  1  0  0  0
 55 57  1  0  0  0
 55128  1  0  0  0
 56 69  2  0  0  0
 57 58  2  0  0  0
 57129  1  0  0  0
 58130  1  0  0  0
 59 60  1  0  0  0
 59 61  1  0  0  0
 59 62  1  0  0  0
 60131  1  0  0  0
 60132  1  0  0  0
 60133  1  0  0  0
 61134  1  0  0  0
 61135  1  0  0  0
 61136  1  0  0  0
 62137  1  0  0  0
 62138  1  0  0  0
 62139  1  0  0  0
 63 65  1  0  0  0
 63140  1  0  0  0
 63141  1  0  0  0
 63142  1  0  0  0
 64143  1  0  0  0
 65144  1  0  0  0
 68 81  1  0  0  0
 71 72  2  0  0  0
 71 73  1  0  0  0
 71145  1  0  0  0
 72 74  1  0  0  0
 72146  1  0  0  0
 73 75  2  0  0  0
 73 76  1  0  0  0
 74 83  1  0  0  0
 74 84  2  0  0  0
 75 82  1  0  0  0
 75 84  1  0  0  0
 76147  1  0  0  0
 76148  1  0  0  0
 76149  1  0  0  0
 77150  1  0  0  0
 77151  1  0  0  0
 77152  1  0  0  0
 77 82  1  0  0  0
 78153  1  0  0  0
 78154  1  0  0  0
 78155  1  0  0  0
 78 83  1  0  0  0
 79 83  1  0  0  0
 79156  1  0  0  0
 79157  1  0  0  0
 79158  1  0  0  0
 80 82  1  0  0  0
 80 85  1  0  0  0
 80159  1  0  0  0
 80160  1  0  0  0
 81 83  1  0  0  0
 81161  1  0  0  0
 81162  1  0  0  0
 82163  1  0  0  0
 85164  1  0  0  0
M  ISO  4   1 100  68 101  81 101  85 100
M  END
> <chiral flag>
0

> <version>
0

> <s_m_source_file>
/data/baiqing/PycharmProjects/Reinvent-master-3.2/result/LINK_invent/BTK/process_docking_weight1_custom_sum_contain_oxygen_bond_distance_aromatic_linkinvent_7_9_3/rearranged_h_0082.sdf

> <i_m_source_file_index>
16

> <r_mmod_Potential_Energy-OPLS-2005>
53.1679344177246

> <r_mmod_Stretch_Energy-OPLS-2005>
145.835266113281

> <r_mmod_Bend_Energy-OPLS-2005>
199.444396972656

> <r_mmod_Torsional_Energy-OPLS-2005>
225.419052124023

> <r_mmod_Improper_Torsional_Energy-OPLS-2005>
5.09166049957275

> <r_mmod_Van_der_Waal_Energy-OPLS-2005>
139.572525024414

> <r_mmod_Electrostatic_Energy-OPLS-2005>
-534.864990234375

> <r_mmod_Solvation_Energy-OPLS-2005>
-216.443389892578

> <b_mmod_Minimization_Converged-OPLS-2005>
0

> <r_mmod_RMS_Derivative-OPLS-2005>
7.28007364273071

$$$$
16
                    3D
 Structure written by MMmdl.
163171  0  0  1  0            999 V2000
  -30.6578  -14.5011   20.5426 C   0  0  0  0  0  0
  -30.4327  -12.3129   19.4256 C   0  0  0  0  0  0
  -29.4997  -12.5021   18.2096 C   0  0  0  0  0  0
  -28.0198  -12.3600   18.6202 C   0  0  0  0  0  0
  -27.6629  -13.1998   19.8762 C   0  0  2  0  0  0
  -28.7047  -12.9742   20.9967 C   0  0  0  0  0  0
  -25.2594  -13.8141   20.5669 C   0  0  0  0  0  0
  -24.1839  -13.0430   20.9175 C   0  0  0  0  0  0
  -24.6382  -11.6895   20.8735 C   0  0  0  0  0  0
  -23.9052  -10.4286   21.0402 C   0  0  0  0  0  0
  -24.3609   -9.4204   21.9182 C   0  0  0  0  0  0
  -23.6285   -8.2242   22.0754 C   0  0  0  0  0  0
  -22.4266   -8.0277   21.3546 C   0  0  0  0  0  0
  -21.9903   -9.0246   20.4647 C   0  0  0  0  0  0
  -22.7228  -10.2127   20.3049 C   0  0  0  0  0  0
  -21.6852   -6.0734   22.5281 C   0  0  0  0  0  0
  -21.4013   -6.5641   23.8213 C   0  0  0  0  0  0
  -21.3656   -5.6792   24.9177 C   0  0  0  0  0  0
  -21.6043   -4.3055   24.7229 C   0  0  0  0  0  0
  -21.8819   -3.8148   23.4348 C   0  0  0  0  0  0
  -21.9195   -4.6962   22.3406 C   0  0  0  0  0  0
  -22.7866  -13.5237   21.1847 C   0  0  0  0  0  0
  -22.1663   -4.2150   21.0981 F   0  0  0  0  0  0
  -21.5628   -3.4537   25.7740 F   0  0  0  0  0  0
  -30.0360  -13.2925   20.4490 N   0  0  0  0  0  0
  -26.3023  -12.9295   20.3356 N   0  0  0  0  0  0
  -25.9307  -11.6465   20.5762 N   0  0  0  0  0  0
  -22.0502  -12.8224   22.0396 N   0  0  0  0  0  0
  -25.4332  -15.1855   20.4076 N   0  0  0  0  0  0
  -31.7834  -14.7183   20.0837 O   0  0  0  0  0  0
  -21.6636   -6.8873   21.4239 O   0  0  0  0  0  0
  -22.3560  -14.5550   20.6703 O   0  0  0  0  0  0
  -24.6152  -31.8669   23.2075 C   0  0  0  0  0  0
  -25.9037  -32.4822   23.8383 C   0  0  1  0  0  0
  -27.2391  -27.4247   20.1005 C   0  0  0  0  0  0
  -25.5897  -33.8619   24.2323 N   0  0  0  0  0  0
  -23.4060  -30.4879   21.5473 C   0  0  2  0  0  0
  -24.8560  -28.9484   20.1179 C   0  0  0  0  0  0
  -22.7425  -29.4657   22.4985 C   0  0  0  0  0  0
  -18.0280  -28.1383   22.8497 C   0  0  0  0  0  0
  -24.1488  -36.7305   23.2643 C   0  0  0  0  0  0
  -25.9350  -30.8273   21.3639 C   0  0  0  0  0  0
  -26.0148  -29.4568   20.7206 C   0  0  0  0  0  0
  -27.2116  -28.6994   20.7158 C   0  0  0  0  0  0
  -26.0678  -26.9319   19.4927 C   0  0  0  0  0  0
  -24.8770  -27.6833   19.5046 C   0  0  0  0  0  0
  -23.6166  -29.8151   20.1639 C   0  0  0  0  0  0
  -25.4112  -36.3110   24.0336 C   0  0  1  0  0  0
  -20.5867  -28.3667   23.1319 C   0  0  2  0  0  0
  -20.6773  -26.9404   22.5421 C   0  0  0  0  0  0
  -19.5744  -26.6388   21.5222 C   0  0  0  0  0  0
  -18.1921  -26.7932   22.1622 C   0  0  0  0  0  0
  -19.1527  -28.8840   23.2906 C   0  0  0  0  0  0
  -18.9455  -30.1456   23.8904 C   0  0  0  0  0  0
  -17.6454  -30.6585   24.0570 C   0  0  0  0  0  0
  -25.9036  -34.9477   23.5124 C   0  0  0  0  0  0
  -16.5347  -29.9085   23.6329 C   0  0  0  0  0  0
  -16.7267  -28.6504   23.0343 C   0  0  0  0  0  0
  -26.4463  -31.6591   25.0707 C   0  0  0  0  0  0
  -25.3728  -31.3676   26.1454 C   0  0  0  0  0  0
  -27.0307  -30.3049   24.6063 C   0  0  0  0  0  0
  -27.6049  -32.4299   25.7464 C   0  0  0  0  0  0
  -27.5577  -37.1817   24.8469 C   0  0  0  0  0  0
  -21.4147  -29.3033   22.3725 N   0  0  0  0  0  0
  -26.4296  -37.3800   23.9402 N   0  0  0  0  0  0
  -24.6701  -31.0769   22.0974 N   0  0  0  0  0  0
  -23.4192  -28.8203   23.3034 O   0  0  0  0  0  0
  -28.3818  -26.6584   20.0364 O   0  0  0  0  0  0
  -26.5605  -34.8927   22.4695 O   0  0  0  0  0  0
  -23.5333  -32.1425   23.7453 O   0  0  0  0  0  0
  -29.7428  -22.3994   19.7076 C   0  0  0  0  0  0
  -28.7084  -23.4420   22.0081 C   0  0  0  0  0  0
  -29.4585  -23.7873   19.7456 C   0  0  0  0  0  0
  -28.9230  -24.3417   20.9391 C   0  0  0  0  0  0
  -29.4948  -21.5899   20.8318 C   0  0  0  0  0  0
  -29.7567  -24.6278   18.5183 C   0  0  0  0  0  0
  -30.9895  -18.1073   22.6547 C   0  0  0  0  0  0
  -28.6825  -17.1860   22.8861 C   0  0  0  0  0  0
  -28.6523  -25.8451   21.1884 C   0  0  0  0  0  0
  -29.0000  -19.2512   21.5343 C   0  0  0  0  0  0
  -29.9279  -16.9419   20.6762 C   0  0  0  0  0  0
  -29.6630  -17.8749   21.9073 C   0  0  0  0  0  0
  -28.9748  -22.1123   21.9608 N   0  0  0  0  0  0
  -29.8306  -20.2204   20.8066 N   0  0  0  0  0  0
  -29.8608  -15.4952   20.9797 N   0  0  0  0  0  0
  -31.4755  -12.4276   19.1244 H   0  0  0  0  0  0
  -30.3469  -11.3000   19.8221 H   0  0  0  0  0  0
  -29.7415  -11.7753   17.4332 H   0  0  0  0  0  0
  -29.6637  -13.4863   17.7679 H   0  0  0  0  0  0
  -27.8320  -11.3039   18.8175 H   0  0  0  0  0  0
  -27.3696  -12.6315   17.7878 H   0  0  0  0  0  0
  -27.7062  -14.2474   19.5774 H   0  0  0  0  0  0
  -28.6832  -11.9340   21.3264 H   0  0  0  0  0  0
  -28.4638  -13.5635   21.8826 H   0  0  0  0  0  0
  -25.2754   -9.5685   22.4753 H   0  0  0  0  0  0
  -24.0002   -7.4630   22.7466 H   0  0  0  0  0  0
  -21.0842   -8.8757   19.8945 H   0  0  0  0  0  0
  -22.3687  -10.9662   19.6155 H   0  0  0  0  0  0
  -21.1998   -7.6148   23.9719 H   0  0  0  0  0  0
  -21.1476   -6.0523   25.9081 H   0  0  0  0  0  0
  -22.0600   -2.7608   23.2848 H   0  0  0  0  0  0
  -22.4119  -11.9882   22.4780 H   0  0  0  0  0  0
  -21.1114  -13.1243   22.2590 H   0  0  0  0  0  0
  -24.6652  -15.8402   20.5085 H   0  0  0  0  0  0
  -26.2843  -15.6228   20.0784 H   0  0  0  0  0  0
  -26.7117  -32.5539   23.1153 H   0  0  0  0  0  0
  -25.0077  -33.9784   25.0486 H   0  0  0  0  0  0
  -22.6963  -31.3047   21.4031 H   0  0  0  0  0  0
  -23.3747  -35.9641   23.3323 H   0  0  0  0  0  0
  -24.3595  -36.8901   22.2057 H   0  0  0  0  0  0
  -23.7232  -37.6516   23.6642 H   0  0  0  0  0  0
  -26.0485  -31.5862   20.5884 H   0  0  0  0  0  0
  -26.8237  -30.8868   21.9801 H   0  0  0  0  0  0
  -28.1084  -29.0910   21.1759 H   0  0  0  0  0  0
  -26.0802  -25.9639   19.0115 H   0  0  0  0  0  0
  -23.9876  -27.2855   19.0353 H   0  0  0  0  0  0
  -23.7249  -30.5866   19.4002 H   0  0  0  0  0  0
  -22.7409  -29.2338   19.8691 H   0  0  0  0  0  0
  -25.1288  -36.1984   25.0828 H   0  0  0  0  0  0
  -20.9966  -28.3221   24.1435 H   0  0  0  0  0  0
  -20.5703  -26.2266   23.3607 H   0  0  0  0  0  0
  -21.6642  -26.7463   22.1194 H   0  0  0  0  0  0
  -19.6916  -25.6309   21.1229 H   0  0  0  0  0  0
  -19.6681  -27.3223   20.6772 H   0  0  0  0  0  0
  -17.4206  -26.6698   21.4013 H   0  0  0  0  0  0
  -18.0300  -26.0071   22.9004 H   0  0  0  0  0  0
  -19.7934  -30.7277   24.2262 H   0  0  0  0  0  0
  -17.5008  -31.6263   24.5179 H   0  0  0  0  0  0
  -15.5347  -30.2988   23.7663 H   0  0  0  0  0  0
  -15.8665  -28.0837   22.7041 H   0  0  0  0  0  0
  -24.5917  -30.7007   25.7782 H   0  0  0  0  0  0
  -24.8892  -32.2821   26.4906 H   0  0  0  0  0  0
  -25.8088  -30.8844   27.0207 H   0  0  0  0  0  0
  -26.2843  -29.6813   24.1135 H   0  0  0  0  0  0
  -27.4131  -29.7282   25.4492 H   0  0  0  0  0  0
  -27.8647  -30.4400   23.9172 H   0  0  0  0  0  0
  -27.2691  -33.3608   26.2046 H   0  0  0  0  0  0
  -28.3861  -32.6847   25.0285 H   0  0  0  0  0  0
  -28.0716  -31.8408   26.5375 H   0  0  0  0  0  0
  -28.2615  -38.0098   24.7522 H   0  0  0  0  0  0
  -28.1052  -36.2639   24.6289 H   0  0  0  0  0  0
  -27.2297  -37.1453   25.8873 H   0  0  0  0  0  0
  -20.9317  -29.8735   21.6931 H   0  0  0  0  0  0
  -26.0182  -38.2878   24.1404 H   0  0  0  0  0  0
  -30.1615  -21.9617   18.8111 H   0  0  0  0  0  0
  -28.3288  -23.8040   22.9526 H   0  0  0  0  0  0
  -30.2694  -24.0439   17.7530 H   0  0  0  0  0  0
  -30.3962  -25.4728   18.7717 H   0  0  0  0  0  0
  -28.8317  -25.0041   18.0819 H   0  0  0  0  0  0
  -30.8450  -18.7245   23.5420 H   0  0  0  0  0  0
  -31.7217  -18.6114   22.0231 H   0  0  0  0  0  0
  -31.4353  -17.1643   22.9740 H   0  0  0  0  0  0
  -28.4240  -17.8441   23.7166 H   0  0  0  0  0  0
  -29.1048  -16.2847   23.3326 H   0  0  0  0  0  0
  -27.7507  -16.9084   22.3903 H   0  0  0  0  0  0
  -29.5383  -26.2601   21.6696 H   0  0  0  0  0  0
  -27.8482  -25.9341   21.9222 H   0  0  0  0  0  0
  -28.6469  -19.7143   22.4561 H   0  0  0  0  0  0
  -28.1026  -19.0723   20.9397 H   0  0  0  0  0  0
  -30.8737  -17.1970   20.1950 H   0  0  0  0  0  0
  -29.1617  -17.1252   19.9218 H   0  0  0  0  0  0
  -30.2296  -19.8843   19.9377 H   0  0  0  0  0  0
  -28.9821  -15.1827   21.3631 H   0  0  0  0  0  0
  1 25  1  0  0  0
  1 30  2  0  0  0
  1 85  1  0  0  0
  2  3  1  0  0  0
  2 25  1  0  0  0
  2 86  1  0  0  0
  2 87  1  0  0  0
  3  4  1  0  0  0
  3 88  1  0  0  0
  3 89  1  0  0  0
  4  5  1  0  0  0
  4 90  1  0  0  0
  4 91  1  0  0  0
  5  6  1  0  0  0
  5 26  1  0  0  0
  5 92  1  0  0  0
  6 25  1  0  0  0
  6 93  1  0  0  0
  6 94  1  0  0  0
  7  8  2  0  0  0
  7 26  1  0  0  0
  7 29  1  0  0  0
  8  9  1  0  0  0
  8 22  1  0  0  0
  9 10  1  0  0  0
  9 27  2  0  0  0
 10 11  2  0  0  0
 10 15  1  0  0  0
 11 12  1  0  0  0
 11 95  1  0  0  0
 12 13  2  0  0  0
 12 96  1  0  0  0
 13 14  1  0  0  0
 13 31  1  0  0  0
 14 15  2  0  0  0
 14 97  1  0  0  0
 15 98  1  0  0  0
 16 17  2  0  0  0
 16 21  1  0  0  0
 16 31  1  0  0  0
 17 18  1  0  0  0
 17 99  1  0  0  0
 18 19  2  0  0  0
 18100  1  0  0  0
 19 20  1  0  0  0
 19 24  1  0  0  0
 20 21  2  0  0  0
 20101  1  0  0  0
 21 23  1  0  0  0
 22 28  1  0  0  0
 22 32  2  0  0  0
 26 27  1  0  0  0
 28102  1  0  0  0
 28103  1  0  0  0
 29104  1  0  0  0
 29105  1  0  0  0
 33 34  1  0  0  0
 33 66  1  0  0  0
 33 70  2  0  0  0
 34 36  1  0  0  0
 34 59  1  0  0  0
 34106  1  0  0  0
 35 44  2  0  0  0
 35 45  1  0  0  0
 35 68  1  0  0  0
 36 56  1  0  0  0
 36107  1  0  0  0
 37 39  1  0  0  0
 37 47  1  0  0  0
 37 66  1  0  0  0
 37108  1  0  0  0
 38 43  2  0  0  0
 38 46  1  0  0  0
 38 47  1  0  0  0
 39 64  1  0  0  0
 39 67  2  0  0  0
 40 52  1  0  0  0
 40 53  2  0  0  0
 40 58  1  0  0  0
 41109  1  0  0  0
 41110  1  0  0  0
 41111  1  0  0  0
 41 48  1  0  0  0
 42 43  1  0  0  0
 42 66  1  0  0  0
 42112  1  0  0  0
 42113  1  0  0  0
 43 44  1  0  0  0
 44114  1  0  0  0
 45 46  2  0  0  0
 45115  1  0  0  0
 46116  1  0  0  0
 47117  1  0  0  0
 47118  1  0  0  0
 48 56  1  0  0  0
 48 65  1  0  0  0
 48119  1  0  0  0
 49 50  1  0  0  0
 49 53  1  0  0  0
 49 64  1  0  0  0
 49120  1  0  0  0
 50 51  1  0  0  0
 50121  1  0  0  0
 50122  1  0  0  0
 51 52  1  0  0  0
 51123  1  0  0  0
 51124  1  0  0  0
 52125  1  0  0  0
 52126  1  0  0  0
 53 54  1  0  0  0
 54 55  2  0  0  0
 54127  1  0  0  0
 55 57  1  0  0  0
 55128  1  0  0  0
 56 69  2  0  0  0
 57 58  2  0  0  0
 57129  1  0  0  0
 58130  1  0  0  0
 59 60  1  0  0  0
 59 61  1  0  0  0
 59 62  1  0  0  0
 60131  1  0  0  0
 60132  1  0  0  0
 60133  1  0  0  0
 61134  1  0  0  0
 61135  1  0  0  0
 61136  1  0  0  0
 62137  1  0  0  0
 62138  1  0  0  0
 62139  1  0  0  0
 63 65  1  0  0  0
 63140  1  0  0  0
 63141  1  0  0  0
 63142  1  0  0  0
 64143  1  0  0  0
 65144  1  0  0  0
 68 79  1  0  0  0
 71 73  2  0  0  0
 71 75  1  0  0  0
 71145  1  0  0  0
 72 74  2  0  0  0
 72 83  1  0  0  0
 72146  1  0  0  0
 73 74  1  0  0  0
 73 76  1  0  0  0
 74 79  1  0  0  0
 75 83  2  0  0  0
 75 84  1  0  0  0
 76147  1  0  0  0
 76148  1  0  0  0
 76149  1  0  0  0
 77150  1  0  0  0
 77151  1  0  0  0
 77152  1  0  0  0
 77 82  1  0  0  0
 78 82  1  0  0  0
 78153  1  0  0  0
 78154  1  0  0  0
 78155  1  0  0  0
 79156  1  0  0  0
 79157  1  0  0  0
 80 82  1  0  0  0
 80 84  1  0  0  0
 80158  1  0  0  0
 80159  1  0  0  0
 81 82  1  0  0  0
 81 85  1  0  0  0
 81160  1  0  0  0
 81161  1  0  0  0
 84162  1  0  0  0
 85163  1  0  0  0
M  ISO  4   1 100  68 101  79 101  85 100
M  END
> <chiral flag>
0

> <version>
0

> <s_m_source_file>
/data/baiqing/PycharmProjects/Reinvent-master-3.2/result/LINK_invent/BTK/process_docking_weight1_custom_sum_contain_oxygen_bond_distance_aromatic_linkinvent_7_9_3/rearranged_h_0082.sdf

> <i_m_source_file_index>
17

> <r_mmod_Potential_Energy-OPLS-2005>
-241.555786132812

> <r_mmod_Stretch_Energy-OPLS-2005>
43.0543022155762

> <r_mmod_Bend_Energy-OPLS-2005>
113.885589599609

> <r_mmod_Torsional_Energy-OPLS-2005>
270.757690429688

> <r_mmod_Improper_Torsional_Energy-OPLS-2005>
8.72520351409912

> <r_mmod_Van_der_Waal_Energy-OPLS-2005>
156.347091674805

> <r_mmod_Electrostatic_Energy-OPLS-2005>
-624.537048339844

> <r_mmod_Solvation_Energy-OPLS-2005>
-224.37825012207

> <b_mmod_Minimization_Converged-OPLS-2005>
0

> <r_mmod_RMS_Derivative-OPLS-2005>
1.58265173435211

$$$$
17
                    3D
 Structure written by MMmdl.
157165  0  0  1  0            999 V2000
  -30.6179  -14.7182   20.4377 C   0  0  0  0  0  0
  -30.4241  -12.4344   19.4737 C   0  0  0  0  0  0
  -29.5077  -12.5083   18.2336 C   0  0  0  0  0  0
  -28.0333  -12.3357   18.6437 C   0  0  0  0  0  0
  -27.6408  -13.2325   19.8488 C   0  0  2  0  0  0
  -28.6828  -13.1649   20.9873 C   0  0  0  0  0  0
  -25.2506  -13.8201   20.5678 C   0  0  0  0  0  0
  -24.1799  -13.0438   20.9186 C   0  0  0  0  0  0
  -24.6396  -11.6921   20.8723 C   0  0  0  0  0  0
  -23.9075  -10.4291   21.0380 C   0  0  0  0  0  0
  -24.3628   -9.4204   21.9153 C   0  0  0  0  0  0
  -23.6303   -8.2241   22.0734 C   0  0  0  0  0  0
  -22.4283   -8.0278   21.3533 C   0  0  0  0  0  0
  -21.9918   -9.0247   20.4633 C   0  0  0  0  0  0
  -22.7249  -10.2126   20.3035 C   0  0  0  0  0  0
  -21.6860   -6.0732   22.5270 C   0  0  0  0  0  0
  -21.4021   -6.5632   23.8204 C   0  0  0  0  0  0
  -21.3665   -5.6784   24.9162 C   0  0  0  0  0  0
  -21.6044   -4.3047   24.7217 C   0  0  0  0  0  0
  -21.8822   -3.8142   23.4337 C   0  0  0  0  0  0
  -21.9198   -4.6958   22.3394 C   0  0  0  0  0  0
  -22.7820  -13.5208   21.1848 C   0  0  0  0  0  0
  -22.1661   -4.2139   21.0970 F   0  0  0  0  0  0
  -21.5635   -3.4536   25.7730 F   0  0  0  0  0  0
  -29.9880  -13.4973   20.4077 N   0  0  0  0  0  0
  -26.2929  -12.9411   20.3265 N   0  0  0  0  0  0
  -25.9325  -11.6551   20.5729 N   0  0  0  0  0  0
  -22.0490  -12.8199   22.0423 N   0  0  0  0  0  0
  -25.4191  -15.1929   20.4110 N   0  0  0  0  0  0
  -31.8104  -14.8004   20.1333 O   0  0  0  0  0  0
  -21.6647   -6.8876   21.4233 O   0  0  0  0  0  0
  -22.3489  -14.5504   20.6686 O   0  0  0  0  0  0
  -24.6282  -31.8576   23.1965 C   0  0  0  0  0  0
  -25.9118  -32.4769   23.8302 C   0  0  1  0  0  0
  -27.2224  -27.2892   20.1107 C   0  0  0  0  0  0
  -25.5922  -33.8567   24.2240 N   0  0  0  0  0  0
  -23.4220  -30.4801   21.5409 C   0  0  2  0  0  0
  -24.8660  -28.9297   20.1069 C   0  0  0  0  0  0
  -22.7486  -29.4615   22.4921 C   0  0  0  0  0  0
  -18.0284  -28.1395   22.8498 C   0  0  0  0  0  0
  -24.1483  -36.7292   23.2635 C   0  0  0  0  0  0
  -25.9634  -30.7802   21.3684 C   0  0  0  0  0  0
  -26.0351  -29.4029   20.7138 C   0  0  0  0  0  0
  -27.2118  -28.5930   20.7074 C   0  0  0  0  0  0
  -26.0240  -26.8698   19.4883 C   0  0  0  0  0  0
  -24.8653  -27.6711   19.4859 C   0  0  0  0  0  0
  -23.6361  -29.8148   20.1561 C   0  0  0  0  0  0
  -25.4111  -36.3080   24.0323 C   0  0  1  0  0  0
  -20.5889  -28.3701   23.1278 C   0  0  2  0  0  0
  -20.6780  -26.9422   22.5415 C   0  0  0  0  0  0
  -19.5749  -26.6396   21.5223 C   0  0  0  0  0  0
  -18.1930  -26.7938   22.1636 C   0  0  0  0  0  0
  -19.1539  -28.8865   23.2883 C   0  0  0  0  0  0
  -18.9465  -30.1467   23.8906 C   0  0  0  0  0  0
  -17.6464  -30.6596   24.0577 C   0  0  0  0  0  0
  -25.9058  -34.9454   23.5089 C   0  0  0  0  0  0
  -16.5357  -29.9108   23.6323 C   0  0  0  0  0  0
  -16.7275  -28.6523   23.0353 C   0  0  0  0  0  0
  -26.4488  -31.6579   25.0678 C   0  0  0  0  0  0
  -25.3705  -31.3743   26.1397 C   0  0  0  0  0  0
  -27.0316  -30.3001   24.6125 C   0  0  0  0  0  0
  -27.6048  -32.4308   25.7457 C   0  0  0  0  0  0
  -27.5573  -37.1800   24.8466 C   0  0  0  0  0  0
  -21.4196  -29.3045   22.3671 N   0  0  0  0  0  0
  -26.4285  -37.3783   23.9414 N   0  0  0  0  0  0
  -24.6905  -31.0571   22.0926 N   0  0  0  0  0  0
  -23.4211  -28.8161   23.3006 O   0  0  0  0  0  0
  -28.3577  -26.4568   20.1806 O   0  0  0  0  0  0
  -26.5636  -34.8932   22.4661 O   0  0  0  0  0  0
  -23.5439  -32.1381   23.7280 O   0  0  0  0  0  0
  -29.6571  -19.8514   19.9551 C   0  0  0  0  0  0
  -28.8165  -20.9463   20.3430 C   0  0  0  0  0  0
  -29.4099  -18.5256   20.4506 C   0  0  0  0  0  0
  -27.6513  -19.4211   21.6304 C   0  0  0  0  0  0
  -26.5178  -19.1908   22.6069 C   0  0  0  0  0  0
  -30.1733  -17.1714   18.4448 C   0  0  0  0  0  0
  -28.8341  -22.3801   19.6631 C   0  0  0  0  0  0
  -28.4957  -23.7464   20.4473 C   0  0  0  0  0  0
  -28.4500  -25.0969   19.5707 C   0  0  0  0  0  0
  -30.2121  -17.2388   19.9873 C   0  0  2  0  0  0
  -27.8043  -20.6748   21.1885 N   0  0  0  0  0  0
  -28.3757  -18.3475   21.2945 N   0  0  0  0  0  0
  -29.8492  -15.8620   20.5263 N   0  0  0  0  0  0
  -31.4683  -12.5425   19.1741 H   0  0  0  0  0  0
  -30.3497  -11.4566   19.9501 H   0  0  0  0  0  0
  -29.7871  -11.7424   17.5094 H   0  0  0  0  0  0
  -29.6418  -13.4677   17.7302 H   0  0  0  0  0  0
  -27.8855  -11.2859   18.8994 H   0  0  0  0  0  0
  -27.3797  -12.5346   17.7940 H   0  0  0  0  0  0
  -27.6345  -14.2543   19.4694 H   0  0  0  0  0  0
  -28.7080  -12.1705   21.4346 H   0  0  0  0  0  0
  -28.4230  -13.8604   21.7876 H   0  0  0  0  0  0
  -25.2780   -9.5678   22.4723 H   0  0  0  0  0  0
  -24.0011   -7.4632   22.7455 H   0  0  0  0  0  0
  -21.0849   -8.8769   19.8939 H   0  0  0  0  0  0
  -22.3702  -10.9661   19.6143 H   0  0  0  0  0  0
  -21.2011   -7.6140   23.9707 H   0  0  0  0  0  0
  -21.1487   -6.0510   25.9067 H   0  0  0  0  0  0
  -22.0601   -2.7602   23.2838 H   0  0  0  0  0  0
  -22.4154  -11.9891   22.4833 H   0  0  0  0  0  0
  -21.1090  -13.1174   22.2612 H   0  0  0  0  0  0
  -24.6505  -15.8454   20.5221 H   0  0  0  0  0  0
  -26.2749  -15.6405   20.1101 H   0  0  0  0  0  0
  -26.7181  -32.5439   23.1039 H   0  0  0  0  0  0
  -25.0055  -33.9701   25.0376 H   0  0  0  0  0  0
  -22.7149  -31.2996   21.3974 H   0  0  0  0  0  0
  -23.3747  -35.9624   23.3302 H   0  0  0  0  0  0
  -24.3560  -36.8915   22.2048 H   0  0  0  0  0  0
  -23.7240  -37.6495   23.6656 H   0  0  0  0  0  0
  -26.0898  -31.5398   20.5959 H   0  0  0  0  0  0
  -26.8460  -30.8339   21.9948 H   0  0  0  0  0  0
  -28.1094  -28.9543   21.1900 H   0  0  0  0  0  0
  -25.9346  -25.9050   19.0162 H   0  0  0  0  0  0
  -23.9695  -27.3005   19.0072 H   0  0  0  0  0  0
  -23.7571  -30.5913   19.3988 H   0  0  0  0  0  0
  -22.7542  -29.2470   19.8535 H   0  0  0  0  0  0
  -25.1293  -36.1921   25.0816 H   0  0  0  0  0  0
  -20.9971  -28.3283   24.1401 H   0  0  0  0  0  0
  -20.5691  -26.2311   23.3619 H   0  0  0  0  0  0
  -21.6647  -26.7462   22.1199 H   0  0  0  0  0  0
  -19.6916  -25.6308   21.1252 H   0  0  0  0  0  0
  -19.6685  -27.3211   20.6755 H   0  0  0  0  0  0
  -17.4199  -26.6680   21.4040 H   0  0  0  0  0  0
  -18.0331  -26.0087   22.9036 H   0  0  0  0  0  0
  -19.7945  -30.7277   24.2281 H   0  0  0  0  0  0
  -17.5026  -31.6275   24.5179 H   0  0  0  0  0  0
  -15.5359  -30.3022   23.7637 H   0  0  0  0  0  0
  -15.8674  -28.0848   22.7058 H   0  0  0  0  0  0
  -24.5886  -30.7089   25.7716 H   0  0  0  0  0  0
  -24.8883  -32.2918   26.4775 H   0  0  0  0  0  0
  -25.8001  -30.8946   27.0199 H   0  0  0  0  0  0
  -26.2873  -29.6770   24.1154 H   0  0  0  0  0  0
  -27.4022  -29.7238   25.4610 H   0  0  0  0  0  0
  -27.8743  -30.4285   23.9329 H   0  0  0  0  0  0
  -27.2665  -33.3619   26.2012 H   0  0  0  0  0  0
  -28.3868  -32.6850   25.0290 H   0  0  0  0  0  0
  -28.0702  -31.8444   26.5388 H   0  0  0  0  0  0
  -28.2602  -38.0085   24.7500 H   0  0  0  0  0  0
  -28.1053  -36.2616   24.6302 H   0  0  0  0  0  0
  -27.2283  -37.1461   25.8866 H   0  0  0  0  0  0
  -20.9371  -29.8772   21.6891 H   0  0  0  0  0  0
  -26.0165  -38.2861   24.1410 H   0  0  0  0  0  0
  -30.4481  -20.0169   19.2365 H   0  0  0  0  0  0
  -25.6506  -18.7798   22.0916 H   0  0  0  0  0  0
  -26.2178  -20.1224   23.0884 H   0  0  0  0  0  0
  -26.8177  -18.4928   23.3883 H   0  0  0  0  0  0
  -29.1505  -17.0678   18.0820 H   0  0  0  0  0  0
  -30.7520  -16.3347   18.0560 H   0  0  0  0  0  0
  -30.5881  -18.0734   17.9946 H   0  0  0  0  0  0
  -28.1492  -22.3144   18.8181 H   0  0  0  0  0  0
  -29.8204  -22.4995   19.2148 H   0  0  0  0  0  0
  -29.2269  -23.8704   21.2457 H   0  0  0  0  0  0
  -27.5313  -23.6284   20.9431 H   0  0  0  0  0  0
  -27.7399  -24.9669   18.7580 H   0  0  0  0  0  0
  -29.4040  -25.1276   19.0433 H   0  0  0  0  0  0
  -31.2447  -17.4254   20.2862 H   0  0  0  0  0  0
  -28.8878  -15.7691   20.8172 H   0  0  0  0  0  0
  1 25  1  0  0  0
  1 30  2  0  0  0
  1 83  1  0  0  0
  2  3  1  0  0  0
  2 25  1  0  0  0
  2 84  1  0  0  0
  2 85  1  0  0  0
  3  4  1  0  0  0
  3 86  1  0  0  0
  3 87  1  0  0  0
  4  5  1  0  0  0
  4 88  1  0  0  0
  4 89  1  0  0  0
  5  6  1  0  0  0
  5 26  1  0  0  0
  5 90  1  0  0  0
  6 25  1  0  0  0
  6 91  1  0  0  0
  6 92  1  0  0  0
  7  8  2  0  0  0
  7 26  1  0  0  0
  7 29  1  0  0  0
  8  9  1  0  0  0
  8 22  1  0  0  0
  9 10  1  0  0  0
  9 27  2  0  0  0
 10 11  2  0  0  0
 10 15  1  0  0  0
 11 12  1  0  0  0
 11 93  1  0  0  0
 12 13  2  0  0  0
 12 94  1  0  0  0
 13 14  1  0  0  0
 13 31  1  0  0  0
 14 15  2  0  0  0
 14 95  1  0  0  0
 15 96  1  0  0  0
 16 17  2  0  0  0
 16 21  1  0  0  0
 16 31  1  0  0  0
 17 18  1  0  0  0
 17 97  1  0  0  0
 18 19  2  0  0  0
 18 98  1  0  0  0
 19 20  1  0  0  0
 19 24  1  0  0  0
 20 21  2  0  0  0
 20 99  1  0  0  0
 21 23  1  0  0  0
 22 28  1  0  0  0
 22 32  2  0  0  0
 26 27  1  0  0  0
 28100  1  0  0  0
 28101  1  0  0  0
 29102  1  0  0  0
 29103  1  0  0  0
 33 34  1  0  0  0
 33 66  1  0  0  0
 33 70  2  0  0  0
 34 36  1  0  0  0
 34 59  1  0  0  0
 34104  1  0  0  0
 35 44  2  0  0  0
 35 45  1  0  0  0
 35 68  1  0  0  0
 36 56  1  0  0  0
 36105  1  0  0  0
 37 39  1  0  0  0
 37 47  1  0  0  0
 37 66  1  0  0  0
 37106  1  0  0  0
 38 43  2  0  0  0
 38 46  1  0  0  0
 38 47  1  0  0  0
 39 64  1  0  0  0
 39 67  2  0  0  0
 40 52  1  0  0  0
 40 53  2  0  0  0
 40 58  1  0  0  0
 41107  1  0  0  0
 41108  1  0  0  0
 41109  1  0  0  0
 41 48  1  0  0  0
 42 43  1  0  0  0
 42 66  1  0  0  0
 42110  1  0  0  0
 42111  1  0  0  0
 43 44  1  0  0  0
 44112  1  0  0  0
 45 46  2  0  0  0
 45113  1  0  0  0
 46114  1  0  0  0
 47115  1  0  0  0
 47116  1  0  0  0
 48 56  1  0  0  0
 48 65  1  0  0  0
 48117  1  0  0  0
 49 50  1  0  0  0
 49 53  1  0  0  0
 49 64  1  0  0  0
 49118  1  0  0  0
 50 51  1  0  0  0
 50119  1  0  0  0
 50120  1  0  0  0
 51 52  1  0  0  0
 51121  1  0  0  0
 51122  1  0  0  0
 52123  1  0  0  0
 52124  1  0  0  0
 53 54  1  0  0  0
 54 55  2  0  0  0
 54125  1  0  0  0
 55 57  1  0  0  0
 55126  1  0  0  0
 56 69  2  0  0  0
 57 58  2  0  0  0
 57127  1  0  0  0
 58128  1  0  0  0
 59 60  1  0  0  0
 59 61  1  0  0  0
 59 62  1  0  0  0
 60129  1  0  0  0
 60130  1  0  0  0
 60131  1  0  0  0
 61132  1  0  0  0
 61133  1  0  0  0
 61134  1  0  0  0
 62135  1  0  0  0
 62136  1  0  0  0
 62137  1  0  0  0
 63 65  1  0  0  0
 63138  1  0  0  0
 63139  1  0  0  0
 63140  1  0  0  0
 64141  1  0  0  0
 65142  1  0  0  0
 68 79  1  0  0  0
 71 72  2  0  0  0
 71 73  1  0  0  0
 71143  1  0  0  0
 72 77  1  0  0  0
 72 81  1  0  0  0
 73 80  1  0  0  0
 73 82  2  0  0  0
 74 75  1  0  0  0
 74 81  2  0  0  0
 74 82  1  0  0  0
 75144  1  0  0  0
 75145  1  0  0  0
 75146  1  0  0  0
 76147  1  0  0  0
 76148  1  0  0  0
 76149  1  0  0  0
 76 80  1  0  0  0
 77 78  1  0  0  0
 77150  1  0  0  0
 77151  1  0  0  0
 78 79  1  0  0  0
 78152  1  0  0  0
 78153  1  0  0  0
 79154  1  0  0  0
 79155  1  0  0  0
 80 83  1  0  0  0
 80156  1  0  0  0
 83157  1  0  0  0
M  ISO  4   1 100  68 101  79 101  83 100
M  END
> <chiral flag>
0

> <version>
0

> <s_m_source_file>
/data/baiqing/PycharmProjects/Reinvent-master-3.2/result/LINK_invent/BTK/process_docking_weight1_custom_sum_contain_oxygen_bond_distance_aromatic_linkinvent_7_9_3/rearranged_h_0082.sdf

> <i_m_source_file_index>
18

> <r_mmod_Potential_Energy-OPLS-2005>
-523.261108398438

> <r_mmod_Stretch_Energy-OPLS-2005>
97.752067565918

> <r_mmod_Bend_Energy-OPLS-2005>
162.620803833008

> <r_mmod_Torsional_Energy-OPLS-2005>
197.513229370117

> <r_mmod_Improper_Torsional_Energy-OPLS-2005>
8.49030494689941

> <r_mmod_Van_der_Waal_Energy-OPLS-2005>
144.924514770508

> <r_mmod_Electrostatic_Energy-OPLS-2005>
-980.713745117188

> <r_mmod_Solvation_Energy-OPLS-2005>
-224.635177612305

> <b_mmod_Minimization_Converged-OPLS-2005>
0

> <r_mmod_RMS_Derivative-OPLS-2005>
1.63895869255066

$$$$
18
                    3D
 Structure written by MMmdl.
176184  0  0  1  0            999 V2000
  -30.4960  -14.9596   20.2847 C   0  0  0  0  0  0
  -30.4351  -12.5786   19.5041 C   0  0  0  0  0  0
  -29.5233  -12.5103   18.2563 C   0  0  0  0  0  0
  -28.0413  -12.3177   18.6572 C   0  0  0  0  0  0
  -27.6099  -13.2495   19.8168 C   0  0  2  0  0  0
  -28.6489  -13.3086   20.9529 C   0  0  0  0  0  0
  -25.2271  -13.8250   20.5653 C   0  0  0  0  0  0
  -24.1628  -13.0445   20.9273 C   0  0  0  0  0  0
  -24.6256  -11.6941   20.8760 C   0  0  0  0  0  0
  -23.8964  -10.4282   21.0399 C   0  0  0  0  0  0
  -24.3547   -9.4235   21.9192 C   0  0  0  0  0  0
  -23.6247   -8.2255   22.0746 C   0  0  0  0  0  0
  -22.4244   -8.0246   21.3520 C   0  0  0  0  0  0
  -21.9857   -9.0222   20.4639 C   0  0  0  0  0  0
  -22.7144  -10.2124   20.3044 C   0  0  0  0  0  0
  -21.6888   -6.0694   22.5274 C   0  0  0  0  0  0
  -21.4019   -6.5596   23.8201 C   0  0  0  0  0  0
  -21.3660   -5.6753   24.9162 C   0  0  0  0  0  0
  -21.6058   -4.3022   24.7241 C   0  0  0  0  0  0
  -21.8794   -3.8104   23.4364 C   0  0  0  0  0  0
  -21.9182   -4.6907   22.3412 C   0  0  0  0  0  0
  -22.7652  -13.5186   21.1995 C   0  0  0  0  0  0
  -22.1649   -4.2054   21.1008 F   0  0  0  0  0  0
  -21.5619   -3.4533   25.7780 F   0  0  0  0  0  0
  -29.9210  -13.6973   20.3318 N   0  0  0  0  0  0
  -26.2697  -12.9498   20.3118 N   0  0  0  0  0  0
  -25.9176  -11.6629   20.5681 N   0  0  0  0  0  0
  -22.0305  -12.8161   22.0546 N   0  0  0  0  0  0
  -25.3970  -15.2006   20.4144 N   0  0  0  0  0  0
  -31.7163  -15.0175   20.1217 O   0  0  0  0  0  0
  -21.6635   -6.8838   21.4227 O   0  0  0  0  0  0
  -22.3335  -14.5501   20.6863 O   0  0  0  0  0  0
  -24.8103  -31.7851   23.0511 C   0  0  0  0  0  0
  -26.0033  -32.4509   23.7907 C   0  0  1  0  0  0
  -26.4174  -27.6967   21.2068 C   0  0  0  0  0  0
  -25.6164  -33.8215   24.1869 N   0  0  0  0  0  0
  -23.5827  -30.1855   21.3719 C   0  0  2  0  0  0
  -25.2848  -28.3441   19.2268 C   0  0  0  0  0  0
  -22.7867  -29.4269   22.4761 C   0  0  0  0  0  0
  -18.0390  -28.1412   22.8426 C   0  0  0  0  0  0
  -24.1467  -36.7153   23.2619 C   0  0  0  0  0  0
  -26.7053  -30.5756   21.3120 C   0  0  0  0  0  0
  -26.8469  -29.0931   19.9401 C   0  0  0  0  0  0
  -27.5489  -28.2061   20.6523 C   0  0  0  0  0  0
  -25.9362  -26.6253   20.3811 C   0  0  0  0  0  0
  -25.1304  -27.0090   19.3291 C   0  0  0  0  0  0
  -23.6334  -28.9272   19.9430 C   0  0  0  0  0  0
  -25.4118  -36.2914   24.0282 C   0  0  1  0  0  0
  -20.5978  -28.3880   23.1170 C   0  0  2  0  0  0
  -20.6889  -26.9500   22.5484 C   0  0  0  0  0  0
  -19.5952  -26.6320   21.5277 C   0  0  0  0  0  0
  -18.2095  -26.7972   22.1550 C   0  0  0  0  0  0
  -19.1598  -28.8987   23.2777 C   0  0  0  0  0  0
  -18.9454  -30.1578   23.8770 C   0  0  0  0  0  0
  -17.6428  -30.6617   24.0538 C   0  0  0  0  0  0
  -25.9099  -34.9304   23.4908 C   0  0  0  0  0  0
  -16.5360  -29.9019   23.6372 C   0  0  0  0  0  0
  -16.7334  -28.6439   23.0390 C   0  0  0  0  0  0
  -26.4724  -31.6458   25.0634 C   0  0  0  0  0  0
  -25.3474  -31.3812   26.0879 C   0  0  0  0  0  0
  -27.0615  -30.2745   24.6756 C   0  0  0  0  0  0
  -27.6185  -32.4129   25.7650 C   0  0  0  0  0  0
  -27.5555  -37.1789   24.8470 C   0  0  0  0  0  0
  -21.4513  -29.3088   22.3413 N   0  0  0  0  0  0
  -26.4268  -37.3664   23.9391 N   0  0  0  0  0  0
  -25.0372  -30.9497   21.9765 N   0  0  0  0  0  0
  -23.4018  -28.8531   23.3736 O   0  0  0  0  0  0
  -25.4225  -28.8192   21.3062 O   0  0  0  0  0  0
  -26.5726  -34.8874   22.4510 O   0  0  0  0  0  0
  -23.6783  -32.0585   23.4939 O   0  0  0  0  0  0
  -29.0840  -22.4762   17.7067 C   0  0  0  0  0  0
  -28.7709  -23.8529   17.3545 C   0  0  0  0  0  0
  -28.5107  -24.9068   18.3209 C   0  0  0  0  0  0
  -29.1255  -21.9721   19.0391 C   0  0  0  0  0  0
  -28.6733  -24.3100   19.6510 C   0  0  0  0  0  0
  -28.8361  -24.1405   15.8649 C   0  0  0  0  0  0
  -28.7741  -25.1350   20.9259 C   0  0  0  0  0  0
  -24.9055  -30.4706   16.7680 C   0  0  0  0  0  0
  -26.5065  -26.8801   16.3160 C   0  0  0  0  0  0
  -28.4218  -26.5650   17.9435 C   0  0  0  0  0  0
  -29.8080  -20.5249   19.4824 C   0  0  0  0  0  0
  -29.1535  -18.9984   19.7404 C   0  0  0  0  0  0
  -30.1240  -17.6220   19.8577 C   0  0  0  0  0  0
  -27.2074  -29.1266   17.3407 C   0  0  0  0  0  0
  -25.1995  -30.6245   19.5312 C   0  0  0  0  0  0
  -25.9803  -30.3503   17.8768 C   0  0  2  0  0  0
  -28.8992  -22.9605   19.9608 N   0  0  0  0  0  0
  -29.6983  -16.1292   20.1503 N   0  0  0  0  0  0
  -27.1851  -27.4961   17.4878 N   0  3  1  0  0  0
  -31.4740  -12.7505   19.2023 H   0  0  0  0  0  0
  -30.4312  -11.6478   20.0786 H   0  0  0  0  0  0
  -29.8507  -11.7059   17.5965 H   0  0  0  0  0  0
  -29.6207  -13.4420   17.6922 H   0  0  0  0  0  0
  -27.9111  -11.2797   18.9647 H   0  0  0  0  0  0
  -27.3884  -12.4678   17.7941 H   0  0  0  0  0  0
  -27.5694  -14.2397   19.3663 H   0  0  0  0  0  0
  -28.7264  -12.3502   21.4661 H   0  0  0  0  0  0
  -28.3540  -14.0525   21.6950 H   0  0  0  0  0  0
  -25.2683   -9.5742   22.4788 H   0  0  0  0  0  0
  -23.9966   -7.4649   22.7478 H   0  0  0  0  0  0
  -21.0774   -8.8722   19.8974 H   0  0  0  0  0  0
  -22.3572  -10.9654   19.6142 H   0  0  0  0  0  0
  -21.2038   -7.6108   23.9686 H   0  0  0  0  0  0
  -21.1513   -6.0500   25.9063 H   0  0  0  0  0  0
  -22.0593   -2.7556   23.2920 H   0  0  0  0  0  0
  -22.3854  -11.9773   22.4877 H   0  0  0  0  0  0
  -21.0930  -13.1177   22.2811 H   0  0  0  0  0  0
  -24.6343  -15.8592   20.5339 H   0  0  0  0  0  0
  -26.2398  -15.6473   20.0813 H   0  0  0  0  0  0
  -26.8538  -32.5074   23.1137 H   0  0  0  0  0  0
  -25.0406  -33.8979   25.0130 H   0  0  0  0  0  0
  -22.9284  -31.0068   21.0656 H   0  0  0  0  0  0
  -23.3746  -35.9440   23.3119 H   0  0  0  0  0  0
  -24.3534  -36.8872   22.2034 H   0  0  0  0  0  0
  -23.7189  -37.6333   23.6678 H   0  0  0  0  0  0
  -27.1865  -31.4880   20.9576 H   0  0  0  0  0  0
  -27.3434  -30.2894   22.1314 H   0  0  0  0  0  0
  -28.3162  -28.5762   21.3196 H   0  0  0  0  0  0
  -25.7525  -25.6498   20.8100 H   0  0  0  0  0  0
  -24.2765  -26.4320   18.9944 H   0  0  0  0  0  0
  -22.9744  -29.2515   19.1321 H   0  0  0  0  0  0
  -23.1034  -28.0369   20.2925 H   0  0  0  0  0  0
  -25.1374  -36.1655   25.0784 H   0  0  0  0  0  0
  -20.9938  -28.3537   24.1344 H   0  0  0  0  0  0
  -20.5781  -26.2421   23.3691 H   0  0  0  0  0  0
  -21.6771  -26.7479   22.1359 H   0  0  0  0  0  0
  -19.7165  -25.6165   21.1498 H   0  0  0  0  0  0
  -19.7063  -27.2965   20.6721 H   0  0  0  0  0  0
  -17.4508  -26.6739   21.3835 H   0  0  0  0  0  0
  -18.0429  -26.0038   22.8829 H   0  0  0  0  0  0
  -19.7897  -30.7528   24.2052 H   0  0  0  0  0  0
  -17.4947  -31.6266   24.5195 H   0  0  0  0  0  0
  -15.5351  -30.2887   23.7760 H   0  0  0  0  0  0
  -15.8778  -28.0689   22.7165 H   0  0  0  0  0  0
  -24.5884  -30.7090   25.6849 H   0  0  0  0  0  0
  -24.8506  -32.3038   26.3846 H   0  0  0  0  0  0
  -25.7283  -30.9147   26.9929 H   0  0  0  0  0  0
  -26.3686  -29.6728   24.0865 H   0  0  0  0  0  0
  -27.3035  -29.6870   25.5585 H   0  0  0  0  0  0
  -27.9950  -30.3778   24.1265 H   0  0  0  0  0  0
  -27.2920  -33.3647   26.1781 H   0  0  0  0  0  0
  -28.4319  -32.6188   25.0709 H   0  0  0  0  0  0
  -28.0389  -31.8411   26.5899 H   0  0  0  0  0  0
  -28.2623  -38.0072   24.7571 H   0  0  0  0  0  0
  -28.1116  -36.2655   24.6317 H   0  0  0  0  0  0
  -27.2263  -37.1398   25.8880 H   0  0  0  0  0  0
  -21.0041  -29.7970   21.5772 H   0  0  0  0  0  0
  -26.0078  -38.2676   24.1527 H   0  0  0  0  0  0
  -29.3922  -21.7986   16.9246 H   0  0  0  0  0  0
  -29.4035  -23.3469   15.3799 H   0  0  0  0  0  0
  -29.3392  -25.0725   15.6223 H   0  0  0  0  0  0
  -27.8405  -24.1368   15.4263 H   0  0  0  0  0  0
  -29.1864  -26.1284   20.7548 H   0  0  0  0  0  0
  -29.4325  -24.6535   21.6543 H   0  0  0  0  0  0
  -27.8148  -25.1973   21.4264 H   0  0  0  0  0  0
  -25.3425  -30.5162   15.7658 H   0  0  0  0  0  0
  -24.3093  -31.3789   16.8754 H   0  0  0  0  0  0
  -24.2142  -29.6296   16.7889 H   0  0  0  0  0  0
  -26.2297  -25.8449   16.5253 H   0  0  0  0  0  0
  -27.1653  -26.8801   15.4429 H   0  0  0  0  0  0
  -25.5856  -27.4083   16.0596 H   0  0  0  0  0  0
  -29.1379  -26.6923   17.1358 H   0  0  0  0  0  0
  -28.9290  -27.0997   18.7443 H   0  0  0  0  0  0
  -30.3148  -20.7471   20.4265 H   0  0  0  0  0  0
  -30.6302  -20.3848   18.7805 H   0  0  0  0  0  0
  -28.4581  -18.8124   18.9210 H   0  0  0  0  0  0
  -28.5173  -19.0797   20.6261 H   0  0  0  0  0  0
  -30.9391  -17.8190   20.5549 H   0  0  0  0  0  0
  -30.6068  -17.5802   18.8833 H   0  0  0  0  0  0
  -28.1592  -29.4303   17.7856 H   0  0  0  0  0  0
  -27.3871  -29.3178   16.2840 H   0  0  0  0  0  0
  -24.2131  -31.0097   19.2504 H   0  0  0  0  0  0
  -25.5103  -31.6603   19.7331 H   0  0  0  0  0  0
  -26.5505  -31.2692   17.7543 H   0  0  0  0  0  0
  -28.6983  -15.9625   20.1636 H   0  0  0  0  0  0
  -26.5451  -27.4026   18.2666 H   0  0  0  0  0  0
  1 25  1  0  0  0
  1 30  2  0  0  0
  1 88  1  0  0  0
  2  3  1  0  0  0
  2 25  1  0  0  0
  2 90  1  0  0  0
  2 91  1  0  0  0
  3  4  1  0  0  0
  3 92  1  0  0  0
  3 93  1  0  0  0
  4  5  1  0  0  0
  4 94  1  0  0  0
  4 95  1  0  0  0
  5  6  1  0  0  0
  5 26  1  0  0  0
  5 96  1  0  0  0
  6 25  1  0  0  0
  6 97  1  0  0  0
  6 98  1  0  0  0
  7  8  2  0  0  0
  7 26  1  0  0  0
  7 29  1  0  0  0
  8  9  1  0  0  0
  8 22  1  0  0  0
  9 10  1  0  0  0
  9 27  2  0  0  0
 10 11  2  0  0  0
 10 15  1  0  0  0
 11 12  1  0  0  0
 11 99  1  0  0  0
 12 13  2  0  0  0
 12100  1  0  0  0
 13 14  1  0  0  0
 13 31  1  0  0  0
 14 15  2  0  0  0
 14101  1  0  0  0
 15102  1  0  0  0
 16 17  2  0  0  0
 16 21  1  0  0  0
 16 31  1  0  0  0
 17 18  1  0  0  0
 17103  1  0  0  0
 18 19  2  0  0  0
 18104  1  0  0  0
 19 20  1  0  0  0
 19 24  1  0  0  0
 20 21  2  0  0  0
 20105  1  0  0  0
 21 23  1  0  0  0
 22 28  1  0  0  0
 22 32  2  0  0  0
 26 27  1  0  0  0
 28106  1  0  0  0
 28107  1  0  0  0
 29108  1  0  0  0
 29109  1  0  0  0
 33 34  1  0  0  0
 33 66  1  0  0  0
 33 70  2  0  0  0
 34 36  1  0  0  0
 34 59  1  0  0  0
 34110  1  0  0  0
 35 44  2  0  0  0
 35 45  1  0  0  0
 35 68  1  0  0  0
 36 56  1  0  0  0
 36111  1  0  0  0
 37 39  1  0  0  0
 37 47  1  0  0  0
 37 66  1  0  0  0
 37112  1  0  0  0
 38 43  2  0  0  0
 38 46  1  0  0  0
 38 47  1  0  0  0
 39 64  1  0  0  0
 39 67  2  0  0  0
 40 52  1  0  0  0
 40 53  2  0  0  0
 40 58  1  0  0  0
 41113  1  0  0  0
 41114  1  0  0  0
 41115  1  0  0  0
 41 48  1  0  0  0
 42 43  1  0  0  0
 42 66  1  0  0  0
 42116  1  0  0  0
 42117  1  0  0  0
 43 44  1  0  0  0
 44118  1  0  0  0
 45 46  2  0  0  0
 45119  1  0  0  0
 46120  1  0  0  0
 47121  1  0  0  0
 47122  1  0  0  0
 48 56  1  0  0  0
 48 65  1  0  0  0
 48123  1  0  0  0
 49 50  1  0  0  0
 49 53  1  0  0  0
 49 64  1  0  0  0
 49124  1  0  0  0
 50 51  1  0  0  0
 50125  1  0  0  0
 50126  1  0  0  0
 51 52  1  0  0  0
 51127  1  0  0  0
 51128  1  0  0  0
 52129  1  0  0  0
 52130  1  0  0  0
 53 54  1  0  0  0
 54 55  2  0  0  0
 54131  1  0  0  0
 55 57  1  0  0  0
 55132  1  0  0  0
 56 69  2  0  0  0
 57 58  2  0  0  0
 57133  1  0  0  0
 58134  1  0  0  0
 59 60  1  0  0  0
 59 61  1  0  0  0
 59 62  1  0  0  0
 60135  1  0  0  0
 60136  1  0  0  0
 60137  1  0  0  0
 61138  1  0  0  0
 61139  1  0  0  0
 61140  1  0  0  0
 62141  1  0  0  0
 62142  1  0  0  0
 62143  1  0  0  0
 63 65  1  0  0  0
 63144  1  0  0  0
 63145  1  0  0  0
 63146  1  0  0  0
 64147  1  0  0  0
 65148  1  0  0  0
 68 85  1  0  0  0
 71 72  2  0  0  0
 71 74  1  0  0  0
 71149  1  0  0  0
 72 73  1  0  0  0
 72 76  1  0  0  0
 73 75  2  0  0  0
 73 80  1  0  0  0
 74 81  1  0  0  0
 74 87  2  0  0  0
 75 77  1  0  0  0
 75 87  1  0  0  0
 76150  1  0  0  0
 76151  1  0  0  0
 76152  1  0  0  0
 77153  1  0  0  0
 77154  1  0  0  0
 77155  1  0  0  0
 78156  1  0  0  0
 78157  1  0  0  0
 78158  1  0  0  0
 78 86  1  0  0  0
 79159  1  0  0  0
 79160  1  0  0  0
 79161  1  0  0  0
 79 89  1  0  0  0
 80 89  1  0  0  0
 80162  1  0  0  0
 80163  1  0  0  0
 81 82  1  0  0  0
 81164  1  0  0  0
 81165  1  0  0  0
 82 83  1  0  0  0
 82166  1  0  0  0
 82167  1  0  0  0
 83 88  1  0  0  0
 83168  1  0  0  0
 83169  1  0  0  0
 84 86  1  0  0  0
 84 89  1  0  0  0
 84170  1  0  0  0
 84171  1  0  0  0
 85 86  1  0  0  0
 85172  1  0  0  0
 85173  1  0  0  0
 86174  1  0  0  0
 88175  1  0  0  0
 89176  1  0  0  0
M  CHG  1  89   1
M  ISO  4   1 100  68 101  85 101  88 100
M  END
> <chiral flag>
0

> <version>
0

> <s_m_source_file>
/data/baiqing/PycharmProjects/Reinvent-master-3.2/result/LINK_invent/BTK/process_docking_weight1_custom_sum_contain_oxygen_bond_distance_aromatic_linkinvent_7_9_3/rearranged_h_0082.sdf

> <i_m_source_file_index>
19

> <r_mmod_Potential_Energy-OPLS-2005>
8740.724609375

> <r_mmod_Stretch_Energy-OPLS-2005>
3771.224609375

> <r_mmod_Bend_Energy-OPLS-2005>
682.819702148438

> <r_mmod_Torsional_Energy-OPLS-2005>
618.231323242188

> <r_mmod_Improper_Torsional_Energy-OPLS-2005>
93.6397552490234

> <r_mmod_Van_der_Waal_Energy-OPLS-2005>
1972.17553710938

> <r_mmod_Electrostatic_Energy-OPLS-2005>
-472.662200927734

> <r_mmod_Solvation_Energy-OPLS-2005>
-423.679229736328

> <b_mmod_Minimization_Converged-OPLS-2005>
0

> <r_mmod_RMS_Derivative-OPLS-2005>
15.5164842605591

$$$$
19
                    3D
 Structure written by MMmdl.
164172  0  0  1  0            999 V2000
  -30.6224  -14.7248   20.5264 C   0  0  0  0  0  0
  -30.4436  -12.4365   19.5210 C   0  0  0  0  0  0
  -29.5403  -12.4885   18.2689 C   0  0  0  0  0  0
  -28.0598  -12.3180   18.6563 C   0  0  0  0  0  0
  -27.6545  -13.2255   19.8512 C   0  0  2  0  0  0
  -28.6828  -13.1495   21.0045 C   0  0  0  0  0  0
  -25.2552  -13.8165   20.5587 C   0  0  0  0  0  0
  -24.1837  -13.0454   20.9122 C   0  0  0  0  0  0
  -24.6422  -11.6920   20.8745 C   0  0  0  0  0  0
  -23.9142  -10.4300   21.0405 C   0  0  0  0  0  0
  -24.3698   -9.4198   21.9182 C   0  0  0  0  0  0
  -23.6311   -8.2261   22.0778 C   0  0  0  0  0  0
  -22.4289   -8.0309   21.3568 C   0  0  0  0  0  0
  -21.9961   -9.0313   20.4690 C   0  0  0  0  0  0
  -22.7327  -10.2149   20.3057 C   0  0  0  0  0  0
  -21.6855   -6.0754   22.5288 C   0  0  0  0  0  0
  -21.4024   -6.5651   23.8232 C   0  0  0  0  0  0
  -21.3653   -5.6795   24.9197 C   0  0  0  0  0  0
  -21.6021   -4.3055   24.7229 C   0  0  0  0  0  0
  -21.8820   -3.8164   23.4349 C   0  0  0  0  0  0
  -21.9189   -4.6982   22.3408 C   0  0  0  0  0  0
  -22.7854  -13.5248   21.1761 C   0  0  0  0  0  0
  -22.1638   -4.2163   21.0982 F   0  0  0  0  0  0
  -21.5636   -3.4538   25.7743 F   0  0  0  0  0  0
  -29.9970  -13.5016   20.4507 N   0  0  0  0  0  0
  -26.2986  -12.9372   20.3190 N   0  0  0  0  0  0
  -25.9340  -11.6531   20.5735 N   0  0  0  0  0  0
  -22.0498  -12.8324   22.0369 N   0  0  0  0  0  0
  -25.4233  -15.1893   20.3986 N   0  0  0  0  0  0
  -31.7794  -14.8526   20.1083 O   0  0  0  0  0  0
  -21.6637   -6.8909   21.4257 O   0  0  0  0  0  0
  -22.3546  -14.5534   20.6532 O   0  0  0  0  0  0
  -24.6343  -31.8582   23.2030 C   0  0  0  0  0  0
  -25.9167  -32.4776   23.8360 C   0  0  1  0  0  0
  -27.2254  -27.2571   20.0984 C   0  0  0  0  0  0
  -25.6004  -33.8580   24.2325 N   0  0  0  0  0  0
  -23.4306  -30.4809   21.5473 C   0  0  2  0  0  0
  -24.8799  -28.9391   20.0998 C   0  0  0  0  0  0
  -22.7532  -29.4637   22.4962 C   0  0  0  0  0  0
  -18.0313  -28.1422   22.8511 C   0  0  0  0  0  0
  -24.1483  -36.7249   23.2641 C   0  0  0  0  0  0
  -25.9788  -30.7639   21.3875 C   0  0  0  0  0  0
  -26.0518  -29.3881   20.7204 C   0  0  0  0  0  0
  -27.2233  -28.5596   20.7135 C   0  0  0  0  0  0
  -26.0310  -26.9018   19.4225 C   0  0  0  0  0  0
  -24.8790  -27.7066   19.4345 C   0  0  0  0  0  0
  -23.6460  -29.8189   20.1613 C   0  0  0  0  0  0
  -25.4109  -36.3098   24.0360 C   0  0  1  0  0  0
  -20.5921  -28.3730   23.1298 C   0  0  2  0  0  0
  -20.6822  -26.9446   22.5433 C   0  0  0  0  0  0
  -19.5777  -26.6424   21.5257 C   0  0  0  0  0  0
  -18.1949  -26.7971   22.1652 C   0  0  0  0  0  0
  -19.1567  -28.8902   23.2902 C   0  0  0  0  0  0
  -18.9479  -30.1507   23.8891 C   0  0  0  0  0  0
  -17.6472  -30.6619   24.0572 C   0  0  0  0  0  0
  -25.9065  -34.9463   23.5140 C   0  0  0  0  0  0
  -16.5368  -29.9106   23.6336 C   0  0  0  0  0  0
  -16.7299  -28.6540   23.0343 C   0  0  0  0  0  0
  -26.4537  -31.6582   25.0723 C   0  0  0  0  0  0
  -25.3764  -31.3711   26.1436 C   0  0  0  0  0  0
  -27.0376  -30.3015   24.6176 C   0  0  0  0  0  0
  -27.6137  -32.4320   25.7429 C   0  0  0  0  0  0
  -27.5585  -37.1754   24.8484 C   0  0  0  0  0  0
  -21.4256  -29.3054   22.3673 N   0  0  0  0  0  0
  -26.4289  -37.3800   23.9445 N   0  0  0  0  0  0
  -24.6993  -31.0514   22.1019 N   0  0  0  0  0  0
  -23.4221  -28.8177   23.3083 O   0  0  0  0  0  0
  -28.3173  -26.3453   20.1771 O   0  0  0  0  0  0
  -26.5598  -34.8931   22.4685 O   0  0  0  0  0  0
  -23.5501  -32.1426   23.7320 O   0  0  0  0  0  0
  -27.3918  -20.6175   22.1989 C   0  0  0  0  0  0
  -26.5437  -21.4453   22.9530 C   0  0  0  0  0  0
  -28.3327  -21.1432   21.2728 C   0  0  0  0  0  0
  -26.6435  -22.8260   22.7906 C   0  0  0  0  0  0
  -28.2758  -22.6147   21.1092 C   0  0  0  0  0  0
  -24.2913  -23.7314   23.1711 C   0  0  0  0  0  0
  -28.5504  -25.1267   18.1112 C   0  0  0  0  0  0
  -29.2791  -20.0388   20.6025 C   0  0  0  0  0  0
  -25.7736  -23.8105   23.5539 C   0  0  0  0  0  0
  -29.0349  -23.6223   20.1685 C   0  0  0  0  0  0
  -29.1992  -18.4826   21.1332 C   0  0  0  0  0  0
  -30.2182  -17.3202   20.6487 C   0  0  0  0  0  0
  -28.2229  -24.9427   19.6062 C   0  0  1  0  0  0
  -27.4832  -23.3658   21.9009 N   0  0  0  0  0  0
  -29.8870  -15.8417   20.8931 N   0  0  0  0  0  0
  -31.4956  -12.5432   19.2496 H   0  0  0  0  0  0
  -30.3765  -11.4644   20.0095 H   0  0  0  0  0  0
  -29.8403  -11.7019   17.5753 H   0  0  0  0  0  0
  -29.6749  -13.4366   17.7461 H   0  0  0  0  0  0
  -27.9211  -11.2711   18.9270 H   0  0  0  0  0  0
  -27.4174  -12.4833   17.7899 H   0  0  0  0  0  0
  -27.6644  -14.2468   19.4671 H   0  0  0  0  0  0
  -28.7133  -12.1456   21.4305 H   0  0  0  0  0  0
  -28.4006  -13.8143   21.8218 H   0  0  0  0  0  0
  -25.2848   -9.5618   22.4758 H   0  0  0  0  0  0
  -23.9990   -7.4658   22.7506 H   0  0  0  0  0  0
  -21.0888   -8.8863   19.9020 H   0  0  0  0  0  0
  -22.3822  -10.9691   19.6168 H   0  0  0  0  0  0
  -21.2015   -7.6162   23.9745 H   0  0  0  0  0  0
  -21.1464   -6.0525   25.9093 H   0  0  0  0  0  0
  -22.0593   -2.7623   23.2848 H   0  0  0  0  0  0
  -22.4127  -12.0041   22.4843 H   0  0  0  0  0  0
  -21.1104  -13.1350   22.2493 H   0  0  0  0  0  0
  -24.6479  -15.8327   20.5142 H   0  0  0  0  0  0
  -26.2588  -15.6377   20.0459 H   0  0  0  0  0  0
  -26.7195  -32.5382   23.1064 H   0  0  0  0  0  0
  -25.0207  -33.9722   25.0509 H   0  0  0  0  0  0
  -22.7240  -31.3011   21.4039 H   0  0  0  0  0  0
  -23.3805  -35.9530   23.3317 H   0  0  0  0  0  0
  -24.3585  -36.8833   22.2055 H   0  0  0  0  0  0
  -23.7138  -37.6426   23.6616 H   0  0  0  0  0  0
  -26.1227  -31.5294   20.6230 H   0  0  0  0  0  0
  -26.8566  -30.8118   22.0215 H   0  0  0  0  0  0
  -28.1196  -28.8969   21.2150 H   0  0  0  0  0  0
  -25.9298  -25.9874   18.8608 H   0  0  0  0  0  0
  -23.9913  -27.3713   18.9168 H   0  0  0  0  0  0
  -23.7521  -30.5935   19.3992 H   0  0  0  0  0  0
  -22.7625  -29.2488   19.8697 H   0  0  0  0  0  0
  -25.1265  -36.1987   25.0857 H   0  0  0  0  0  0
  -21.0025  -28.3305   24.1418 H   0  0  0  0  0  0
  -20.5821  -26.2307   23.3617 H   0  0  0  0  0  0
  -21.6653  -26.7512   22.1135 H   0  0  0  0  0  0
  -19.6920  -25.6349   21.1244 H   0  0  0  0  0  0
  -19.6695  -27.3263   20.6799 H   0  0  0  0  0  0
  -17.4220  -26.6775   21.4036 H   0  0  0  0  0  0
  -18.0305  -26.0121   22.9045 H   0  0  0  0  0  0
  -19.7945  -30.7375   24.2213 H   0  0  0  0  0  0
  -17.5001  -31.6268   24.5223 H   0  0  0  0  0  0
  -15.5353  -30.2991   23.7698 H   0  0  0  0  0  0
  -15.8700  -28.0864   22.7029 H   0  0  0  0  0  0
  -24.5966  -30.7045   25.7730 H   0  0  0  0  0  0
  -24.8904  -32.2852   26.4854 H   0  0  0  0  0  0
  -25.8082  -30.8868   27.0196 H   0  0  0  0  0  0
  -26.2935  -29.6736   24.1247 H   0  0  0  0  0  0
  -27.4141  -29.7323   25.4675 H   0  0  0  0  0  0
  -27.8793  -30.4344   23.9379 H   0  0  0  0  0  0
  -27.2829  -33.3679   26.1956 H   0  0  0  0  0  0
  -28.3911  -32.6778   25.0180 H   0  0  0  0  0  0
  -28.0831  -31.8447   26.5331 H   0  0  0  0  0  0
  -28.2622  -38.0039   24.7580 H   0  0  0  0  0  0
  -28.1062  -36.2568   24.6270 H   0  0  0  0  0  0
  -27.2299  -37.1365   25.8890 H   0  0  0  0  0  0
  -20.9506  -29.8664   21.6737 H   0  0  0  0  0  0
  -26.0195  -38.2887   24.1490 H   0  0  0  0  0  0
  -27.2902  -19.5563   22.3640 H   0  0  0  0  0  0
  -25.8388  -21.0263   23.6573 H   0  0  0  0  0  0
  -23.7286  -24.5260   23.6612 H   0  0  0  0  0  0
  -23.8587  -22.7745   23.4706 H   0  0  0  0  0  0
  -24.1522  -23.8465   22.0947 H   0  0  0  0  0  0
  -28.1134  -24.3420   17.4916 H   0  0  0  0  0  0
  -29.6275  -25.1289   17.9428 H   0  0  0  0  0  0
  -28.1767  -26.0795   17.7417 H   0  0  0  0  0  0
  -30.3071  -20.3939   20.6904 H   0  0  0  0  0  0
  -29.0542  -20.0280   19.5355 H   0  0  0  0  0  0
  -26.1258  -24.8211   23.3370 H   0  0  0  0  0  0
  -25.9034  -23.6650   24.6260 H   0  0  0  0  0  0
  -29.9602  -23.9269   20.6599 H   0  0  0  0  0  0
  -29.3561  -23.0103   19.3198 H   0  0  0  0  0  0
  -28.1944  -18.1116   20.9342 H   0  0  0  0  0  0
  -29.2903  -18.5044   22.2203 H   0  0  0  0  0  0
  -30.3824  -17.4368   19.5789 H   0  0  0  0  0  0
  -31.1877  -17.5213   21.1075 H   0  0  0  0  0  0
  -27.1840  -24.6266   19.6538 H   0  0  0  0  0  0
  -28.9787  -15.6437   21.2901 H   0  0  0  0  0  0
  1 25  1  0  0  0
  1 30  2  0  0  0
  1 85  1  0  0  0
  2  3  1  0  0  0
  2 25  1  0  0  0
  2 86  1  0  0  0
  2 87  1  0  0  0
  3  4  1  0  0  0
  3 88  1  0  0  0
  3 89  1  0  0  0
  4  5  1  0  0  0
  4 90  1  0  0  0
  4 91  1  0  0  0
  5  6  1  0  0  0
  5 26  1  0  0  0
  5 92  1  0  0  0
  6 25  1  0  0  0
  6 93  1  0  0  0
  6 94  1  0  0  0
  7  8  2  0  0  0
  7 26  1  0  0  0
  7 29  1  0  0  0
  8  9  1  0  0  0
  8 22  1  0  0  0
  9 10  1  0  0  0
  9 27  2  0  0  0
 10 11  2  0  0  0
 10 15  1  0  0  0
 11 12  1  0  0  0
 11 95  1  0  0  0
 12 13  2  0  0  0
 12 96  1  0  0  0
 13 14  1  0  0  0
 13 31  1  0  0  0
 14 15  2  0  0  0
 14 97  1  0  0  0
 15 98  1  0  0  0
 16 17  2  0  0  0
 16 21  1  0  0  0
 16 31  1  0  0  0
 17 18  1  0  0  0
 17 99  1  0  0  0
 18 19  2  0  0  0
 18100  1  0  0  0
 19 20  1  0  0  0
 19 24  1  0  0  0
 20 21  2  0  0  0
 20101  1  0  0  0
 21 23  1  0  0  0
 22 28  1  0  0  0
 22 32  2  0  0  0
 26 27  1  0  0  0
 28102  1  0  0  0
 28103  1  0  0  0
 29104  1  0  0  0
 29105  1  0  0  0
 33 34  1  0  0  0
 33 66  1  0  0  0
 33 70  2  0  0  0
 34 36  1  0  0  0
 34 59  1  0  0  0
 34106  1  0  0  0
 35 44  2  0  0  0
 35 45  1  0  0  0
 35 68  1  0  0  0
 36 56  1  0  0  0
 36107  1  0  0  0
 37 39  1  0  0  0
 37 47  1  0  0  0
 37 66  1  0  0  0
 37108  1  0  0  0
 38 43  2  0  0  0
 38 46  1  0  0  0
 38 47  1  0  0  0
 39 64  1  0  0  0
 39 67  2  0  0  0
 40 52  1  0  0  0
 40 53  2  0  0  0
 40 58  1  0  0  0
 41109  1  0  0  0
 41110  1  0  0  0
 41111  1  0  0  0
 41 48  1  0  0  0
 42 43  1  0  0  0
 42 66  1  0  0  0
 42112  1  0  0  0
 42113  1  0  0  0
 43 44  1  0  0  0
 44114  1  0  0  0
 45 46  2  0  0  0
 45115  1  0  0  0
 46116  1  0  0  0
 47117  1  0  0  0
 47118  1  0  0  0
 48 56  1  0  0  0
 48 65  1  0  0  0
 48119  1  0  0  0
 49 50  1  0  0  0
 49 53  1  0  0  0
 49 64  1  0  0  0
 49120  1  0  0  0
 50 51  1  0  0  0
 50121  1  0  0  0
 50122  1  0  0  0
 51 52  1  0  0  0
 51123  1  0  0  0
 51124  1  0  0  0
 52125  1  0  0  0
 52126  1  0  0  0
 53 54  1  0  0  0
 54 55  2  0  0  0
 54127  1  0  0  0
 55 57  1  0  0  0
 55128  1  0  0  0
 56 69  2  0  0  0
 57 58  2  0  0  0
 57129  1  0  0  0
 58130  1  0  0  0
 59 60  1  0  0  0
 59 61  1  0  0  0
 59 62  1  0  0  0
 60131  1  0  0  0
 60132  1  0  0  0
 60133  1  0  0  0
 61134  1  0  0  0
 61135  1  0  0  0
 61136  1  0  0  0
 62137  1  0  0  0
 62138  1  0  0  0
 62139  1  0  0  0
 63 65  1  0  0  0
 63140  1  0  0  0
 63141  1  0  0  0
 63142  1  0  0  0
 64143  1  0  0  0
 65144  1  0  0  0
 68 83  1  0  0  0
 71 72  2  0  0  0
 71 73  1  0  0  0
 71145  1  0  0  0
 72 74  1  0  0  0
 72146  1  0  0  0
 73 75  2  0  0  0
 73 78  1  0  0  0
 74 79  1  0  0  0
 74 84  2  0  0  0
 75 80  1  0  0  0
 75 84  1  0  0  0
 76 79  1  0  0  0
 76147  1  0  0  0
 76148  1  0  0  0
 76149  1  0  0  0
 77150  1  0  0  0
 77151  1  0  0  0
 77152  1  0  0  0
 77 83  1  0  0  0
 78 81  1  0  0  0
 78153  1  0  0  0
 78154  1  0  0  0
 79155  1  0  0  0
 79156  1  0  0  0
 80 83  1  0  0  0
 80157  1  0  0  0
 80158  1  0  0  0
 81 82  1  0  0  0
 81159  1  0  0  0
 81160  1  0  0  0
 82 85  1  0  0  0
 82161  1  0  0  0
 82162  1  0  0  0
 83163  1  0  0  0
 85164  1  0  0  0
M  ISO  4   1 100  68 101  83 101  85 100
M  END
> <chiral flag>
0

> <version>
0

> <s_m_source_file>
/data/baiqing/PycharmProjects/Reinvent-master-3.2/result/LINK_invent/BTK/process_docking_weight1_custom_sum_contain_oxygen_bond_distance_aromatic_linkinvent_7_9_3/rearranged_h_0082.sdf

> <i_m_source_file_index>
20

> <r_mmod_Potential_Energy-OPLS-2005>
79.2183074951172

> <r_mmod_Stretch_Energy-OPLS-2005>
149.658172607422

> <r_mmod_Bend_Energy-OPLS-2005>
210.319763183594

> <r_mmod_Torsional_Energy-OPLS-2005>
200.615478515625

> <r_mmod_Improper_Torsional_Energy-OPLS-2005>
4.32629871368408

> <r_mmod_Van_der_Waal_Energy-OPLS-2005>
146.212478637695

> <r_mmod_Electrostatic_Energy-OPLS-2005>
-493.888977050781

> <r_mmod_Solvation_Energy-OPLS-2005>
-221.9892578125

> <b_mmod_Minimization_Converged-OPLS-2005>
0

> <r_mmod_RMS_Derivative-OPLS-2005>
6.2641658782959

$$$$
20
                    3D
 Structure written by MMmdl.
170178  0  0  1  0            999 V2000
  -30.7582  -14.3908   20.6169 C   0  0  0  0  0  0
  -30.4157  -12.2844   19.3881 C   0  0  0  0  0  0
  -29.4831  -12.5209   18.1861 C   0  0  0  0  0  0
  -28.0063  -12.3879   18.6053 C   0  0  0  0  0  0
  -27.6663  -13.2078   19.8788 C   0  0  2  0  0  0
  -28.7114  -12.9567   20.9887 C   0  0  0  0  0  0
  -25.2616  -13.8177   20.5694 C   0  0  0  0  0  0
  -24.1866  -13.0436   20.9176 C   0  0  0  0  0  0
  -24.6420  -11.6903   20.8736 C   0  0  0  0  0  0
  -23.9075  -10.4293   21.0400 C   0  0  0  0  0  0
  -24.3617   -9.4212   21.9182 C   0  0  0  0  0  0
  -23.6297   -8.2241   22.0753 C   0  0  0  0  0  0
  -22.4276   -8.0282   21.3540 C   0  0  0  0  0  0
  -21.9916   -9.0255   20.4633 C   0  0  0  0  0  0
  -22.7244  -10.2132   20.3051 C   0  0  0  0  0  0
  -21.6856   -6.0737   22.5272 C   0  0  0  0  0  0
  -21.4015   -6.5639   23.8205 C   0  0  0  0  0  0
  -21.3659   -5.6797   24.9177 C   0  0  0  0  0  0
  -21.6045   -4.3060   24.7225 C   0  0  0  0  0  0
  -21.8819   -3.8144   23.4350 C   0  0  0  0  0  0
  -21.9193   -4.6964   22.3404 C   0  0  0  0  0  0
  -22.7887  -13.5232   21.1821 C   0  0  0  0  0  0
  -22.1660   -4.2151   21.0980 F   0  0  0  0  0  0
  -21.5631   -3.4539   25.7742 F   0  0  0  0  0  0
  -30.0480  -13.2465   20.4367 N   0  0  0  0  0  0
  -26.3062  -12.9335   20.3397 N   0  0  0  0  0  0
  -25.9345  -11.6485   20.5757 N   0  0  0  0  0  0
  -22.0523  -12.8224   22.0376 N   0  0  0  0  0  0
  -25.4330  -15.1879   20.4102 N   0  0  0  0  0  0
  -31.8292  -14.6245   20.0537 O   0  0  0  0  0  0
  -21.6637   -6.8876   21.4230 O   0  0  0  0  0  0
  -22.3571  -14.5541   20.6670 O   0  0  0  0  0  0
  -24.6059  -31.8651   23.2068 C   0  0  0  0  0  0
  -25.8935  -32.4813   23.8370 C   0  0  1  0  0  0
  -27.2438  -27.4454   20.1035 C   0  0  0  0  0  0
  -25.5761  -33.8619   24.2253 N   0  0  0  0  0  0
  -23.4011  -30.4849   21.5504 C   0  0  2  0  0  0
  -24.8515  -28.9549   20.1151 C   0  0  0  0  0  0
  -22.7386  -29.4616   22.5002 C   0  0  0  0  0  0
  -18.0263  -28.1407   22.8529 C   0  0  0  0  0  0
  -24.1477  -36.7362   23.2639 C   0  0  0  0  0  0
  -25.9284  -30.8314   21.3672 C   0  0  0  0  0  0
  -26.0097  -29.4693   20.7144 C   0  0  0  0  0  0
  -27.2093  -28.7239   20.7004 C   0  0  0  0  0  0
  -26.0714  -26.9427   19.4947 C   0  0  0  0  0  0
  -24.8786  -27.6911   19.4995 C   0  0  0  0  0  0
  -23.6085  -29.8159   20.1664 C   0  0  0  0  0  0
  -25.4096  -36.3112   24.0311 C   0  0  1  0  0  0
  -20.5844  -28.3686   23.1366 C   0  0  2  0  0  0
  -20.6769  -26.9434   22.5448 C   0  0  0  0  0  0
  -19.5745  -26.6425   21.5251 C   0  0  0  0  0  0
  -18.1923  -26.7954   22.1663 C   0  0  0  0  0  0
  -19.1510  -28.8877   23.2944 C   0  0  0  0  0  0
  -18.9429  -30.1492   23.8929 C   0  0  0  0  0  0
  -17.6427  -30.6620   24.0614 C   0  0  0  0  0  0
  -25.9009  -34.9471   23.5105 C   0  0  0  0  0  0
  -16.5317  -29.9122   23.6364 C   0  0  0  0  0  0
  -16.7250  -28.6556   23.0355 C   0  0  0  0  0  0
  -26.4370  -31.6643   25.0737 C   0  0  0  0  0  0
  -25.3631  -31.3812   26.1499 C   0  0  0  0  0  0
  -27.0236  -30.3068   24.6191 C   0  0  0  0  0  0
  -27.5913  -32.4412   25.7504 C   0  0  0  0  0  0
  -27.5585  -37.1791   24.8415 C   0  0  0  0  0  0
  -21.4113  -29.3021   22.3744 N   0  0  0  0  0  0
  -26.4288  -37.3783   23.9381 N   0  0  0  0  0  0
  -24.6636  -31.0738   22.0996 N   0  0  0  0  0  0
  -23.4147  -28.8165   23.3055 O   0  0  0  0  0  0
  -28.4162  -26.7203   20.1193 O   0  0  0  0  0  0
  -26.5675  -34.8913   22.4731 O   0  0  0  0  0  0
  -23.5231  -32.1417   23.7418 O   0  0  0  0  0  0
  -31.0154  -22.1820   20.2835 C   0  0  0  0  0  0
  -29.2233  -21.0042   21.3807 C   0  0  0  0  0  0
  -29.8886  -22.2209   21.1309 C   0  0  0  0  0  0
  -31.4267  -20.9478   19.7446 C   0  0  0  0  0  0
  -29.7132  -19.8051   20.8197 C   0  0  0  0  0  0
  -32.6393  -20.8665   18.8399 C   0  0  0  0  0  0
  -28.6876  -17.6591   19.8859 C   0  0  0  0  0  0
  -30.4766  -18.5313   23.3066 C   0  0  0  0  0  0
  -28.6272  -16.8824   23.1155 C   0  0  0  0  0  0
  -29.4548  -23.4868   21.8703 C   0  0  0  0  0  0
  -29.5813  -24.8430   21.1311 C   0  0  0  0  0  0
  -30.7761  -16.5910   21.7762 C   0  0  0  0  0  0
  -28.2846  -25.3363   20.4656 C   0  0  0  0  0  0
  -29.0564  -18.4565   21.1538 C   0  0  1  0  0  0
  -29.7306  -17.6147   22.3089 C   0  0  0  0  0  0
  -30.8026  -19.7828   20.0168 N   0  0  0  0  0  0
  -30.1988  -15.2920   21.4283 N   0  0  0  0  0  0
  -31.4586  -12.3758   19.0782 H   0  0  0  0  0  0
  -30.3063  -11.2662   19.7612 H   0  0  0  0  0  0
  -29.7083  -11.8147   17.3856 H   0  0  0  0  0  0
  -29.6619  -13.5158   17.7757 H   0  0  0  0  0  0
  -27.8025  -11.3306   18.7779 H   0  0  0  0  0  0
  -27.3566  -12.6889   17.7831 H   0  0  0  0  0  0
  -27.7210  -14.2614   19.6061 H   0  0  0  0  0  0
  -28.6755  -11.9151   21.3102 H   0  0  0  0  0  0
  -28.4750  -13.5391   21.8799 H   0  0  0  0  0  0
  -25.2762   -9.5693   22.4763 H   0  0  0  0  0  0
  -24.0000   -7.4644   22.7492 H   0  0  0  0  0  0
  -21.0843   -8.8774   19.8952 H   0  0  0  0  0  0
  -22.3698  -10.9672   19.6160 H   0  0  0  0  0  0
  -21.2002   -7.6148   23.9713 H   0  0  0  0  0  0
  -21.1481   -6.0526   25.9082 H   0  0  0  0  0  0
  -22.0597   -2.7609   23.2850 H   0  0  0  0  0  0
  -22.4110  -11.9873   22.4760 H   0  0  0  0  0  0
  -21.1128  -13.1245   22.2546 H   0  0  0  0  0  0
  -24.6671  -15.8449   20.5193 H   0  0  0  0  0  0
  -26.2884  -15.6243   20.0902 H   0  0  0  0  0  0
  -26.7014  -32.5529   23.1145 H   0  0  0  0  0  0
  -24.9754  -33.9772   25.0282 H   0  0  0  0  0  0
  -22.6901  -31.3024   21.4132 H   0  0  0  0  0  0
  -23.3703  -35.9723   23.3267 H   0  0  0  0  0  0
  -24.3556  -36.9057   22.2058 H   0  0  0  0  0  0
  -23.7266  -37.6545   23.6745 H   0  0  0  0  0  0
  -26.0408  -31.5927   20.5947 H   0  0  0  0  0  0
  -26.8129  -30.8788   21.9921 H   0  0  0  0  0  0
  -28.1064  -29.1126   21.1643 H   0  0  0  0  0  0
  -26.0814  -25.9805   19.0047 H   0  0  0  0  0  0
  -23.9930  -27.2947   19.0221 H   0  0  0  0  0  0
  -23.7007  -30.5886   19.4022 H   0  0  0  0  0  0
  -22.7341  -29.2277   19.8826 H   0  0  0  0  0  0
  -25.1253  -36.1994   25.0800 H   0  0  0  0  0  0
  -20.9966  -28.3282   24.1476 H   0  0  0  0  0  0
  -20.5759  -26.2264   23.3610 H   0  0  0  0  0  0
  -21.6631  -26.7551   22.1181 H   0  0  0  0  0  0
  -19.6906  -25.6350   21.1261 H   0  0  0  0  0  0
  -19.6693  -27.3280   20.6813 H   0  0  0  0  0  0
  -17.4192  -26.6754   21.4063 H   0  0  0  0  0  0
  -18.0287  -26.0083   22.9041 H   0  0  0  0  0  0
  -19.7907  -30.7330   24.2276 H   0  0  0  0  0  0
  -17.4985  -31.6295   24.5228 H   0  0  0  0  0  0
  -15.5324  -30.3027   23.7704 H   0  0  0  0  0  0
  -15.8639  -28.0925   22.6984 H   0  0  0  0  0  0
  -24.5688  -30.7300   25.7826 H   0  0  0  0  0  0
  -24.8956  -32.3028   26.4993 H   0  0  0  0  0  0
  -25.7931  -30.8894   27.0241 H   0  0  0  0  0  0
  -26.2861  -29.6837   24.1121 H   0  0  0  0  0  0
  -27.3837  -29.7276   25.4703 H   0  0  0  0  0  0
  -27.8740  -30.4342   23.9489 H   0  0  0  0  0  0
  -27.2476  -33.3686   26.2102 H   0  0  0  0  0  0
  -28.3701  -32.7046   25.0341 H   0  0  0  0  0  0
  -28.0625  -31.8574   26.5419 H   0  0  0  0  0  0
  -28.2497  -38.0175   24.7509 H   0  0  0  0  0  0
  -28.1193  -36.2694   24.6191 H   0  0  0  0  0  0
  -27.2295  -37.1335   25.8807 H   0  0  0  0  0  0
  -20.9252  -29.8655   21.6913 H   0  0  0  0  0  0
  -26.0179  -38.2848   24.1433 H   0  0  0  0  0  0
  -31.5886  -23.0724   20.0681 H   0  0  0  0  0  0
  -28.3735  -20.9811   22.0489 H   0  0  0  0  0  0
  -32.7687  -21.7994   18.2927 H   0  0  0  0  0  0
  -32.5486  -20.0616   18.1094 H   0  0  0  0  0  0
  -33.5377  -20.6913   19.4308 H   0  0  0  0  0  0
  -28.0672  -18.2517   19.2146 H   0  0  0  0  0  0
  -28.1323  -16.7581   20.1338 H   0  0  0  0  0  0
  -29.5726  -17.3625   19.3240 H   0  0  0  0  0  0
  -30.8631  -17.9709   24.1591 H   0  0  0  0  0  0
  -29.8218  -19.3059   23.7060 H   0  0  0  0  0  0
  -31.3287  -19.0257   22.8390 H   0  0  0  0  0  0
  -29.0522  -16.1835   23.8371 H   0  0  0  0  0  0
  -27.9490  -16.3169   22.4750 H   0  0  0  0  0  0
  -28.0134  -17.5878   23.6757 H   0  0  0  0  0  0
  -30.0745  -23.5326   22.7667 H   0  0  0  0  0  0
  -28.4336  -23.3600   22.2349 H   0  0  0  0  0  0
  -30.4158  -24.8648   20.4343 H   0  0  0  0  0  0
  -29.8343  -25.5841   21.8904 H   0  0  0  0  0  0
  -31.5335  -16.3879   22.5351 H   0  0  0  0  0  0
  -31.3198  -17.0206   20.9325 H   0  0  0  0  0  0
  -27.4643  -25.2116   21.1755 H   0  0  0  0  0  0
  -28.0539  -24.7374   19.5837 H   0  0  0  0  0  0
  -28.0885  -18.7611   21.5534 H   0  0  0  0  0  0
  -29.3202  -15.0488   21.8572 H   0  0  0  0  0  0
  1 25  1  0  0  0
  1 30  2  0  0  0
  1 87  1  0  0  0
  2  3  1  0  0  0
  2 25  1  0  0  0
  2 88  1  0  0  0
  2 89  1  0  0  0
  3  4  1  0  0  0
  3 90  1  0  0  0
  3 91  1  0  0  0
  4  5  1  0  0  0
  4 92  1  0  0  0
  4 93  1  0  0  0
  5  6  1  0  0  0
  5 26  1  0  0  0
  5 94  1  0  0  0
  6 25  1  0  0  0
  6 95  1  0  0  0
  6 96  1  0  0  0
  7  8  2  0  0  0
  7 26  1  0  0  0
  7 29  1  0  0  0
  8  9  1  0  0  0
  8 22  1  0  0  0
  9 10  1  0  0  0
  9 27  2  0  0  0
 10 11  2  0  0  0
 10 15  1  0  0  0
 11 12  1  0  0  0
 11 97  1  0  0  0
 12 13  2  0  0  0
 12 98  1  0  0  0
 13 14  1  0  0  0
 13 31  1  0  0  0
 14 15  2  0  0  0
 14 99  1  0  0  0
 15100  1  0  0  0
 16 17  2  0  0  0
 16 21  1  0  0  0
 16 31  1  0  0  0
 17 18  1  0  0  0
 17101  1  0  0  0
 18 19  2  0  0  0
 18102  1  0  0  0
 19 20  1  0  0  0
 19 24  1  0  0  0
 20 21  2  0  0  0
 20103  1  0  0  0
 21 23  1  0  0  0
 22 28  1  0  0  0
 22 32  2  0  0  0
 26 27  1  0  0  0
 28104  1  0  0  0
 28105  1  0  0  0
 29106  1  0  0  0
 29107  1  0  0  0
 33 34  1  0  0  0
 33 66  1  0  0  0
 33 70  2  0  0  0
 34 36  1  0  0  0
 34 59  1  0  0  0
 34108  1  0  0  0
 35 44  2  0  0  0
 35 45  1  0  0  0
 35 68  1  0  0  0
 36 56  1  0  0  0
 36109  1  0  0  0
 37 39  1  0  0  0
 37 47  1  0  0  0
 37 66  1  0  0  0
 37110  1  0  0  0
 38 43  2  0  0  0
 38 46  1  0  0  0
 38 47  1  0  0  0
 39 64  1  0  0  0
 39 67  2  0  0  0
 40 52  1  0  0  0
 40 53  2  0  0  0
 40 58  1  0  0  0
 41111  1  0  0  0
 41112  1  0  0  0
 41113  1  0  0  0
 41 48  1  0  0  0
 42 43  1  0  0  0
 42 66  1  0  0  0
 42114  1  0  0  0
 42115  1  0  0  0
 43 44  1  0  0  0
 44116  1  0  0  0
 45 46  2  0  0  0
 45117  1  0  0  0
 46118  1  0  0  0
 47119  1  0  0  0
 47120  1  0  0  0
 48 56  1  0  0  0
 48 65  1  0  0  0
 48121  1  0  0  0
 49 50  1  0  0  0
 49 53  1  0  0  0
 49 64  1  0  0  0
 49122  1  0  0  0
 50 51  1  0  0  0
 50123  1  0  0  0
 50124  1  0  0  0
 51 52  1  0  0  0
 51125  1  0  0  0
 51126  1  0  0  0
 52127  1  0  0  0
 52128  1  0  0  0
 53 54  1  0  0  0
 54 55  2  0  0  0
 54129  1  0  0  0
 55 57  1  0  0  0
 55130  1  0  0  0
 56 69  2  0  0  0
 57 58  2  0  0  0
 57131  1  0  0  0
 58132  1  0  0  0
 59 60  1  0  0  0
 59 61  1  0  0  0
 59 62  1  0  0  0
 60133  1  0  0  0
 60134  1  0  0  0
 60135  1  0  0  0
 61136  1  0  0  0
 61137  1  0  0  0
 61138  1  0  0  0
 62139  1  0  0  0
 62140  1  0  0  0
 62141  1  0  0  0
 63 65  1  0  0  0
 63142  1  0  0  0
 63143  1  0  0  0
 63144  1  0  0  0
 64145  1  0  0  0
 65146  1  0  0  0
 68 83  1  0  0  0
 71 73  2  0  0  0
 71 74  1  0  0  0
 71147  1  0  0  0
 72 73  1  0  0  0
 72 75  2  0  0  0
 72148  1  0  0  0
 73 80  1  0  0  0
 74 76  1  0  0  0
 74 86  2  0  0  0
 75 84  1  0  0  0
 75 86  1  0  0  0
 76149  1  0  0  0
 76150  1  0  0  0
 76151  1  0  0  0
 77152  1  0  0  0
 77153  1  0  0  0
 77154  1  0  0  0
 77 84  1  0  0  0
 78155  1  0  0  0
 78156  1  0  0  0
 78157  1  0  0  0
 78 85  1  0  0  0
 79 85  1  0  0  0
 79158  1  0  0  0
 79159  1  0  0  0
 79160  1  0  0  0
 80 81  1  0  0  0
 80161  1  0  0  0
 80162  1  0  0  0
 81 83  1  0  0  0
 81163  1  0  0  0
 81164  1  0  0  0
 82 85  1  0  0  0
 82 87  1  0  0  0
 82165  1  0  0  0
 82166  1  0  0  0
 83167  1  0  0  0
 83168  1  0  0  0
 84 85  1  0  0  0
 84169  1  0  0  0
 87170  1  0  0  0
M  ISO  4   1 100  68 101  83 101  87 100
M  END
> <chiral flag>
0

> <version>
0

> <s_m_source_file>
/data/baiqing/PycharmProjects/Reinvent-master-3.2/result/LINK_invent/BTK/process_docking_weight1_custom_sum_contain_oxygen_bond_distance_aromatic_linkinvent_7_9_3/rearranged_h_0082.sdf

> <i_m_source_file_index>
21

> <r_mmod_Potential_Energy-OPLS-2005>
-235.845062255859

> <r_mmod_Stretch_Energy-OPLS-2005>
38.1047325134277

> <r_mmod_Bend_Energy-OPLS-2005>
107.199005126953

> <r_mmod_Torsional_Energy-OPLS-2005>
224.081665039062

> <r_mmod_Improper_Torsional_Energy-OPLS-2005>
2.37967395782471

> <r_mmod_Van_der_Waal_Energy-OPLS-2005>
160.038543701172

> <r_mmod_Electrostatic_Energy-OPLS-2005>
-569.251281738281

> <r_mmod_Solvation_Energy-OPLS-2005>
-207.544036865234

> <b_mmod_Minimization_Converged-OPLS-2005>
0

> <r_mmod_RMS_Derivative-OPLS-2005>
3.21976852416992

$$$$
21
                    3D
 Structure written by MMmdl.
160168  0  0  1  0            999 V2000
  -30.7039  -14.5596   20.5759 C   0  0  0  0  0  0
  -30.4495  -12.3627   19.4336 C   0  0  0  0  0  0
  -29.5180  -12.4956   18.2139 C   0  0  0  0  0  0
  -28.0353  -12.3374   18.6185 C   0  0  0  0  0  0
  -27.6571  -13.2077   19.8530 C   0  0  2  0  0  0
  -28.7062  -13.0470   20.9761 C   0  0  0  0  0  0
  -25.2557  -13.8094   20.5681 C   0  0  0  0  0  0
  -24.1879  -13.0407   20.9227 C   0  0  0  0  0  0
  -24.6388  -11.6868   20.8805 C   0  0  0  0  0  0
  -23.8994  -10.4347   21.0492 C   0  0  0  0  0  0
  -24.3608   -9.4216   21.9145 C   0  0  0  0  0  0
  -23.6267   -8.2294   22.0763 C   0  0  0  0  0  0
  -22.4200   -8.0347   21.3652 C   0  0  0  0  0  0
  -21.9755   -9.0396   20.4821 C   0  0  0  0  0  0
  -22.7101  -10.2267   20.3221 C   0  0  0  0  0  0
  -21.6791   -6.0768   22.5394 C   0  0  0  0  0  0
  -21.3999   -6.5636   23.8346 C   0  0  0  0  0  0
  -21.3712   -5.6729   24.9291 C   0  0  0  0  0  0
  -21.6020   -4.3012   24.7256 C   0  0  0  0  0  0
  -21.8808   -3.8150   23.4369 C   0  0  0  0  0  0
  -21.9190   -4.7009   22.3443 C   0  0  0  0  0  0
  -22.7891  -13.5174   21.1893 C   0  0  0  0  0  0
  -22.1657   -4.2199   21.1027 F   0  0  0  0  0  0
  -21.5600   -3.4472   25.7759 F   0  0  0  0  0  0
  -30.0358  -13.3730   20.4330 N   0  0  0  0  0  0
  -26.3009  -12.9268   20.3260 N   0  0  0  0  0  0
  -25.9315  -11.6446   20.5785 N   0  0  0  0  0  0
  -22.0442  -12.8212   22.0392 N   0  0  0  0  0  0
  -25.4162  -15.1834   20.3996 N   0  0  0  0  0  0
  -31.8418  -14.7300   20.1333 O   0  0  0  0  0  0
  -21.6543   -6.8947   21.4367 O   0  0  0  0  0  0
  -22.3649  -14.5462   20.6616 O   0  0  0  0  0  0
  -24.6151  -31.8646   23.2059 C   0  0  0  0  0  0
  -25.9045  -32.4804   23.8341 C   0  0  1  0  0  0
  -27.2425  -27.4100   20.1163 C   0  0  0  0  0  0
  -25.5895  -33.8602   24.2276 N   0  0  0  0  0  0
  -23.4029  -30.4818   21.5529 C   0  0  2  0  0  0
  -24.8525  -28.9353   20.1265 C   0  0  0  0  0  0
  -22.7395  -29.4623   22.5052 C   0  0  0  0  0  0
  -18.0251  -28.1336   22.8517 C   0  0  0  0  0  0
  -24.1498  -36.7282   23.2623 C   0  0  0  0  0  0
  -25.9303  -30.8235   21.3624 C   0  0  0  0  0  0
  -26.0124  -29.4507   20.7208 C   0  0  0  0  0  0
  -27.2096  -28.6969   20.7068 C   0  0  0  0  0  0
  -26.0633  -26.9046   19.5261 C   0  0  0  0  0  0
  -24.8708  -27.6623   19.5278 C   0  0  0  0  0  0
  -23.6131  -29.8027   20.1742 C   0  0  0  0  0  0
  -25.4118  -36.3081   24.0317 C   0  0  1  0  0  0
  -20.5835  -28.3616   23.1340 C   0  0  2  0  0  0
  -20.6735  -26.9363   22.5411 C   0  0  0  0  0  0
  -19.5731  -26.6372   21.5187 C   0  0  0  0  0  0
  -18.1916  -26.7887   22.1615 C   0  0  0  0  0  0
  -19.1493  -28.8781   23.2923 C   0  0  0  0  0  0
  -18.9440  -30.1396   23.8932 C   0  0  0  0  0  0
  -17.6442  -30.6568   24.0556 C   0  0  0  0  0  0
  -25.9042  -34.9454   23.5095 C   0  0  0  0  0  0
  -16.5335  -29.9082   23.6310 C   0  0  0  0  0  0
  -16.7237  -28.6467   23.0390 C   0  0  0  0  0  0
  -26.4501  -31.6585   25.0664 C   0  0  0  0  0  0
  -25.3756  -31.3671   26.1395 C   0  0  0  0  0  0
  -27.0325  -30.3025   24.6003 C   0  0  0  0  0  0
  -27.6073  -32.4284   25.7469 C   0  0  0  0  0  0
  -27.5586  -37.1772   24.8465 C   0  0  0  0  0  0
  -21.4117  -29.2988   22.3770 N   0  0  0  0  0  0
  -26.4291  -37.3781   23.9412 N   0  0  0  0  0  0
  -24.6681  -31.0699   22.1019 N   0  0  0  0  0  0
  -23.4128  -28.8171   23.3115 O   0  0  0  0  0  0
  -28.4292  -26.7090   20.0202 O   0  0  0  0  0  0
  -26.5643  -34.8922   22.4667 O   0  0  0  0  0  0
  -23.5318  -32.1437   23.7432 O   0  0  0  0  0  0
  -25.9716  -21.1144   21.1004 C   0  0  0  0  0  0
  -26.8536  -20.0055   21.1829 C   0  0  0  0  0  0
  -26.7386  -22.2275   20.9410 C   0  0  0  0  0  0
  -28.1517  -20.4464   21.0570 C   0  0  0  0  0  0
  -28.7261  -24.1968   19.9520 C   0  0  0  0  0  0
  -29.3898  -18.1039   20.7180 C   0  0  0  0  0  0
  -29.1433  -22.8713   20.7113 C   0  0  0  0  0  0
  -30.4432  -17.0396   21.2266 C   0  0  0  0  0  0
  -28.5919  -25.5040   20.7955 C   0  0  0  0  0  0
  -29.4200  -19.5995   21.2824 C   0  0  2  0  0  0
  -28.0770  -21.8601   20.8735 N   0  0  0  0  0  0
  -30.0138  -15.6059   21.1020 N   0  0  0  0  0  0
  -29.6238  -19.5836   22.7400 N   0  3  0  0  0  0
  -31.4823  -12.4913   19.1092 H   0  0  0  0  0  0
  -30.4092  -11.3574   19.8530 H   0  0  0  0  0  0
  -29.7926  -11.7652   17.4474 H   0  0  0  0  0  0
  -29.6883  -13.4746   17.7706 H   0  0  0  0  0  0
  -27.8849  -11.2828   18.8384 H   0  0  0  0  0  0
  -27.3903  -12.5624   17.7686 H   0  0  0  0  0  0
  -27.6719  -14.2463   19.5293 H   0  0  0  0  0  0
  -28.7185  -12.0138   21.3270 H   0  0  0  0  0  0
  -28.4426  -13.6647   21.8341 H   0  0  0  0  0  0
  -25.2822   -9.5635   22.4558 H   0  0  0  0  0  0
  -24.0101   -7.4814   22.7554 H   0  0  0  0  0  0
  -21.0580   -8.9038   19.9231 H   0  0  0  0  0  0
  -22.3577  -10.9951   19.6459 H   0  0  0  0  0  0
  -21.1966   -7.6117   23.9922 H   0  0  0  0  0  0
  -21.1492   -6.0395   25.9197 H   0  0  0  0  0  0
  -22.0472   -2.7597   23.2873 H   0  0  0  0  0  0
  -21.0877  -13.1014   22.2060 H   0  0  0  0  0  0
  -22.3935  -11.9962   22.5046 H   0  0  0  0  0  0
  -26.2542  -15.6175   20.0410 H   0  0  0  0  0  0
  -24.6709  -15.8447   20.5870 H   0  0  0  0  0  0
  -26.7084  -32.5520   23.1076 H   0  0  0  0  0  0
  -25.0066  -33.9789   25.0425 H   0  0  0  0  0  0
  -22.6910  -31.2955   21.4054 H   0  0  0  0  0  0
  -23.3784  -35.9593   23.3309 H   0  0  0  0  0  0
  -24.3563  -36.8895   22.2032 H   0  0  0  0  0  0
  -23.7236  -37.6477   23.6637 H   0  0  0  0  0  0
  -26.0323  -31.5944   20.5971 H   0  0  0  0  0  0
  -26.8218  -30.8845   21.9758 H   0  0  0  0  0  0
  -28.1103  -29.0997   21.1531 H   0  0  0  0  0  0
  -26.0703  -25.9325   19.0557 H   0  0  0  0  0  0
  -23.9785  -27.2605   19.0657 H   0  0  0  0  0  0
  -23.7088  -30.5727   19.4094 H   0  0  0  0  0  0
  -22.7448  -29.2111   19.8862 H   0  0  0  0  0  0
  -25.1292  -36.1946   25.0811 H   0  0  0  0  0  0
  -20.9864  -28.3147   24.1481 H   0  0  0  0  0  0
  -20.5576  -26.2220   23.3578 H   0  0  0  0  0  0
  -21.6629  -26.7418   22.1230 H   0  0  0  0  0  0
  -19.6927  -25.6289   21.1223 H   0  0  0  0  0  0
  -19.6693  -27.3190   20.6719 H   0  0  0  0  0  0
  -17.4169  -26.6619   21.4050 H   0  0  0  0  0  0
  -18.0375  -26.0013   22.8988 H   0  0  0  0  0  0
  -19.7926  -30.7195   24.2342 H   0  0  0  0  0  0
  -17.5021  -31.6280   24.5118 H   0  0  0  0  0  0
  -15.5346  -30.3007   23.7600 H   0  0  0  0  0  0
  -15.8643  -28.0779   22.7137 H   0  0  0  0  0  0
  -24.5938  -30.7056   25.7677 H   0  0  0  0  0  0
  -24.8962  -32.2832   26.4843 H   0  0  0  0  0  0
  -25.8083  -30.8806   27.0146 H   0  0  0  0  0  0
  -26.2852  -29.6782   24.1097 H   0  0  0  0  0  0
  -27.4182  -29.7239   25.4410 H   0  0  0  0  0  0
  -27.8648  -30.4370   23.9087 H   0  0  0  0  0  0
  -27.2690  -33.3542   26.2134 H   0  0  0  0  0  0
  -28.3879  -32.6901   25.0315 H   0  0  0  0  0  0
  -28.0765  -31.8357   26.5341 H   0  0  0  0  0  0
  -28.2576  -38.0106   24.7557 H   0  0  0  0  0  0
  -28.1123  -36.2628   24.6253 H   0  0  0  0  0  0
  -27.2290  -37.1356   25.8866 H   0  0  0  0  0  0
  -20.9240  -29.8693   21.7031 H   0  0  0  0  0  0
  -26.0199  -38.2846   24.1480 H   0  0  0  0  0  0
  -24.8922  -21.1019   21.1952 H   0  0  0  0  0  0
  -26.5435  -18.9891   21.3858 H   0  0  0  0  0  0
  -26.4421  -23.2667   20.8959 H   0  0  0  0  0  0
  -27.8198  -24.0466   19.3658 H   0  0  0  0  0  0
  -29.4941  -24.3957   19.2066 H   0  0  0  0  0  0
  -28.3967  -17.6839   20.8594 H   0  0  0  0  0  0
  -29.5337  -18.1536   19.6398 H   0  0  0  0  0  0
  -29.5461  -23.1049   21.6970 H   0  0  0  0  0  0
  -29.9536  -22.4041   20.1534 H   0  0  0  0  0  0
  -30.6754  -17.2108   22.2809 H   0  0  0  0  0  0
  -31.3705  -17.2305   20.6805 H   0  0  0  0  0  0
  -29.5430  -25.6453   21.3106 H   0  0  0  0  0  0
  -27.8231  -25.4233   21.5660 H   0  0  0  0  0  0
  -30.2683  -20.1213   20.8432 H   0  0  0  0  0  0
  -29.1020  -15.3720   21.4658 H   0  0  0  0  0  0
  -28.9009  -19.0265   23.1605 H   0  0  0  0  0  0
  -29.5489  -20.5169   23.1087 H   0  0  0  0  0  0
  -30.5282  -19.2224   22.9919 H   0  0  0  0  0  0
  1 25  1  0  0  0
  1 30  2  0  0  0
  1 82  1  0  0  0
  2  3  1  0  0  0
  2 25  1  0  0  0
  2 84  1  0  0  0
  2 85  1  0  0  0
  3  4  1  0  0  0
  3 86  1  0  0  0
  3 87  1  0  0  0
  4  5  1  0  0  0
  4 88  1  0  0  0
  4 89  1  0  0  0
  5  6  1  0  0  0
  5 26  1  0  0  0
  5 90  1  0  0  0
  6 25  1  0  0  0
  6 91  1  0  0  0
  6 92  1  0  0  0
  7  8  2  0  0  0
  7 26  1  0  0  0
  7 29  1  0  0  0
  8  9  1  0  0  0
  8 22  1  0  0  0
  9 10  1  0  0  0
  9 27  2  0  0  0
 10 11  2  0  0  0
 10 15  1  0  0  0
 11 12  1  0  0  0
 11 93  1  0  0  0
 12 13  2  0  0  0
 12 94  1  0  0  0
 13 14  1  0  0  0
 13 31  1  0  0  0
 14 15  2  0  0  0
 14 95  1  0  0  0
 15 96  1  0  0  0
 16 17  2  0  0  0
 16 21  1  0  0  0
 16 31  1  0  0  0
 17 18  1  0  0  0
 17 97  1  0  0  0
 18 19  2  0  0  0
 18 98  1  0  0  0
 19 20  1  0  0  0
 19 24  1  0  0  0
 20 21  2  0  0  0
 20 99  1  0  0  0
 21 23  1  0  0  0
 22 28  1  0  0  0
 22 32  2  0  0  0
 26 27  1  0  0  0
 28100  1  0  0  0
 28101  1  0  0  0
 29102  1  0  0  0
 29103  1  0  0  0
 33 34  1  0  0  0
 33 66  1  0  0  0
 33 70  2  0  0  0
 34 36  1  0  0  0
 34 59  1  0  0  0
 34104  1  0  0  0
 35 44  2  0  0  0
 35 45  1  0  0  0
 35 68  1  0  0  0
 36 56  1  0  0  0
 36105  1  0  0  0
 37 39  1  0  0  0
 37 47  1  0  0  0
 37 66  1  0  0  0
 37106  1  0  0  0
 38 43  2  0  0  0
 38 46  1  0  0  0
 38 47  1  0  0  0
 39 64  1  0  0  0
 39 67  2  0  0  0
 40 52  1  0  0  0
 40 53  2  0  0  0
 40 58  1  0  0  0
 41107  1  0  0  0
 41108  1  0  0  0
 41109  1  0  0  0
 41 48  1  0  0  0
 42 43  1  0  0  0
 42 66  1  0  0  0
 42110  1  0  0  0
 42111  1  0  0  0
 43 44  1  0  0  0
 44112  1  0  0  0
 45 46  2  0  0  0
 45113  1  0  0  0
 46114  1  0  0  0
 47115  1  0  0  0
 47116  1  0  0  0
 48 56  1  0  0  0
 48 65  1  0  0  0
 48117  1  0  0  0
 49 50  1  0  0  0
 49 53  1  0  0  0
 49 64  1  0  0  0
 49118  1  0  0  0
 50 51  1  0  0  0
 50119  1  0  0  0
 50120  1  0  0  0
 51 52  1  0  0  0
 51121  1  0  0  0
 51122  1  0  0  0
 52123  1  0  0  0
 52124  1  0  0  0
 53 54  1  0  0  0
 54 55  2  0  0  0
 54125  1  0  0  0
 55 57  1  0  0  0
 55126  1  0  0  0
 56 69  2  0  0  0
 57 58  2  0  0  0
 57127  1  0  0  0
 58128  1  0  0  0
 59 60  1  0  0  0
 59 61  1  0  0  0
 59 62  1  0  0  0
 60129  1  0  0  0
 60130  1  0  0  0
 60131  1  0  0  0
 61132  1  0  0  0
 61133  1  0  0  0
 61134  1  0  0  0
 62135  1  0  0  0
 62136  1  0  0  0
 62137  1  0  0  0
 63 65  1  0  0  0
 63138  1  0  0  0
 63139  1  0  0  0
 63140  1  0  0  0
 64141  1  0  0  0
 65142  1  0  0  0
 68 79  1  0  0  0
 71 72  1  0  0  0
 71 73  2  0  0  0
 71143  1  0  0  0
 72 74  2  0  0  0
 72144  1  0  0  0
 73 81  1  0  0  0
 73145  1  0  0  0
 74 80  1  0  0  0
 74 81  1  0  0  0
 75 77  1  0  0  0
 75 79  1  0  0  0
 75146  1  0  0  0
 75147  1  0  0  0
 76 78  1  0  0  0
 76 80  1  0  0  0
 76148  1  0  0  0
 76149  1  0  0  0
 77 81  1  0  0  0
 77150  1  0  0  0
 77151  1  0  0  0
 78 82  1  0  0  0
 78152  1  0  0  0
 78153  1  0  0  0
 79154  1  0  0  0
 79155  1  0  0  0
 80 83  1  0  0  0
 80156  1  0  0  0
 82157  1  0  0  0
 83158  1  0  0  0
 83159  1  0  0  0
 83160  1  0  0  0
M  CHG  1  83   1
M  ISO  4   1 100  68 101  79 101  82 100
M  END
> <chiral flag>
0

> <version>
0

> <s_m_source_file>
/data/baiqing/PycharmProjects/Reinvent-master-3.2/result/LINK_invent/BTK/process_docking_weight1_custom_sum_contain_oxygen_bond_distance_aromatic_linkinvent_7_9_3/rearranged_h_0082.sdf

> <i_m_source_file_index>
22

> <r_mmod_Potential_Energy-OPLS-2005>
-246.860549926758

> <r_mmod_Stretch_Energy-OPLS-2005>
61.6001281738281

> <r_mmod_Bend_Energy-OPLS-2005>
129.011917114258

> <r_mmod_Torsional_Energy-OPLS-2005>
258.576843261719

> <r_mmod_Improper_Torsional_Energy-OPLS-2005>
4.12023115158081

> <r_mmod_Van_der_Waal_Energy-OPLS-2005>
118.994049072266

> <r_mmod_Electrostatic_Energy-OPLS-2005>
-327.498352050781

> <r_mmod_Solvation_Energy-OPLS-2005>
-512.862365722656

> <b_mmod_Minimization_Converged-OPLS-2005>
0

> <r_mmod_RMS_Derivative-OPLS-2005>
9.6745080947876

$$$$
22
                    3D
 Structure written by MMmdl.
159167  0  0  1  0            999 V2000
  -30.6707  -14.5162   20.5409 C   0  0  0  0  0  0
  -30.4274  -12.3258   19.4274 C   0  0  0  0  0  0
  -29.4952  -12.4964   18.2089 C   0  0  0  0  0  0
  -28.0169  -12.3562   18.6232 C   0  0  0  0  0  0
  -27.6575  -13.2077   19.8703 C   0  0  2  0  0  0
  -28.7005  -13.0083   20.9930 C   0  0  0  0  0  0
  -25.2574  -13.8164   20.5683 C   0  0  0  0  0  0
  -24.1829  -13.0442   20.9192 C   0  0  0  0  0  0
  -24.6385  -11.6907   20.8744 C   0  0  0  0  0  0
  -23.9052  -10.4294   21.0410 C   0  0  0  0  0  0
  -24.3610   -9.4207   21.9184 C   0  0  0  0  0  0
  -23.6292   -8.2236   22.0750 C   0  0  0  0  0  0
  -22.4271   -8.0275   21.3539 C   0  0  0  0  0  0
  -21.9905   -9.0250   20.4639 C   0  0  0  0  0  0
  -22.7230  -10.2133   20.3055 C   0  0  0  0  0  0
  -21.6849   -6.0734   22.5279 C   0  0  0  0  0  0
  -21.4011   -6.5639   23.8211 C   0  0  0  0  0  0
  -21.3656   -5.6792   24.9175 C   0  0  0  0  0  0
  -21.6041   -4.3055   24.7224 C   0  0  0  0  0  0
  -21.8823   -3.8145   23.4345 C   0  0  0  0  0  0
  -21.9194   -4.6962   22.3403 C   0  0  0  0  0  0
  -22.7850  -13.5230   21.1866 C   0  0  0  0  0  0
  -22.1662   -4.2150   21.0980 F   0  0  0  0  0  0
  -21.5631   -3.4538   25.7736 F   0  0  0  0  0  0
  -30.0263  -13.3212   20.4350 N   0  0  0  0  0  0
  -26.3001  -12.9332   20.3346 N   0  0  0  0  0  0
  -25.9308  -11.6492   20.5765 N   0  0  0  0  0  0
  -22.0498  -12.8209   22.0416 N   0  0  0  0  0  0
  -25.4309  -15.1881   20.4080 N   0  0  0  0  0  0
  -31.8155  -14.6949   20.1171 O   0  0  0  0  0  0
  -21.6634   -6.8873   21.4236 O   0  0  0  0  0  0
  -22.3535  -14.5543   20.6727 O   0  0  0  0  0  0
  -24.6159  -31.8651   23.2073 C   0  0  0  0  0  0
  -25.9039  -32.4805   23.8384 C   0  0  1  0  0  0
  -27.2374  -27.4176   20.1049 C   0  0  0  0  0  0
  -25.5890  -33.8604   24.2314 N   0  0  0  0  0  0
  -23.4063  -30.4860   21.5478 C   0  0  2  0  0  0
  -24.8550  -28.9457   20.1150 C   0  0  0  0  0  0
  -22.7420  -29.4643   22.4988 C   0  0  0  0  0  0
  -18.0272  -28.1380   22.8484 C   0  0  0  0  0  0
  -24.1488  -36.7311   23.2639 C   0  0  0  0  0  0
  -25.9345  -30.8275   21.3606 C   0  0  0  0  0  0
  -26.0149  -29.4597   20.7091 C   0  0  0  0  0  0
  -27.2121  -28.7050   20.6954 C   0  0  0  0  0  0
  -26.0653  -26.9202   19.5022 C   0  0  0  0  0  0
  -24.8759  -27.6769   19.5067 C   0  0  0  0  0  0
  -23.6157  -29.8127   20.1642 C   0  0  0  0  0  0
  -25.4108  -36.3099   24.0333 C   0  0  1  0  0  0
  -20.5863  -28.3672   23.1310 C   0  0  2  0  0  0
  -20.6762  -26.9406   22.5416 C   0  0  0  0  0  0
  -19.5744  -26.6385   21.5206 C   0  0  0  0  0  0
  -18.1922  -26.7925   22.1617 C   0  0  0  0  0  0
  -19.1522  -28.8841   23.2891 C   0  0  0  0  0  0
  -18.9450  -30.1445   23.8907 C   0  0  0  0  0  0
  -17.6455  -30.6585   24.0566 C   0  0  0  0  0  0
  -25.9033  -34.9462   23.5124 C   0  0  0  0  0  0
  -16.5344  -29.9089   23.6326 C   0  0  0  0  0  0
  -16.7262  -28.6506   23.0341 C   0  0  0  0  0  0
  -26.4469  -31.6586   25.0716 C   0  0  0  0  0  0
  -25.3732  -31.3673   26.1460 C   0  0  0  0  0  0
  -27.0304  -30.3037   24.6082 C   0  0  0  0  0  0
  -27.6051  -32.4302   25.7466 C   0  0  0  0  0  0
  -27.5579  -37.1805   24.8464 C   0  0  0  0  0  0
  -21.4145  -29.3034   22.3720 N   0  0  0  0  0  0
  -26.4293  -37.3785   23.9407 N   0  0  0  0  0  0
  -24.6707  -31.0737   22.0977 N   0  0  0  0  0  0
  -23.4175  -28.8193   23.3051 O   0  0  0  0  0  0
  -28.3934  -26.6595   20.0994 O   0  0  0  0  0  0
  -26.5607  -34.8916   22.4691 O   0  0  0  0  0  0
  -23.5348  -32.1405   23.7460 O   0  0  0  0  0  0
  -28.7014  -20.3879   21.1940 C   0  0  0  0  0  0
  -29.8610  -21.2963   19.6069 C   0  0  0  0  0  0
  -29.2242  -19.3811   20.4003 C   0  0  0  0  0  0
  -30.7642  -17.4276   22.3268 C   0  0  0  0  0  0
  -27.5513  -25.6115   22.2249 C   0  0  0  0  0  0
  -29.0206  -17.8671   20.4845 C   0  0  0  0  0  0
  -28.4881  -24.1278   20.3064 C   0  0  0  0  0  0
  -28.8750  -22.9511   21.2637 C   0  0  0  0  0  0
  -30.2368  -16.9975   20.9471 C   0  0  1  0  0  0
  -28.5008  -25.5293   21.0076 C   0  0  1  0  0  0
  -29.9612  -19.9838   19.3777 N   0  0  0  0  0  0
  -29.1124  -21.6215   20.6725 N   0  0  0  0  0  0
  -29.9080  -15.5486   20.9692 N   0  0  0  0  0  0
  -31.4701  -12.4365   19.1234 H   0  0  0  0  0  0
  -30.3422  -11.3196   19.8401 H   0  0  0  0  0  0
  -29.7380  -11.7570   17.4446 H   0  0  0  0  0  0
  -29.6571  -13.4738   17.7522 H   0  0  0  0  0  0
  -27.8331  -11.3023   18.8335 H   0  0  0  0  0  0
  -27.3641  -12.6157   17.7886 H   0  0  0  0  0  0
  -27.6942  -14.2514   19.5580 H   0  0  0  0  0  0
  -28.6845  -11.9770   21.3488 H   0  0  0  0  0  0
  -28.4617  -13.6213   21.8634 H   0  0  0  0  0  0
  -25.2757   -9.5680   22.4756 H   0  0  0  0  0  0
  -24.0007   -7.4620   22.7461 H   0  0  0  0  0  0
  -21.0840   -8.8764   19.8936 H   0  0  0  0  0  0
  -22.3692  -10.9672   19.6161 H   0  0  0  0  0  0
  -21.2001   -7.6148   23.9714 H   0  0  0  0  0  0
  -21.1473   -6.0523   25.9079 H   0  0  0  0  0  0
  -22.0605   -2.7608   23.2846 H   0  0  0  0  0  0
  -22.4128  -11.9869   22.4797 H   0  0  0  0  0  0
  -21.1113  -13.1214   22.2630 H   0  0  0  0  0  0
  -24.6644  -15.8439   20.5122 H   0  0  0  0  0  0
  -26.2756  -15.6203   20.0576 H   0  0  0  0  0  0
  -26.7110  -32.5523   23.1149 H   0  0  0  0  0  0
  -25.0041  -33.9762   25.0461 H   0  0  0  0  0  0
  -22.6974  -31.3042   21.4052 H   0  0  0  0  0  0
  -23.3744  -35.9651   23.3310 H   0  0  0  0  0  0
  -24.3579  -36.8922   22.2052 H   0  0  0  0  0  0
  -23.7248  -37.6519   23.6655 H   0  0  0  0  0  0
  -26.0447  -31.5927   20.5912 H   0  0  0  0  0  0
  -26.8222  -30.8845   21.9785 H   0  0  0  0  0  0
  -28.1105  -29.0965   21.1516 H   0  0  0  0  0  0
  -26.0748  -25.9453   19.0361 H   0  0  0  0  0  0
  -23.9846  -27.2767   19.0436 H   0  0  0  0  0  0
  -23.7238  -30.5849   19.4019 H   0  0  0  0  0  0
  -22.7402  -29.2305   19.8705 H   0  0  0  0  0  0
  -25.1284  -36.1965   25.0827 H   0  0  0  0  0  0
  -20.9948  -28.3241   24.1431 H   0  0  0  0  0  0
  -20.5654  -26.2282   23.3606 H   0  0  0  0  0  0
  -21.6638  -26.7446   22.1215 H   0  0  0  0  0  0
  -19.6909  -25.6296   21.1231 H   0  0  0  0  0  0
  -19.6687  -27.3202   20.6743 H   0  0  0  0  0  0
  -17.4192  -26.6672   21.4020 H   0  0  0  0  0  0
  -18.0326  -26.0069   22.9016 H   0  0  0  0  0  0
  -19.7927  -30.7248   24.2292 H   0  0  0  0  0  0
  -17.5010  -31.6265   24.5168 H   0  0  0  0  0  0
  -15.5343  -30.2990   23.7647 H   0  0  0  0  0  0
  -15.8660  -28.0828   22.7050 H   0  0  0  0  0  0
  -24.5918  -30.7011   25.7789 H   0  0  0  0  0  0
  -24.8902  -32.2811   26.4932 H   0  0  0  0  0  0
  -25.8082  -30.8828   27.0209 H   0  0  0  0  0  0
  -26.2848  -29.6780   24.1162 H   0  0  0  0  0  0
  -27.4119  -29.7287   25.4530 H   0  0  0  0  0  0
  -27.8657  -30.4375   23.9202 H   0  0  0  0  0  0
  -27.2697  -33.3603   26.2066 H   0  0  0  0  0  0
  -28.3839  -32.6853   25.0266 H   0  0  0  0  0  0
  -28.0742  -31.8406   26.5354 H   0  0  0  0  0  0
  -28.2599  -38.0101   24.7511 H   0  0  0  0  0  0
  -28.1073  -36.2631   24.6294 H   0  0  0  0  0  0
  -27.2292  -37.1457   25.8866 H   0  0  0  0  0  0
  -20.9317  -29.8768   21.6943 H   0  0  0  0  0  0
  -26.0182  -38.2863   24.1413 H   0  0  0  0  0  0
  -28.0805  -20.3236   22.0783 H   0  0  0  0  0  0
  -30.3602  -22.0354   18.9959 H   0  0  0  0  0  0
  -29.9926  -17.3465   23.0934 H   0  0  0  0  0  0
  -31.1042  -18.4635   22.3128 H   0  0  0  0  0  0
  -31.6113  -16.8151   22.6371 H   0  0  0  0  0  0
  -27.8121  -24.8798   22.9886 H   0  0  0  0  0  0
  -26.5137  -25.4341   21.9413 H   0  0  0  0  0  0
  -27.6086  -26.5879   22.7064 H   0  0  0  0  0  0
  -28.6945  -17.5051   19.5086 H   0  0  0  0  0  0
  -28.1802  -17.6663   21.1500 H   0  0  0  0  0  0
  -27.5090  -23.9403   19.8656 H   0  0  0  0  0  0
  -29.1940  -24.1588   19.4764 H   0  0  0  0  0  0
  -28.0971  -22.8347   22.0178 H   0  0  0  0  0  0
  -29.7818  -23.2202   21.8061 H   0  0  0  0  0  0
  -31.0366  -17.1611   20.2220 H   0  0  0  0  0  0
  -29.5051  -25.6437   21.4175 H   0  0  0  0  0  0
  -28.9760  -15.3008   21.2649 H   0  0  0  0  0  0
  1 25  1  0  0  0
  1 30  2  0  0  0
  1 83  1  0  0  0
  2  3  1  0  0  0
  2 25  1  0  0  0
  2 84  1  0  0  0
  2 85  1  0  0  0
  3  4  1  0  0  0
  3 86  1  0  0  0
  3 87  1  0  0  0
  4  5  1  0  0  0
  4 88  1  0  0  0
  4 89  1  0  0  0
  5  6  1  0  0  0
  5 26  1  0  0  0
  5 90  1  0  0  0
  6 25  1  0  0  0
  6 91  1  0  0  0
  6 92  1  0  0  0
  7  8  2  0  0  0
  7 26  1  0  0  0
  7 29  1  0  0  0
  8  9  1  0  0  0
  8 22  1  0  0  0
  9 10  1  0  0  0
  9 27  2  0  0  0
 10 11  2  0  0  0
 10 15  1  0  0  0
 11 12  1  0  0  0
 11 93  1  0  0  0
 12 13  2  0  0  0
 12 94  1  0  0  0
 13 14  1  0  0  0
 13 31  1  0  0  0
 14 15  2  0  0  0
 14 95  1  0  0  0
 15 96  1  0  0  0
 16 17  2  0  0  0
 16 21  1  0  0  0
 16 31  1  0  0  0
 17 18  1  0  0  0
 17 97  1  0  0  0
 18 19  2  0  0  0
 18 98  1  0  0  0
 19 20  1  0  0  0
 19 24  1  0  0  0
 20 21  2  0  0  0
 20 99  1  0  0  0
 21 23  1  0  0  0
 22 28  1  0  0  0
 22 32  2  0  0  0
 26 27  1  0  0  0
 28100  1  0  0  0
 28101  1  0  0  0
 29102  1  0  0  0
 29103  1  0  0  0
 33 34  1  0  0  0
 33 66  1  0  0  0
 33 70  2  0  0  0
 34 36  1  0  0  0
 34 59  1  0  0  0
 34104  1  0  0  0
 35 44  2  0  0  0
 35 45  1  0  0  0
 35 68  1  0  0  0
 36 56  1  0  0  0
 36105  1  0  0  0
 37 39  1  0  0  0
 37 47  1  0  0  0
 37 66  1  0  0  0
 37106  1  0  0  0
 38 43  2  0  0  0
 38 46  1  0  0  0
 38 47  1  0  0  0
 39 64  1  0  0  0
 39 67  2  0  0  0
 40 52  1  0  0  0
 40 53  2  0  0  0
 40 58  1  0  0  0
 41107  1  0  0  0
 41108  1  0  0  0
 41109  1  0  0  0
 41 48  1  0  0  0
 42 43  1  0  0  0
 42 66  1  0  0  0
 42110  1  0  0  0
 42111  1  0  0  0
 43 44  1  0  0  0
 44112  1  0  0  0
 45 46  2  0  0  0
 45113  1  0  0  0
 46114  1  0  0  0
 47115  1  0  0  0
 47116  1  0  0  0
 48 56  1  0  0  0
 48 65  1  0  0  0
 48117  1  0  0  0
 49 50  1  0  0  0
 49 53  1  0  0  0
 49 64  1  0  0  0
 49118  1  0  0  0
 50 51  1  0  0  0
 50119  1  0  0  0
 50120  1  0  0  0
 51 52  1  0  0  0
 51121  1  0  0  0
 51122  1  0  0  0
 52123  1  0  0  0
 52124  1  0  0  0
 53 54  1  0  0  0
 54 55  2  0  0  0
 54125  1  0  0  0
 55 57  1  0  0  0
 55126  1  0  0  0
 56 69  2  0  0  0
 57 58  2  0  0  0
 57127  1  0  0  0
 58128  1  0  0  0
 59 60  1  0  0  0
 59 61  1  0  0  0
 59 62  1  0  0  0
 60129  1  0  0  0
 60130  1  0  0  0
 60131  1  0  0  0
 61132  1  0  0  0
 61133  1  0  0  0
 61134  1  0  0  0
 62135  1  0  0  0
 62136  1  0  0  0
 62137  1  0  0  0
 63 65  1  0  0  0
 63138  1  0  0  0
 63139  1  0  0  0
 63140  1  0  0  0
 64141  1  0  0  0
 65142  1  0  0  0
 68 80  1  0  0  0
 71 73  2  0  0  0
 71 82  1  0  0  0
 71143  1  0  0  0
 72 81  2  0  0  0
 72 82  1  0  0  0
 72144  1  0  0  0
 73 76  1  0  0  0
 73 81  1  0  0  0
 74145  1  0  0  0
 74146  1  0  0  0
 74147  1  0  0  0
 74 79  1  0  0  0
 75148  1  0  0  0
 75149  1  0  0  0
 75150  1  0  0  0
 75 80  1  0  0  0
 76 79  1  0  0  0
 76151  1  0  0  0
 76152  1  0  0  0
 77 78  1  0  0  0
 77 80  1  0  0  0
 77153  1  0  0  0
 77154  1  0  0  0
 78 82  1  0  0  0
 78155  1  0  0  0
 78156  1  0  0  0
 79 83  1  0  0  0
 79157  1  0  0  0
 80158  1  0  0  0
 83159  1  0  0  0
M  ISO  4   1 100  68 101  80 101  83 100
M  END
> <chiral flag>
0

> <version>
0

> <s_m_source_file>
/data/baiqing/PycharmProjects/Reinvent-master-3.2/result/LINK_invent/BTK/process_docking_weight1_custom_sum_contain_oxygen_bond_distance_aromatic_linkinvent_7_9_3/rearranged_h_0082.sdf

> <i_m_source_file_index>
23

> <r_mmod_Potential_Energy-OPLS-2005>
-43.0621757507324

> <r_mmod_Stretch_Energy-OPLS-2005>
44.6225891113281

> <r_mmod_Bend_Energy-OPLS-2005>
114.863105773926

> <r_mmod_Torsional_Energy-OPLS-2005>
227.316680908203

> <r_mmod_Improper_Torsional_Energy-OPLS-2005>
4.83112955093384

> <r_mmod_Van_der_Waal_Energy-OPLS-2005>
119.501541137695

> <r_mmod_Electrostatic_Energy-OPLS-2005>
-344.977294921875

> <r_mmod_Solvation_Energy-OPLS-2005>
-226.377593994141

> <b_mmod_Minimization_Converged-OPLS-2005>
0

> <r_mmod_RMS_Derivative-OPLS-2005>
0.905953705310822

$$$$
23
                    3D
 Structure written by MMmdl.
159167  0  0  1  0            999 V2000
  -30.7170  -14.4863   20.6147 C   0  0  0  0  0  0
  -30.4099  -12.3402   19.4103 C   0  0  0  0  0  0
  -29.4784  -12.5383   18.1959 C   0  0  0  0  0  0
  -28.0015  -12.3961   18.6060 C   0  0  0  0  0  0
  -27.6552  -13.2149   19.8756 C   0  0  2  0  0  0
  -28.6974  -12.9822   20.9868 C   0  0  0  0  0  0
  -25.2584  -13.8174   20.5758 C   0  0  0  0  0  0
  -24.1830  -13.0436   20.9179 C   0  0  0  0  0  0
  -24.6393  -11.6900   20.8744 C   0  0  0  0  0  0
  -23.9063  -10.4284   21.0398 C   0  0  0  0  0  0
  -24.3608   -9.4204   21.9178 C   0  0  0  0  0  0
  -23.6288   -8.2243   22.0758 C   0  0  0  0  0  0
  -22.4275   -8.0275   21.3542 C   0  0  0  0  0  0
  -21.9897   -9.0258   20.4660 C   0  0  0  0  0  0
  -22.7222  -10.2133   20.3065 C   0  0  0  0  0  0
  -21.6852   -6.0740   22.5287 C   0  0  0  0  0  0
  -21.4021   -6.5645   23.8222 C   0  0  0  0  0  0
  -21.3663   -5.6794   24.9186 C   0  0  0  0  0  0
  -21.6035   -4.3061   24.7222 C   0  0  0  0  0  0
  -21.8819   -3.8146   23.4352 C   0  0  0  0  0  0
  -21.9199   -4.6976   22.3408 C   0  0  0  0  0  0
  -22.7862  -13.5256   21.1791 C   0  0  0  0  0  0
  -22.1673   -4.2166   21.0986 F   0  0  0  0  0  0
  -21.5615   -3.4532   25.7731 F   0  0  0  0  0  0
  -30.0240  -13.3199   20.4445 N   0  0  0  0  0  0
  -26.3003  -12.9347   20.3407 N   0  0  0  0  0  0
  -25.9322  -11.6494   20.5776 N   0  0  0  0  0  0
  -22.0460  -12.8314   22.0360 N   0  0  0  0  0  0
  -25.4324  -15.1907   20.4256 N   0  0  0  0  0  0
  -31.8039  -14.6768   20.0545 O   0  0  0  0  0  0
  -21.6640   -6.8871   21.4239 O   0  0  0  0  0  0
  -22.3584  -14.5570   20.6621 O   0  0  0  0  0  0
  -24.6198  -31.8657   23.2062 C   0  0  0  0  0  0
  -25.9074  -32.4812   23.8368 C   0  0  1  0  0  0
  -27.2222  -27.3921   20.1053 C   0  0  0  0  0  0
  -25.5917  -33.8610   24.2301 N   0  0  0  0  0  0
  -23.4103  -30.4888   21.5479 C   0  0  2  0  0  0
  -24.8565  -28.9523   20.1087 C   0  0  0  0  0  0
  -22.7448  -29.4658   22.4968 C   0  0  0  0  0  0
  -18.0287  -28.1396   22.8497 C   0  0  0  0  0  0
  -24.1492  -36.7305   23.2635 C   0  0  0  0  0  0
  -25.9446  -30.8160   21.3691 C   0  0  0  0  0  0
  -26.0202  -29.4494   20.7116 C   0  0  0  0  0  0
  -27.2108  -28.6770   20.7050 C   0  0  0  0  0  0
  -26.0459  -26.9263   19.4819 C   0  0  0  0  0  0
  -24.8664  -27.6926   19.4875 C   0  0  0  0  0  0
  -23.6198  -29.8223   20.1625 C   0  0  0  0  0  0
  -25.4119  -36.3105   24.0329 C   0  0  1  0  0  0
  -20.5883  -28.3691   23.1308 C   0  0  2  0  0  0
  -20.6793  -26.9422   22.5421 C   0  0  0  0  0  0
  -19.5768  -26.6392   21.5231 C   0  0  0  0  0  0
  -18.1941  -26.7942   22.1631 C   0  0  0  0  0  0
  -19.1537  -28.8860   23.2899 C   0  0  0  0  0  0
  -18.9463  -30.1468   23.8908 C   0  0  0  0  0  0
  -17.6466  -30.6600   24.0568 C   0  0  0  0  0  0
  -25.9052  -34.9470   23.5115 C   0  0  0  0  0  0
  -16.5356  -29.9101   23.6333 C   0  0  0  0  0  0
  -16.7277  -28.6518   23.0352 C   0  0  0  0  0  0
  -26.4477  -31.6602   25.0715 C   0  0  0  0  0  0
  -25.3725  -31.3716   26.1448 C   0  0  0  0  0  0
  -27.0312  -30.3039   24.6123 C   0  0  0  0  0  0
  -27.6043  -32.4330   25.7486 C   0  0  0  0  0  0
  -27.5585  -37.1817   24.8466 C   0  0  0  0  0  0
  -21.4168  -29.3044   22.3702 N   0  0  0  0  0  0
  -26.4305  -37.3793   23.9399 N   0  0  0  0  0  0
  -24.6763  -31.0722   22.0987 N   0  0  0  0  0  0
  -23.4196  -28.8204   23.3028 O   0  0  0  0  0  0
  -28.3297  -26.5623   20.1431 O   0  0  0  0  0  0
  -26.5616  -34.8926   22.4678 O   0  0  0  0  0  0
  -23.5378  -32.1425   23.7432 O   0  0  0  0  0  0
  -28.4585  -20.3031   20.3120 C   0  0  0  0  0  0
  -29.0778  -21.5276   20.4421 C   0  0  0  0  0  0
  -30.3446  -21.1655   21.0039 C   0  0  0  0  0  0
  -31.5047  -22.0429   21.3855 C   0  0  0  0  0  0
  -29.8929  -15.4228   22.7072 C   0  0  0  0  0  0
  -28.4996  -22.9046   20.0561 C   0  0  0  0  0  0
  -29.0769  -24.1587   20.7904 C   0  0  0  0  0  0
  -29.0559  -17.8508   20.8932 C   0  0  0  0  0  0
  -30.3132  -16.9236   20.8136 C   0  0  0  0  0  0
  -28.1196  -25.3855   20.9683 C   0  0  0  0  0  0
  -30.4608  -19.8542   21.2005 N   0  0  0  0  0  0
  -29.3108  -19.3012   20.7563 N   0  0  0  0  0  0
  -30.0830  -15.5161   21.2504 N   0  0  0  0  0  0
  -31.4528  -12.4312   19.1028 H   0  0  0  0  0  0
  -30.3053  -11.3277   19.8019 H   0  0  0  0  0  0
  -29.7132  -11.8130   17.4167 H   0  0  0  0  0  0
  -29.6421  -13.5258   17.7587 H   0  0  0  0  0  0
  -27.8014  -11.3376   18.7764 H   0  0  0  0  0  0
  -27.3528  -12.7016   17.7842 H   0  0  0  0  0  0
  -27.6974  -14.2688   19.5979 H   0  0  0  0  0  0
  -28.6973  -11.9383   21.3030 H   0  0  0  0  0  0
  -28.4211  -13.5432   21.8748 H   0  0  0  0  0  0
  -25.2734   -9.5709   22.4782 H   0  0  0  0  0  0
  -23.9998   -7.4658   22.7510 H   0  0  0  0  0  0
  -21.0805   -8.8781   19.9002 H   0  0  0  0  0  0
  -22.3647  -10.9693   19.6218 H   0  0  0  0  0  0
  -21.2019   -7.6154   23.9738 H   0  0  0  0  0  0
  -21.1490   -6.0518   25.9090 H   0  0  0  0  0  0
  -22.0600   -2.7614   23.2846 H   0  0  0  0  0  0
  -22.3988  -11.9969   22.4808 H   0  0  0  0  0  0
  -21.1112  -13.1459   22.2522 H   0  0  0  0  0  0
  -24.6724  -15.8480   20.5585 H   0  0  0  0  0  0
  -26.2975  -15.6371   20.1477 H   0  0  0  0  0  0
  -26.7141  -32.5503   23.1121 H   0  0  0  0  0  0
  -25.0068  -33.9763   25.0447 H   0  0  0  0  0  0
  -22.7013  -31.3074   21.4080 H   0  0  0  0  0  0
  -23.3754  -35.9642   23.3326 H   0  0  0  0  0  0
  -24.3574  -36.8898   22.2043 H   0  0  0  0  0  0
  -23.7253  -37.6519   23.6639 H   0  0  0  0  0  0
  -26.0702  -31.5823   20.6027 H   0  0  0  0  0  0
  -26.8279  -30.8627   21.9952 H   0  0  0  0  0  0
  -28.1057  -29.0454   21.1866 H   0  0  0  0  0  0
  -26.0347  -25.9547   19.0084 H   0  0  0  0  0  0
  -23.9735  -27.3073   19.0145 H   0  0  0  0  0  0
  -23.7261  -30.5967   19.4024 H   0  0  0  0  0  0
  -22.7430  -29.2426   19.8689 H   0  0  0  0  0  0
  -25.1303  -36.1965   25.0825 H   0  0  0  0  0  0
  -20.9978  -28.3269   24.1430 H   0  0  0  0  0  0
  -20.5740  -26.2294   23.3612 H   0  0  0  0  0  0
  -21.6658  -26.7493   22.1189 H   0  0  0  0  0  0
  -19.6933  -25.6303   21.1265 H   0  0  0  0  0  0
  -19.6711  -27.3200   20.6760 H   0  0  0  0  0  0
  -17.4219  -26.6700   21.4022 H   0  0  0  0  0  0
  -18.0329  -26.0084   22.9026 H   0  0  0  0  0  0
  -19.7937  -30.7287   24.2276 H   0  0  0  0  0  0
  -17.5019  -31.6282   24.5168 H   0  0  0  0  0  0
  -15.5358  -30.3007   23.7657 H   0  0  0  0  0  0
  -15.8676  -28.0846   22.7058 H   0  0  0  0  0  0
  -24.5879  -30.7105   25.7756 H   0  0  0  0  0  0
  -24.8945  -32.2878   26.4922 H   0  0  0  0  0  0
  -25.8050  -30.8836   27.0191 H   0  0  0  0  0  0
  -26.2868  -29.6809   24.1155 H   0  0  0  0  0  0
  -27.4041  -29.7269   25.4595 H   0  0  0  0  0  0
  -27.8722  -30.4342   23.9310 H   0  0  0  0  0  0
  -27.2653  -33.3616   26.2090 H   0  0  0  0  0  0
  -28.3840  -32.6923   25.0313 H   0  0  0  0  0  0
  -28.0732  -31.8448   26.5384 H   0  0  0  0  0  0
  -28.2616  -38.0101   24.7507 H   0  0  0  0  0  0
  -28.1072  -36.2636   24.6312 H   0  0  0  0  0  0
  -27.2298  -37.1488   25.8867 H   0  0  0  0  0  0
  -20.9348  -29.8722   21.6876 H   0  0  0  0  0  0
  -26.0194  -38.2875   24.1386 H   0  0  0  0  0  0
  -27.4697  -20.0608   19.9443 H   0  0  0  0  0  0
  -31.7302  -22.7666   20.6030 H   0  0  0  0  0  0
  -32.4122  -21.4611   21.5510 H   0  0  0  0  0  0
  -31.3018  -22.5926   22.3050 H   0  0  0  0  0  0
  -30.2208  -14.4660   23.1185 H   0  0  0  0  0  0
  -28.8393  -15.5413   22.9594 H   0  0  0  0  0  0
  -30.4455  -16.1960   23.2427 H   0  0  0  0  0  0
  -27.4233  -22.8844   20.2299 H   0  0  0  0  0  0
  -28.5992  -23.0638   18.9814 H   0  0  0  0  0  0
  -30.0306  -24.4659   20.3616 H   0  0  0  0  0  0
  -29.3053  -23.8321   21.8047 H   0  0  0  0  0  0
  -28.5481  -17.7088   21.8476 H   0  0  0  0  0  0
  -28.3416  -17.5557   20.1231 H   0  0  0  0  0  0
  -31.1279  -17.3329   21.4108 H   0  0  0  0  0  0
  -30.6763  -16.9496   19.7837 H   0  0  0  0  0  0
  -28.2458  -25.7418   21.9917 H   0  0  0  0  0  0
  -27.0880  -25.0327   20.9339 H   0  0  0  0  0  0
  1 25  1  0  0  0
  1 30  2  0  0  0
  1 83  1  0  0  0
  2  3  1  0  0  0
  2 25  1  0  0  0
  2 84  1  0  0  0
  2 85  1  0  0  0
  3  4  1  0  0  0
  3 86  1  0  0  0
  3 87  1  0  0  0
  4  5  1  0  0  0
  4 88  1  0  0  0
  4 89  1  0  0  0
  5  6  1  0  0  0
  5 26  1  0  0  0
  5 90  1  0  0  0
  6 25  1  0  0  0
  6 91  1  0  0  0
  6 92  1  0  0  0
  7  8  2  0  0  0
  7 26  1  0  0  0
  7 29  1  0  0  0
  8  9  1  0  0  0
  8 22  1  0  0  0
  9 10  1  0  0  0
  9 27  2  0  0  0
 10 11  2  0  0  0
 10 15  1  0  0  0
 11 12  1  0  0  0
 11 93  1  0  0  0
 12 13  2  0  0  0
 12 94  1  0  0  0
 13 14  1  0  0  0
 13 31  1  0  0  0
 14 15  2  0  0  0
 14 95  1  0  0  0
 15 96  1  0  0  0
 16 17  2  0  0  0
 16 21  1  0  0  0
 16 31  1  0  0  0
 17 18  1  0  0  0
 17 97  1  0  0  0
 18 19  2  0  0  0
 18 98  1  0  0  0
 19 20  1  0  0  0
 19 24  1  0  0  0
 20 21  2  0  0  0
 20 99  1  0  0  0
 21 23  1  0  0  0
 22 28  1  0  0  0
 22 32  2  0  0  0
 26 27  1  0  0  0
 28100  1  0  0  0
 28101  1  0  0  0
 29102  1  0  0  0
 29103  1  0  0  0
 33 34  1  0  0  0
 33 66  1  0  0  0
 33 70  2  0  0  0
 34 36  1  0  0  0
 34 59  1  0  0  0
 34104  1  0  0  0
 35 44  2  0  0  0
 35 45  1  0  0  0
 35 68  1  0  0  0
 36 56  1  0  0  0
 36105  1  0  0  0
 37 39  1  0  0  0
 37 47  1  0  0  0
 37 66  1  0  0  0
 37106  1  0  0  0
 38 43  2  0  0  0
 38 46  1  0  0  0
 38 47  1  0  0  0
 39 64  1  0  0  0
 39 67  2  0  0  0
 40 52  1  0  0  0
 40 53  2  0  0  0
 40 58  1  0  0  0
 41107  1  0  0  0
 41108  1  0  0  0
 41109  1  0  0  0
 41 48  1  0  0  0
 42 43  1  0  0  0
 42 66  1  0  0  0
 42110  1  0  0  0
 42111  1  0  0  0
 43 44  1  0  0  0
 44112  1  0  0  0
 45 46  2  0  0  0
 45113  1  0  0  0
 46114  1  0  0  0
 47115  1  0  0  0
 47116  1  0  0  0
 48 56  1  0  0  0
 48 65  1  0  0  0
 48117  1  0  0  0
 49 50  1  0  0  0
 49 53  1  0  0  0
 49 64  1  0  0  0
 49118  1  0  0  0
 50 51  1  0  0  0
 50119  1  0  0  0
 50120  1  0  0  0
 51 52  1  0  0  0
 51121  1  0  0  0
 51122  1  0  0  0
 52123  1  0  0  0
 52124  1  0  0  0
 53 54  1  0  0  0
 54 55  2  0  0  0
 54125  1  0  0  0
 55 57  1  0  0  0
 55126  1  0  0  0
 56 69  2  0  0  0
 57 58  2  0  0  0
 57127  1  0  0  0
 58128  1  0  0  0
 59 60  1  0  0  0
 59 61  1  0  0  0
 59 62  1  0  0  0
 60129  1  0  0  0
 60130  1  0  0  0
 60131  1  0  0  0
 61132  1  0  0  0
 61133  1  0  0  0
 61134  1  0  0  0
 62135  1  0  0  0
 62136  1  0  0  0
 62137  1  0  0  0
 63 65  1  0  0  0
 63138  1  0  0  0
 63139  1  0  0  0
 63140  1  0  0  0
 64141  1  0  0  0
 65142  1  0  0  0
 68 80  1  0  0  0
 71 72  2  0  0  0
 71 82  1  0  0  0
 71143  1  0  0  0
 72 73  1  0  0  0
 72 76  1  0  0  0
 73 74  1  0  0  0
 73 81  2  0  0  0
 74144  1  0  0  0
 74145  1  0  0  0
 74146  1  0  0  0
 75 83  1  0  0  0
 75147  1  0  0  0
 75148  1  0  0  0
 75149  1  0  0  0
 76 77  1  0  0  0
 76150  1  0  0  0
 76151  1  0  0  0
 77 80  1  0  0  0
 77152  1  0  0  0
 77153  1  0  0  0
 78 79  1  0  0  0
 78 82  1  0  0  0
 78154  1  0  0  0
 78155  1  0  0  0
 79 83  1  0  0  0
 79156  1  0  0  0
 79157  1  0  0  0
 80158  1  0  0  0
 80159  1  0  0  0
 81 82  1  0  0  0
M  ISO  4   1 100  68 101  80 101  83 100
M  END
> <chiral flag>
0

> <version>
0

> <s_m_source_file>
/data/baiqing/PycharmProjects/Reinvent-master-3.2/result/LINK_invent/BTK/process_docking_weight1_custom_sum_contain_oxygen_bond_distance_aromatic_linkinvent_7_9_3/rearranged_h_0082.sdf

> <i_m_source_file_index>
24

> <r_mmod_Potential_Energy-OPLS-2005>
95.7486038208008

> <r_mmod_Stretch_Energy-OPLS-2005>
48.3219528198242

> <r_mmod_Bend_Energy-OPLS-2005>
113.634643554688

> <r_mmod_Torsional_Energy-OPLS-2005>
304.949127197266

> <r_mmod_Improper_Torsional_Energy-OPLS-2005>
7.57746171951294

> <r_mmod_Van_der_Waal_Energy-OPLS-2005>
133.471130371094

> <r_mmod_Electrostatic_Energy-OPLS-2005>
-320.848358154297

> <r_mmod_Solvation_Energy-OPLS-2005>
-210.47819519043

> <b_mmod_Minimization_Converged-OPLS-2005>
0

> <r_mmod_RMS_Derivative-OPLS-2005>
2.12788820266724

$$$$
24
                    3D
 Structure written by MMmdl.
158166  0  0  1  0            999 V2000
  -30.6962  -14.4575   20.5661 C   0  0  0  0  0  0
  -30.4282  -12.2920   19.4214 C   0  0  0  0  0  0
  -29.4956  -12.5007   18.2103 C   0  0  0  0  0  0
  -28.0165  -12.3686   18.6255 C   0  0  0  0  0  0
  -27.6667  -13.2045   19.8854 C   0  0  2  0  0  0
  -28.7098  -12.9752   21.0047 C   0  0  0  0  0  0
  -25.2614  -13.8160   20.5695 C   0  0  0  0  0  0
  -24.1855  -13.0422   20.9187 C   0  0  0  0  0  0
  -24.6418  -11.6897   20.8744 C   0  0  0  0  0  0
  -23.9086  -10.4288   21.0418 C   0  0  0  0  0  0
  -24.3632   -9.4199   21.9194 C   0  0  0  0  0  0
  -23.6304   -8.2241   22.0762 C   0  0  0  0  0  0
  -22.4291   -8.0294   21.3558 C   0  0  0  0  0  0
  -21.9934   -9.0274   20.4660 C   0  0  0  0  0  0
  -22.7258  -10.2151   20.3070 C   0  0  0  0  0  0
  -21.6854   -6.0747   22.5280 C   0  0  0  0  0  0
  -21.4013   -6.5639   23.8218 C   0  0  0  0  0  0
  -21.3654   -5.6791   24.9173 C   0  0  0  0  0  0
  -21.6051   -4.3059   24.7210 C   0  0  0  0  0  0
  -21.8822   -3.8157   23.4327 C   0  0  0  0  0  0
  -21.9194   -4.6978   22.3391 C   0  0  0  0  0  0
  -22.7870  -13.5228   21.1846 C   0  0  0  0  0  0
  -22.1669   -4.2180   21.0959 F   0  0  0  0  0  0
  -21.5640   -3.4524   25.7715 F   0  0  0  0  0  0
  -30.0421  -13.2700   20.4510 N   0  0  0  0  0  0
  -26.3060  -12.9315   20.3430 N   0  0  0  0  0  0
  -25.9352  -11.6479   20.5803 N   0  0  0  0  0  0
  -22.0526  -12.8220   22.0406 N   0  0  0  0  0  0
  -25.4323  -15.1871   20.4065 N   0  0  0  0  0  0
  -31.8225  -14.6561   20.1030 O   0  0  0  0  0  0
  -21.6655   -6.8895   21.4244 O   0  0  0  0  0  0
  -22.3548  -14.5533   20.6700 O   0  0  0  0  0  0
  -24.6123  -31.8682   23.2135 C   0  0  0  0  0  0
  -25.9016  -32.4817   23.8430 C   0  0  1  0  0  0
  -27.2508  -27.4513   20.0959 C   0  0  0  0  0  0
  -25.5885  -33.8618   24.2356 N   0  0  0  0  0  0
  -23.4020  -30.4907   21.5492 C   0  0  2  0  0  0
  -24.8556  -28.9445   20.1357 C   0  0  0  0  0  0
  -22.7419  -29.4662   22.4984 C   0  0  0  0  0  0
  -18.0297  -28.1363   22.8514 C   0  0  0  0  0  0
  -24.1491  -36.7322   23.2626 C   0  0  0  0  0  0
  -25.9313  -30.8341   21.3692 C   0  0  0  0  0  0
  -26.0136  -29.4636   20.7302 C   0  0  0  0  0  0
  -27.2164  -28.7220   20.7111 C   0  0  0  0  0  0
  -26.0799  -26.9360   19.5066 C   0  0  0  0  0  0
  -24.8797  -27.6737   19.5309 C   0  0  0  0  0  0
  -23.6187  -29.8140   20.1706 C   0  0  0  0  0  0
  -25.4102  -36.3115   24.0339 C   0  0  1  0  0  0
  -20.5881  -28.3657   23.1330 C   0  0  2  0  0  0
  -20.6788  -26.9384   22.5436 C   0  0  0  0  0  0
  -19.5771  -26.6360   21.5235 C   0  0  0  0  0  0
  -18.1944  -26.7919   22.1643 C   0  0  0  0  0  0
  -19.1539  -28.8829   23.2926 C   0  0  0  0  0  0
  -18.9471  -30.1451   23.8920 C   0  0  0  0  0  0
  -17.6463  -30.6572   24.0572 C   0  0  0  0  0  0
  -25.9027  -34.9468   23.5146 C   0  0  0  0  0  0
  -16.5362  -29.9059   23.6320 C   0  0  0  0  0  0
  -16.7289  -28.6481   23.0336 C   0  0  0  0  0  0
  -26.4468  -31.6592   25.0758 C   0  0  0  0  0  0
  -25.3745  -31.3682   26.1529 C   0  0  0  0  0  0
  -27.0302  -30.3027   24.6132 C   0  0  0  0  0  0
  -27.6069  -32.4294   25.7501 C   0  0  0  0  0  0
  -27.5584  -37.1805   24.8468 C   0  0  0  0  0  0
  -21.4144  -29.3047   22.3742 N   0  0  0  0  0  0
  -26.4299  -37.3792   23.9418 N   0  0  0  0  0  0
  -24.6654  -31.0809   22.1018 N   0  0  0  0  0  0
  -23.4226  -28.8175   23.2970 O   0  0  0  0  0  0
  -28.4186  -26.7448   19.9527 O   0  0  0  0  0  0
  -26.5591  -34.8902   22.4696 O   0  0  0  0  0  0
  -23.5314  -32.1425   23.7540 O   0  0  0  0  0  0
  -29.3524  -21.2648   22.4058 C   0  0  0  0  0  0
  -29.2022  -20.0779   21.7414 C   0  0  0  0  0  0
  -27.2719  -24.3217   21.9270 C   0  0  0  0  0  0
  -29.0285  -18.6877   22.3039 C   0  0  0  0  0  0
  -30.2354  -17.7423   22.0963 C   0  0  0  0  0  0
  -29.7117  -23.6466   21.5072 C   0  0  0  0  0  0
  -30.1923  -16.9027   20.7967 C   0  0  0  0  0  0
  -28.9337  -26.0641   21.0958 C   0  0  0  0  0  0
  -28.5339  -24.5657   21.0804 C   0  0  2  0  0  0
  -29.1865  -20.3507   20.3735 N   0  0  0  0  0  0
  -29.3384  -21.6287   20.1844 N   0  0  0  0  0  0
  -29.4446  -22.2128   21.4028 N   0  0  0  0  0  0
  -29.9457  -15.4715   21.0342 N   0  0  0  0  0  0
  -31.4709  -12.3963   19.1129 H   0  0  0  0  0  0
  -30.3331  -11.2763   19.8078 H   0  0  0  0  0  0
  -29.7271  -11.7784   17.4267 H   0  0  0  0  0  0
  -29.6757  -13.4872   17.7784 H   0  0  0  0  0  0
  -27.8141  -11.3132   18.8161 H   0  0  0  0  0  0
  -27.3703  -12.6586   17.7959 H   0  0  0  0  0  0
  -27.7178  -14.2532   19.5914 H   0  0  0  0  0  0
  -28.6809  -11.9427   21.3555 H   0  0  0  0  0  0
  -28.4819  -13.5810   21.8826 H   0  0  0  0  0  0
  -25.2782   -9.5665   22.4757 H   0  0  0  0  0  0
  -24.0029   -7.4620   22.7457 H   0  0  0  0  0  0
  -21.0889   -8.8785   19.8940 H   0  0  0  0  0  0
  -22.3741  -10.9695   19.6175 H   0  0  0  0  0  0
  -21.2003   -7.6153   23.9731 H   0  0  0  0  0  0
  -21.1475   -6.0518   25.9084 H   0  0  0  0  0  0
  -22.0610   -2.7625   23.2816 H   0  0  0  0  0  0
  -22.4171  -11.9857   22.4730 H   0  0  0  0  0  0
  -21.1154  -13.1261   22.2650 H   0  0  0  0  0  0
  -24.6644  -15.8414   20.5093 H   0  0  0  0  0  0
  -26.2818  -15.6278   20.0743 H   0  0  0  0  0  0
  -26.7059  -32.5574   23.1186 H   0  0  0  0  0  0
  -25.0059  -33.9781   25.0518 H   0  0  0  0  0  0
  -22.6892  -31.3041   21.4016 H   0  0  0  0  0  0
  -23.3746  -35.9667   23.3315 H   0  0  0  0  0  0
  -24.3577  -36.8927   22.2039 H   0  0  0  0  0  0
  -23.7262  -37.6530   23.6633 H   0  0  0  0  0  0
  -26.0467  -31.5904   20.5926 H   0  0  0  0  0  0
  -26.8193  -30.8943   21.9885 H   0  0  0  0  0  0
  -28.1234  -29.1307   21.1351 H   0  0  0  0  0  0
  -26.1061  -25.9675   19.0236 H   0  0  0  0  0  0
  -23.9890  -27.2681   19.0719 H   0  0  0  0  0  0
  -23.7332  -30.5823   19.4042 H   0  0  0  0  0  0
  -22.7466  -29.2326   19.8666 H   0  0  0  0  0  0
  -25.1265  -36.1976   25.0828 H   0  0  0  0  0  0
  -21.0004  -28.3206   24.1440 H   0  0  0  0  0  0
  -20.5688  -26.2260   23.3626 H   0  0  0  0  0  0
  -21.6647  -26.7407   22.1216 H   0  0  0  0  0  0
  -19.6921  -25.6272   21.1260 H   0  0  0  0  0  0
  -19.6697  -27.3168   20.6763 H   0  0  0  0  0  0
  -17.4201  -26.6670   21.4056 H   0  0  0  0  0  0
  -18.0326  -26.0078   22.9050 H   0  0  0  0  0  0
  -19.7945  -30.7286   24.2257 H   0  0  0  0  0  0
  -17.4998  -31.6248   24.5189 H   0  0  0  0  0  0
  -15.5361  -30.2950   23.7627 H   0  0  0  0  0  0
  -15.8697  -28.0817   22.6990 H   0  0  0  0  0  0
  -24.5948  -30.6986   25.7891 H   0  0  0  0  0  0
  -24.8895  -32.2818   26.4958 H   0  0  0  0  0  0
  -25.8117  -30.8894   27.0298 H   0  0  0  0  0  0
  -26.2851  -29.6788   24.1179 H   0  0  0  0  0  0
  -27.4066  -29.7268   25.4597 H   0  0  0  0  0  0
  -27.8686  -30.4366   23.9295 H   0  0  0  0  0  0
  -27.2718  -33.3588   26.2099 H   0  0  0  0  0  0
  -28.3840  -32.6837   25.0291 H   0  0  0  0  0  0
  -28.0752  -31.8395   26.5391 H   0  0  0  0  0  0
  -28.2591  -38.0110   24.7500 H   0  0  0  0  0  0
  -28.1084  -36.2634   24.6298 H   0  0  0  0  0  0
  -27.2305  -37.1459   25.8873 H   0  0  0  0  0  0
  -20.9305  -29.8792   21.6981 H   0  0  0  0  0  0
  -26.0197  -38.2870   24.1419 H   0  0  0  0  0  0
  -29.4014  -21.5023   23.4621 H   0  0  0  0  0  0
  -26.7958  -23.3764   21.6713 H   0  0  0  0  0  0
  -26.5341  -25.1099   21.7795 H   0  0  0  0  0  0
  -27.5129  -24.2973   22.9898 H   0  0  0  0  0  0
  -28.1220  -18.2232   21.9141 H   0  0  0  0  0  0
  -28.8597  -18.7750   23.3772 H   0  0  0  0  0  0
  -30.2847  -17.0591   22.9449 H   0  0  0  0  0  0
  -31.1617  -18.3180   22.1509 H   0  0  0  0  0  0
  -30.0095  -23.8700   22.5314 H   0  0  0  0  0  0
  -30.5856  -23.8580   20.8884 H   0  0  0  0  0  0
  -31.1249  -17.0511   20.2499 H   0  0  0  0  0  0
  -29.4069  -17.2627   20.1299 H   0  0  0  0  0  0
  -30.0189  -26.1483   21.0203 H   0  0  0  0  0  0
  -28.6592  -26.5511   22.0331 H   0  0  0  0  0  0
  -28.2994  -24.3091   20.0459 H   0  0  0  0  0  0
  -29.0292  -15.2149   21.3705 H   0  0  0  0  0  0
  1 25  1  0  0  0
  1 30  2  0  0  0
  1 83  1  0  0  0
  2  3  1  0  0  0
  2 25  1  0  0  0
  2 84  1  0  0  0
  2 85  1  0  0  0
  3  4  1  0  0  0
  3 86  1  0  0  0
  3 87  1  0  0  0
  4  5  1  0  0  0
  4 88  1  0  0  0
  4 89  1  0  0  0
  5  6  1  0  0  0
  5 26  1  0  0  0
  5 90  1  0  0  0
  6 25  1  0  0  0
  6 91  1  0  0  0
  6 92  1  0  0  0
  7  8  2  0  0  0
  7 26  1  0  0  0
  7 29  1  0  0  0
  8  9  1  0  0  0
  8 22  1  0  0  0
  9 10  1  0  0  0
  9 27  2  0  0  0
 10 11  2  0  0  0
 10 15  1  0  0  0
 11 12  1  0  0  0
 11 93  1  0  0  0
 12 13  2  0  0  0
 12 94  1  0  0  0
 13 14  1  0  0  0
 13 31  1  0  0  0
 14 15  2  0  0  0
 14 95  1  0  0  0
 15 96  1  0  0  0
 16 17  2  0  0  0
 16 21  1  0  0  0
 16 31  1  0  0  0
 17 18  1  0  0  0
 17 97  1  0  0  0
 18 19  2  0  0  0
 18 98  1  0  0  0
 19 20  1  0  0  0
 19 24  1  0  0  0
 20 21  2  0  0  0
 20 99  1  0  0  0
 21 23  1  0  0  0
 22 28  1  0  0  0
 22 32  2  0  0  0
 26 27  1  0  0  0
 28100  1  0  0  0
 28101  1  0  0  0
 29102  1  0  0  0
 29103  1  0  0  0
 33 34  1  0  0  0
 33 66  1  0  0  0
 33 70  2  0  0  0
 34 36  1  0  0  0
 34 59  1  0  0  0
 34104  1  0  0  0
 35 44  2  0  0  0
 35 45  1  0  0  0
 35 68  1  0  0  0
 36 56  1  0  0  0
 36105  1  0  0  0
 37 39  1  0  0  0
 37 47  1  0  0  0
 37 66  1  0  0  0
 37106  1  0  0  0
 38 43  2  0  0  0
 38 46  1  0  0  0
 38 47  1  0  0  0
 39 64  1  0  0  0
 39 67  2  0  0  0
 40 52  1  0  0  0
 40 53  2  0  0  0
 40 58  1  0  0  0
 41107  1  0  0  0
 41108  1  0  0  0
 41109  1  0  0  0
 41 48  1  0  0  0
 42 43  1  0  0  0
 42 66  1  0  0  0
 42110  1  0  0  0
 42111  1  0  0  0
 43 44  1  0  0  0
 44112  1  0  0  0
 45 46  2  0  0  0
 45113  1  0  0  0
 46114  1  0  0  0
 47115  1  0  0  0
 47116  1  0  0  0
 48 56  1  0  0  0
 48 65  1  0  0  0
 48117  1  0  0  0
 49 50  1  0  0  0
 49 53  1  0  0  0
 49 64  1  0  0  0
 49118  1  0  0  0
 50 51  1  0  0  0
 50119  1  0  0  0
 50120  1  0  0  0
 51 52  1  0  0  0
 51121  1  0  0  0
 51122  1  0  0  0
 52123  1  0  0  0
 52124  1  0  0  0
 53 54  1  0  0  0
 54 55  2  0  0  0
 54125  1  0  0  0
 55 57  1  0  0  0
 55126  1  0  0  0
 56 69  2  0  0  0
 57 58  2  0  0  0
 57127  1  0  0  0
 58128  1  0  0  0
 59 60  1  0  0  0
 59 61  1  0  0  0
 59 62  1  0  0  0
 60129  1  0  0  0
 60130  1  0  0  0
 60131  1  0  0  0
 61132  1  0  0  0
 61133  1  0  0  0
 61134  1  0  0  0
 62135  1  0  0  0
 62136  1  0  0  0
 62137  1  0  0  0
 63 65  1  0  0  0
 63138  1  0  0  0
 63139  1  0  0  0
 63140  1  0  0  0
 64141  1  0  0  0
 65142  1  0  0  0
 68 78  1  0  0  0
 71 72  2  0  0  0
 71 82  1  0  0  0
 71143  1  0  0  0
 72 74  1  0  0  0
 72 80  1  0  0  0
 73144  1  0  0  0
 73145  1  0  0  0
 73146  1  0  0  0
 73 79  1  0  0  0
 74 75  1  0  0  0
 74147  1  0  0  0
 74148  1  0  0  0
 75 77  1  0  0  0
 75149  1  0  0  0
 75150  1  0  0  0
 76 79  1  0  0  0
 76 82  1  0  0  0
 76151  1  0  0  0
 76152  1  0  0  0
 77 83  1  0  0  0
 77153  1  0  0  0
 77154  1  0  0  0
 78 79  1  0  0  0
 78155  1  0  0  0
 78156  1  0  0  0
 79157  1  0  0  0
 80 81  2  0  0  0
 81 82  1  0  0  0
 83158  1  0  0  0
M  ISO  4   1 100  68 101  78 101  83 100
M  END
> <chiral flag>
0

> <version>
0

> <s_m_source_file>
/data/baiqing/PycharmProjects/Reinvent-master-3.2/result/LINK_invent/BTK/process_docking_weight1_custom_sum_contain_oxygen_bond_distance_aromatic_linkinvent_7_9_3/rearranged_h_0082.sdf

> <i_m_source_file_index>
25

> <r_mmod_Potential_Energy-OPLS-2005>
-94.7976150512695

> <r_mmod_Stretch_Energy-OPLS-2005>
33.8338508605957

> <r_mmod_Bend_Energy-OPLS-2005>
95.1353759765625

> <r_mmod_Torsional_Energy-OPLS-2005>
256.757080078125

> <r_mmod_Improper_Torsional_Energy-OPLS-2005>
5.86732053756714

> <r_mmod_Van_der_Waal_Energy-OPLS-2005>
120.940498352051

> <r_mmod_Electrostatic_Energy-OPLS-2005>
-394.779144287109

> <r_mmod_Solvation_Energy-OPLS-2005>
-223.144790649414

> <b_mmod_Minimization_Converged-OPLS-2005>
0

> <r_mmod_RMS_Derivative-OPLS-2005>
3.71002149581909

$$$$
25
                    3D
 Structure written by MMmdl.
156164  0  0  1  0            999 V2000
  -30.5208  -14.9216   20.3887 C   0  0  0  0  0  0
  -30.4443  -12.5519   19.5013 C   0  0  0  0  0  0
  -29.5249  -12.5206   18.2554 C   0  0  0  0  0  0
  -28.0494  -12.3212   18.6586 C   0  0  0  0  0  0
  -27.6293  -13.2346   19.8386 C   0  0  2  0  0  0
  -28.6745  -13.2438   20.9736 C   0  0  0  0  0  0
  -25.2478  -13.8141   20.5685 C   0  0  0  0  0  0
  -24.1791  -13.0399   20.9222 C   0  0  0  0  0  0
  -24.6394  -11.6888   20.8744 C   0  0  0  0  0  0
  -23.9066  -10.4281   21.0411 C   0  0  0  0  0  0
  -24.3619   -9.4200   21.9186 C   0  0  0  0  0  0
  -23.6289   -8.2242   22.0759 C   0  0  0  0  0  0
  -22.4269   -8.0288   21.3548 C   0  0  0  0  0  0
  -21.9907   -9.0266   20.4642 C   0  0  0  0  0  0
  -22.7238  -10.2144   20.3057 C   0  0  0  0  0  0
  -21.6874   -6.0726   22.5273 C   0  0  0  0  0  0
  -21.4007   -6.5620   23.8198 C   0  0  0  0  0  0
  -21.3651   -5.6781   24.9159 C   0  0  0  0  0  0
  -21.6050   -4.3049   24.7217 C   0  0  0  0  0  0
  -21.8824   -3.8140   23.4342 C   0  0  0  0  0  0
  -21.9211   -4.6954   22.3400 C   0  0  0  0  0  0
  -22.7818  -13.5195   21.1891 C   0  0  0  0  0  0
  -22.1684   -4.2140   21.0977 F   0  0  0  0  0  0
  -21.5626   -3.4536   25.7735 F   0  0  0  0  0  0
  -29.9655  -13.6414   20.3968 N   0  0  0  0  0  0
  -26.2890  -12.9342   20.3251 N   0  0  0  0  0  0
  -25.9320  -11.6494   20.5737 N   0  0  0  0  0  0
  -22.0478  -12.8175   22.0447 N   0  0  0  0  0  0
  -25.4153  -15.1845   20.4032 N   0  0  0  0  0  0
  -31.7310  -14.9975   20.1526 O   0  0  0  0  0  0
  -21.6643   -6.8884   21.4244 O   0  0  0  0  0  0
  -22.3499  -14.5510   20.6752 O   0  0  0  0  0  0
  -24.6417  -31.8458   23.1883 C   0  0  0  0  0  0
  -25.9200  -32.4705   23.8277 C   0  0  1  0  0  0
  -27.2345  -27.1625   20.1503 C   0  0  0  0  0  0
  -25.5946  -33.8508   24.2187 N   0  0  0  0  0  0
  -23.4452  -30.4636   21.5341 C   0  0  2  0  0  0
  -24.8965  -28.8901   20.1148 C   0  0  0  0  0  0
  -22.7554  -29.4568   22.4883 C   0  0  0  0  0  0
  -18.0304  -28.1408   22.8478 C   0  0  0  0  0  0
  -24.1489  -36.7255   23.2640 C   0  0  0  0  0  0
  -25.9994  -30.7279   21.3840 C   0  0  0  0  0  0
  -26.0732  -29.3401   20.7265 C   0  0  0  0  0  0
  -27.2428  -28.4941   20.7232 C   0  0  0  0  0  0
  -26.0272  -26.8056   19.5071 C   0  0  0  0  0  0
  -24.8853  -27.6341   19.4913 C   0  0  0  0  0  0
  -23.6695  -29.7863   20.1555 C   0  0  0  0  0  0
  -25.4123  -36.3035   24.0308 C   0  0  1  0  0  0
  -20.5917  -28.3737   23.1235 C   0  0  2  0  0  0
  -20.6790  -26.9444   22.5402 C   0  0  0  0  0  0
  -19.5760  -26.6397   21.5210 C   0  0  0  0  0  0
  -18.1945  -26.7948   22.1624 C   0  0  0  0  0  0
  -19.1559  -28.8890   23.2848 C   0  0  0  0  0  0
  -18.9477  -30.1486   23.8873 C   0  0  0  0  0  0
  -17.6473  -30.6602   24.0566 C   0  0  0  0  0  0
  -25.9080  -34.9412   23.5061 C   0  0  0  0  0  0
  -16.5367  -29.9097   23.6344 C   0  0  0  0  0  0
  -16.7292  -28.6516   23.0365 C   0  0  0  0  0  0
  -26.4521  -31.6559   25.0709 C   0  0  0  0  0  0
  -25.3710  -31.3747   26.1404 C   0  0  0  0  0  0
  -27.0383  -30.2951   24.6294 C   0  0  0  0  0  0
  -27.6047  -32.4327   25.7501 C   0  0  0  0  0  0
  -27.5581  -37.1781   24.8460 C   0  0  0  0  0  0
  -21.4254  -29.3057   22.3603 N   0  0  0  0  0  0
  -26.4291  -37.3746   23.9411 N   0  0  0  0  0  0
  -24.7152  -31.0334   22.0907 N   0  0  0  0  0  0
  -23.4200  -28.8137   23.3049 O   0  0  0  0  0  0
  -28.3156  -26.2117   20.1992 O   0  0  0  0  0  0
  -26.5677  -34.8909   22.4648 O   0  0  0  0  0  0
  -23.5539  -32.1326   23.7108 O   0  0  0  0  0  0
  -29.6510  -20.6411   20.4291 C   0  0  0  0  0  0
  -27.5024  -21.5620   20.9810 C   0  0  0  0  0  0
  -28.8003  -21.8523   20.5431 C   0  0  0  0  0  0
  -29.2105  -19.2637   20.7633 C   0  0  0  0  0  0
  -27.8759  -19.2457   21.2478 C   0  0  0  0  0  0
  -27.2271  -18.0004   21.8178 C   0  0  0  0  0  0
  -28.9686  -16.4741   18.9882 C   0  0  0  0  0  0
  -29.1787  -23.4357   20.3061 C   0  0  0  0  0  0
  -30.1293  -17.8803   20.7787 C   0  0  0  0  0  0
  -28.0556  -24.6831   20.2417 C   0  0  0  0  0  0
  -29.6180  -16.3232   20.3817 C   0  0  2  0  0  0
  -27.0703  -20.3306   21.3166 N   0  0  0  0  0  0
  -31.4817  -12.6955   19.1970 H   0  0  0  0  0  0
  -30.4173  -11.5916   20.0186 H   0  0  0  0  0  0
  -29.8322  -11.7264   17.5741 H   0  0  0  0  0  0
  -29.6355  -13.4542   17.7025 H   0  0  0  0  0  0
  -27.9167  -11.2723   18.9312 H   0  0  0  0  0  0
  -27.4000  -12.4968   17.8002 H   0  0  0  0  0  0
  -27.5792  -14.2373   19.4277 H   0  0  0  0  0  0
  -28.7489  -12.2596   21.4402 H   0  0  0  0  0  0
  -28.3731  -13.9319   21.7633 H   0  0  0  0  0  0
  -25.2772   -9.5663   22.4741 H   0  0  0  0  0  0
  -24.0003   -7.4625   22.7457 H   0  0  0  0  0  0
  -21.0858   -8.8779   19.8926 H   0  0  0  0  0  0
  -22.3716  -10.9681   19.6152 H   0  0  0  0  0  0
  -21.1984   -7.6125   23.9695 H   0  0  0  0  0  0
  -21.1463   -6.0504   25.9056 H   0  0  0  0  0  0
  -22.0619   -2.7604   23.2850 H   0  0  0  0  0  0
  -22.4147  -11.9821   22.4769 H   0  0  0  0  0  0
  -21.1104  -13.1182   22.2697 H   0  0  0  0  0  0
  -24.6412  -15.8344   20.4861 H   0  0  0  0  0  0
  -26.2554  -15.6106   20.0373 H   0  0  0  0  0  0
  -26.7277  -32.5313   23.1016 H   0  0  0  0  0  0
  -25.0036  -33.9631   25.0298 H   0  0  0  0  0  0
  -22.7468  -31.2879   21.3765 H   0  0  0  0  0  0
  -23.3762  -35.9576   23.3277 H   0  0  0  0  0  0
  -24.3572  -36.8920   22.2059 H   0  0  0  0  0  0
  -23.7231  -37.6437   23.6699 H   0  0  0  0  0  0
  -26.1545  -31.4837   20.6131 H   0  0  0  0  0  0
  -26.8696  -30.7762   22.0279 H   0  0  0  0  0  0
  -28.1423  -28.8386   21.2139 H   0  0  0  0  0  0
  -25.9305  -25.8499   19.0176 H   0  0  0  0  0  0
  -23.9870  -27.2827   19.0025 H   0  0  0  0  0  0
  -23.7990  -30.5568   19.3938 H   0  0  0  0  0  0
  -22.7871  -29.2206   19.8515 H   0  0  0  0  0  0
  -25.1317  -36.1858   25.0802 H   0  0  0  0  0  0
  -21.0007  -28.3334   24.1354 H   0  0  0  0  0  0
  -20.5695  -26.2360   23.3627 H   0  0  0  0  0  0
  -21.6660  -26.7460   22.1195 H   0  0  0  0  0  0
  -19.6931  -25.6300   21.1264 H   0  0  0  0  0  0
  -19.6697  -27.3194   20.6727 H   0  0  0  0  0  0
  -17.4216  -26.6692   21.4027 H   0  0  0  0  0  0
  -18.0348  -26.0097   22.9028 H   0  0  0  0  0  0
  -19.7951  -30.7316   24.2224 H   0  0  0  0  0  0
  -17.5027  -31.6278   24.5179 H   0  0  0  0  0  0
  -15.5370  -30.2990   23.7685 H   0  0  0  0  0  0
  -15.8694  -28.0832   22.7088 H   0  0  0  0  0  0
  -24.5867  -30.7137   25.7701 H   0  0  0  0  0  0
  -24.8933  -32.2934   26.4812 H   0  0  0  0  0  0
  -25.7977  -30.8902   27.0193 H   0  0  0  0  0  0
  -26.2999  -29.6676   24.1294 H   0  0  0  0  0  0
  -27.3975  -29.7248   25.4868 H   0  0  0  0  0  0
  -27.8913  -30.4167   23.9619 H   0  0  0  0  0  0
  -27.2628  -33.3630   26.2045 H   0  0  0  0  0  0
  -28.3875  -32.6890   25.0354 H   0  0  0  0  0  0
  -28.0702  -31.8489   26.5449 H   0  0  0  0  0  0
  -28.2578  -38.0103   24.7542 H   0  0  0  0  0  0
  -28.1111  -36.2632   24.6251 H   0  0  0  0  0  0
  -27.2310  -37.1380   25.8870 H   0  0  0  0  0  0
  -20.9479  -29.8724   21.6739 H   0  0  0  0  0  0
  -26.0154  -38.2817   24.1423 H   0  0  0  0  0  0
  -30.6761  -20.7746   20.1155 H   0  0  0  0  0  0
  -26.7782  -22.3523   21.1099 H   0  0  0  0  0  0
  -27.8954  -17.4897   22.5095 H   0  0  0  0  0  0
  -26.9387  -17.3249   21.0190 H   0  0  0  0  0  0
  -26.3181  -18.2406   22.3721 H   0  0  0  0  0  0
  -27.9296  -16.7924   19.0657 H   0  0  0  0  0  0
  -28.9867  -15.5600   18.3977 H   0  0  0  0  0  0
  -29.4886  -17.2253   18.3925 H   0  0  0  0  0  0
  -29.7677  -23.4797   19.3893 H   0  0  0  0  0  0
  -29.8817  -23.6858   21.1012 H   0  0  0  0  0  0
  -30.5349  -17.8212   21.7894 H   0  0  0  0  0  0
  -30.9983  -18.0956   20.1563 H   0  0  0  0  0  0
  -27.4092  -24.5548   21.1090 H   0  0  0  0  0  0
  -27.4399  -24.4386   19.3785 H   0  0  0  0  0  0
  -28.8354  -16.0604   21.0865 H   0  0  0  0  0  0
  1 25  1  0  0  0
  1 30  2  0  0  0
  1 81  1  0  0  0
  2  3  1  0  0  0
  2 25  1  0  0  0
  2 83  1  0  0  0
  2 84  1  0  0  0
  3  4  1  0  0  0
  3 85  1  0  0  0
  3 86  1  0  0  0
  4  5  1  0  0  0
  4 87  1  0  0  0
  4 88  1  0  0  0
  5  6  1  0  0  0
  5 26  1  0  0  0
  5 89  1  0  0  0
  6 25  1  0  0  0
  6 90  1  0  0  0
  6 91  1  0  0  0
  7  8  2  0  0  0
  7 26  1  0  0  0
  7 29  1  0  0  0
  8  9  1  0  0  0
  8 22  1  0  0  0
  9 10  1  0  0  0
  9 27  2  0  0  0
 10 11  2  0  0  0
 10 15  1  0  0  0
 11 12  1  0  0  0
 11 92  1  0  0  0
 12 13  2  0  0  0
 12 93  1  0  0  0
 13 14  1  0  0  0
 13 31  1  0  0  0
 14 15  2  0  0  0
 14 94  1  0  0  0
 15 95  1  0  0  0
 16 17  2  0  0  0
 16 21  1  0  0  0
 16 31  1  0  0  0
 17 18  1  0  0  0
 17 96  1  0  0  0
 18 19  2  0  0  0
 18 97  1  0  0  0
 19 20  1  0  0  0
 19 24  1  0  0  0
 20 21  2  0  0  0
 20 98  1  0  0  0
 21 23  1  0  0  0
 22 28  1  0  0  0
 22 32  2  0  0  0
 26 27  1  0  0  0
 28 99  1  0  0  0
 28100  1  0  0  0
 29101  1  0  0  0
 29102  1  0  0  0
 33 34  1  0  0  0
 33 66  1  0  0  0
 33 70  2  0  0  0
 34 36  1  0  0  0
 34 59  1  0  0  0
 34103  1  0  0  0
 35 44  2  0  0  0
 35 45  1  0  0  0
 35 68  1  0  0  0
 36 56  1  0  0  0
 36104  1  0  0  0
 37 39  1  0  0  0
 37 47  1  0  0  0
 37 66  1  0  0  0
 37105  1  0  0  0
 38 43  2  0  0  0
 38 46  1  0  0  0
 38 47  1  0  0  0
 39 64  1  0  0  0
 39 67  2  0  0  0
 40 52  1  0  0  0
 40 53  2  0  0  0
 40 58  1  0  0  0
 41106  1  0  0  0
 41107  1  0  0  0
 41108  1  0  0  0
 41 48  1  0  0  0
 42 43  1  0  0  0
 42 66  1  0  0  0
 42109  1  0  0  0
 42110  1  0  0  0
 43 44  1  0  0  0
 44111  1  0  0  0
 45 46  2  0  0  0
 45112  1  0  0  0
 46113  1  0  0  0
 47114  1  0  0  0
 47115  1  0  0  0
 48 56  1  0  0  0
 48 65  1  0  0  0
 48116  1  0  0  0
 49 50  1  0  0  0
 49 53  1  0  0  0
 49 64  1  0  0  0
 49117  1  0  0  0
 50 51  1  0  0  0
 50118  1  0  0  0
 50119  1  0  0  0
 51 52  1  0  0  0
 51120  1  0  0  0
 51121  1  0  0  0
 52122  1  0  0  0
 52123  1  0  0  0
 53 54  1  0  0  0
 54 55  2  0  0  0
 54124  1  0  0  0
 55 57  1  0  0  0
 55125  1  0  0  0
 56 69  2  0  0  0
 57 58  2  0  0  0
 57126  1  0  0  0
 58127  1  0  0  0
 59 60  1  0  0  0
 59 61  1  0  0  0
 59 62  1  0  0  0
 60128  1  0  0  0
 60129  1  0  0  0
 60130  1  0  0  0
 61131  1  0  0  0
 61132  1  0  0  0
 61133  1  0  0  0
 62134  1  0  0  0
 62135  1  0  0  0
 62136  1  0  0  0
 63 65  1  0  0  0
 63137  1  0  0  0
 63138  1  0  0  0
 63139  1  0  0  0
 64140  1  0  0  0
 65141  1  0  0  0
 68 80  1  0  0  0
 71 73  2  0  0  0
 71 74  1  0  0  0
 71142  1  0  0  0
 72 73  1  0  0  0
 72 82  2  0  0  0
 72143  1  0  0  0
 73 78  1  0  0  0
 74 75  2  0  0  0
 74 79  1  0  0  0
 75 76  1  0  0  0
 75 82  1  0  0  0
 76144  1  0  0  0
 76145  1  0  0  0
 76146  1  0  0  0
 77147  1  0  0  0
 77148  1  0  0  0
 77149  1  0  0  0
 77 81  1  0  0  0
 78 80  1  0  0  0
 78150  1  0  0  0
 78151  1  0  0  0
 79 81  1  0  0  0
 79152  1  0  0  0
 79153  1  0  0  0
 80154  1  0  0  0
 80155  1  0  0  0
 81156  1  0  0  0
M  ISO  4   1 100  68 101  80 101  81 100
M  END
> <chiral flag>
0

> <version>
0

> <s_m_source_file>
/data/baiqing/PycharmProjects/Reinvent-master-3.2/result/LINK_invent/BTK/process_docking_weight1_custom_sum_contain_oxygen_bond_distance_aromatic_linkinvent_7_9_3/rearranged_h_0082.sdf

> <i_m_source_file_index>
26

> <r_mmod_Potential_Energy-OPLS-2005>
325.435333251953

> <r_mmod_Stretch_Energy-OPLS-2005>
251.213684082031

> <r_mmod_Bend_Energy-OPLS-2005>
237.726898193359

> <r_mmod_Torsional_Energy-OPLS-2005>
201.870101928711

> <r_mmod_Improper_Torsional_Energy-OPLS-2005>
7.11290073394775

> <r_mmod_Van_der_Waal_Energy-OPLS-2005>
133.003326416016

> <r_mmod_Electrostatic_Energy-OPLS-2005>
-465.003601074219

> <r_mmod_Solvation_Energy-OPLS-2005>
-208.919631958008

> <b_mmod_Minimization_Converged-OPLS-2005>
0

> <r_mmod_RMS_Derivative-OPLS-2005>
2.47086405754089

$$$$
26
                    3D
 Structure written by MMmdl.
170178  0  0  1  0            999 V2000
  -30.5978  -14.9965   20.3047 C   0  0  0  0  0  0
  -30.4346  -12.6079   19.4836 C   0  0  0  0  0  0
  -29.5148  -12.4662   18.2504 C   0  0  0  0  0  0
  -28.0513  -12.2515   18.6840 C   0  0  0  0  0  0
  -27.6095  -13.2068   19.8193 C   0  0  2  0  0  0
  -28.6705  -13.3757   20.9286 C   0  0  0  0  0  0
  -25.2484  -13.8061   20.5808 C   0  0  0  0  0  0
  -24.1759  -13.0351   20.9294 C   0  0  0  0  0  0
  -24.6333  -11.6825   20.8837 C   0  0  0  0  0  0
  -23.8998  -10.4236   21.0463 C   0  0  0  0  0  0
  -24.3566   -9.4148   21.9217 C   0  0  0  0  0  0
  -23.6260   -8.2179   22.0760 C   0  0  0  0  0  0
  -22.4243   -8.0236   21.3545 C   0  0  0  0  0  0
  -21.9885   -9.0203   20.4642 C   0  0  0  0  0  0
  -22.7192  -10.2089   20.3079 C   0  0  0  0  0  0
  -21.6831   -6.0712   22.5277 C   0  0  0  0  0  0
  -21.3994   -6.5622   23.8204 C   0  0  0  0  0  0
  -21.3660   -5.6783   24.9174 C   0  0  0  0  0  0
  -21.6044   -4.3045   24.7234 C   0  0  0  0  0  0
  -21.8818   -3.8134   23.4356 C   0  0  0  0  0  0
  -21.9191   -4.6946   22.3411 C   0  0  0  0  0  0
  -22.7793  -13.5181   21.1918 C   0  0  0  0  0  0
  -22.1664   -4.2130   21.0991 F   0  0  0  0  0  0
  -21.5644   -3.4534   25.7752 F   0  0  0  0  0  0
  -29.9407  -13.7596   20.2904 N   0  0  0  0  0  0
  -26.2835  -12.9183   20.3335 N   0  0  0  0  0  0
  -25.9250  -11.6365   20.5838 N   0  0  0  0  0  0
  -22.0424  -12.8154   22.0452 N   0  0  0  0  0  0
  -25.4179  -15.1786   20.4244 N   0  0  0  0  0  0
  -31.8266  -14.9014   20.3857 O   0  0  0  0  0  0
  -21.6602   -6.8841   21.4234 O   0  0  0  0  0  0
  -22.3494  -14.5501   20.6772 O   0  0  0  0  0  0
  -24.6401  -31.8473   23.1902 C   0  0  0  0  0  0
  -25.9191  -32.4714   23.8281 C   0  0  1  0  0  0
  -27.2206  -27.1603   20.1518 C   0  0  0  0  0  0
  -25.5951  -33.8516   24.2208 N   0  0  0  0  0  0
  -23.4435  -30.4655   21.5370 C   0  0  2  0  0  0
  -24.8942  -28.8981   20.1102 C   0  0  0  0  0  0
  -22.7557  -29.4549   22.4884 C   0  0  0  0  0  0
  -18.0305  -28.1386   22.8482 C   0  0  0  0  0  0
  -24.1502  -36.7257   23.2637 C   0  0  0  0  0  0
  -25.9975  -30.7277   21.3882 C   0  0  0  0  0  0
  -26.0707  -29.3417   20.7280 C   0  0  0  0  0  0
  -27.2340  -28.4882   20.7339 C   0  0  0  0  0  0
  -26.0182  -26.8141   19.4928 C   0  0  0  0  0  0
  -24.8791  -27.6464   19.4777 C   0  0  0  0  0  0
  -23.6688  -29.7956   20.1560 C   0  0  0  0  0  0
  -25.4132  -36.3042   24.0316 C   0  0  1  0  0  0
  -20.5916  -28.3714   23.1242 C   0  0  2  0  0  0
  -20.6799  -26.9425   22.5404 C   0  0  0  0  0  0
  -19.5772  -26.6376   21.5211 C   0  0  0  0  0  0
  -18.1944  -26.7929   22.1616 C   0  0  0  0  0  0
  -19.1559  -28.8867   23.2852 C   0  0  0  0  0  0
  -18.9479  -30.1465   23.8879 C   0  0  0  0  0  0
  -17.6478  -30.6590   24.0549 C   0  0  0  0  0  0
  -25.9078  -34.9420   23.5069 C   0  0  0  0  0  0
  -16.5368  -29.9079   23.6336 C   0  0  0  0  0  0
  -16.7288  -28.6495   23.0359 C   0  0  0  0  0  0
  -26.4526  -31.6574   25.0715 C   0  0  0  0  0  0
  -25.3711  -31.3741   26.1404 C   0  0  0  0  0  0
  -27.0402  -30.2984   24.6280 C   0  0  0  0  0  0
  -27.6067  -32.4327   25.7496 C   0  0  0  0  0  0
  -27.5586  -37.1777   24.8459 C   0  0  0  0  0  0
  -21.4252  -29.3043   22.3622 N   0  0  0  0  0  0
  -26.4301  -37.3749   23.9401 N   0  0  0  0  0  0
  -24.7131  -31.0339   22.0940 N   0  0  0  0  0  0
  -23.4213  -28.8109   23.3037 O   0  0  0  0  0  0
  -28.2778  -26.1861   20.2322 O   0  0  0  0  0  0
  -26.5660  -34.8912   22.4650 O   0  0  0  0  0  0
  -23.5528  -32.1345   23.7149 O   0  0  0  0  0  0
  -29.1186  -19.0796   19.7700 C   0  0  0  0  0  0
  -30.0200  -19.9433   21.5364 C   0  0  0  0  0  0
  -29.1991  -20.3485   20.5060 C   0  0  0  0  0  0
  -29.8190  -17.9733   20.3112 C   0  0  0  0  0  0
  -26.2666  -20.3359   20.8493 C   0  0  0  0  0  0
  -30.4226  -17.1782   23.4512 C   0  0  0  0  0  0
  -32.3129  -18.8191   23.0422 C   0  0  0  0  0  0
  -31.1164  -16.7806   18.5840 C   0  0  0  0  0  0
  -28.7694  -16.2094   18.8416 C   0  0  0  0  0  0
  -27.0164  -21.6736   20.9715 C   0  0  0  0  0  0
  -28.9305  -23.3372   20.4493 C   0  0  0  0  0  0
  -27.9772  -24.6740   20.0832 C   0  0  0  0  0  0
  -28.3826  -21.7644   20.2471 C   0  0  1  0  0  0
  -31.2736  -17.8885   22.3903 C   0  0  0  0  0  0
  -30.0395  -16.4711   19.6611 C   0  0  0  0  0  0
  -30.4135  -18.5776   21.4292 N   0  0  0  0  0  0
  -31.4667  -12.7493   19.1576 H   0  0  0  0  0  0
  -30.4313  -11.6951   20.0790 H   0  0  0  0  0  0
  -29.8424  -11.6239   17.6388 H   0  0  0  0  0  0
  -29.5982  -13.3442   17.6117 H   0  0  0  0  0  0
  -27.9628  -11.2200   19.0239 H   0  0  0  0  0  0
  -27.3821  -12.3463   17.8279 H   0  0  0  0  0  0
  -27.4754  -14.1436   19.3135 H   0  0  0  0  0  0
  -28.7877  -12.4578   21.5061 H   0  0  0  0  0  0
  -28.3617  -14.1518   21.6320 H   0  0  0  0  0  0
  -25.2708   -9.5611   22.4790 H   0  0  0  0  0  0
  -23.9972   -7.4554   22.7458 H   0  0  0  0  0  0
  -21.0832   -8.8700   19.8932 H   0  0  0  0  0  0
  -22.3659  -10.9629   19.6192 H   0  0  0  0  0  0
  -21.1961   -7.6126   23.9694 H   0  0  0  0  0  0
  -21.1498   -6.0523   25.9074 H   0  0  0  0  0  0
  -22.0608   -2.7598   23.2854 H   0  0  0  0  0  0
  -22.4042  -11.9809   22.4822 H   0  0  0  0  0  0
  -21.1039  -13.1160   22.2675 H   0  0  0  0  0  0
  -24.6559  -15.8352   20.5478 H   0  0  0  0  0  0
  -26.2776  -15.6198   20.1275 H   0  0  0  0  0  0
  -26.7246  -32.5336   23.1001 H   0  0  0  0  0  0
  -25.0085  -33.9640   25.0344 H   0  0  0  0  0  0
  -22.7446  -31.2908   21.3842 H   0  0  0  0  0  0
  -23.3781  -35.9570   23.3288 H   0  0  0  0  0  0
  -24.3580  -36.8906   22.2052 H   0  0  0  0  0  0
  -23.7251  -37.6442   23.6692 H   0  0  0  0  0  0
  -26.1501  -31.4862   20.6201 H   0  0  0  0  0  0
  -26.8674  -30.7761   22.0314 H   0  0  0  0  0  0
  -28.1267  -28.8187   21.2471 H   0  0  0  0  0  0
  -25.9209  -25.8577   19.0025 H   0  0  0  0  0  0
  -23.9815  -27.3004   18.9834 H   0  0  0  0  0  0
  -23.8004  -30.5716   19.4005 H   0  0  0  0  0  0
  -22.7846  -29.2331   19.8480 H   0  0  0  0  0  0
  -25.1323  -36.1869   25.0808 H   0  0  0  0  0  0
  -20.9984  -28.3311   24.1371 H   0  0  0  0  0  0
  -20.5702  -26.2329   23.3619 H   0  0  0  0  0  0
  -21.6666  -26.7457   22.1192 H   0  0  0  0  0  0
  -19.6948  -25.6279   21.1254 H   0  0  0  0  0  0
  -19.6711  -27.3181   20.6734 H   0  0  0  0  0  0
  -17.4218  -26.6674   21.4011 H   0  0  0  0  0  0
  -18.0344  -26.0075   22.9017 H   0  0  0  0  0  0
  -19.7963  -30.7265   24.2250 H   0  0  0  0  0  0
  -17.5043  -31.6270   24.5145 H   0  0  0  0  0  0
  -15.5366  -30.2964   23.7681 H   0  0  0  0  0  0
  -15.8693  -28.0792   22.7091 H   0  0  0  0  0  0
  -24.5895  -30.7100   25.7696 H   0  0  0  0  0  0
  -24.8887  -32.2912   26.4793 H   0  0  0  0  0  0
  -25.7979  -30.8916   27.0205 H   0  0  0  0  0  0
  -26.3024  -29.6687   24.1293 H   0  0  0  0  0  0
  -27.4042  -29.7298   25.4844 H   0  0  0  0  0  0
  -27.8919  -30.4239   23.9591 H   0  0  0  0  0  0
  -27.2684  -33.3645   26.2037 H   0  0  0  0  0  0
  -28.3896  -32.6848   25.0334 H   0  0  0  0  0  0
  -28.0720  -31.8467   26.5433 H   0  0  0  0  0  0
  -28.2575  -38.0100   24.7528 H   0  0  0  0  0  0
  -28.1109  -36.2626   24.6268 H   0  0  0  0  0  0
  -27.2288  -37.1391   25.8855 H   0  0  0  0  0  0
  -20.9466  -29.8736   21.6783 H   0  0  0  0  0  0
  -26.0173  -38.2816   24.1417 H   0  0  0  0  0  0
  -28.5387  -18.9978   18.8624 H   0  0  0  0  0  0
  -30.3536  -20.5295   22.3804 H   0  0  0  0  0  0
  -25.2752  -20.4129   21.2959 H   0  0  0  0  0  0
  -26.7871  -19.5241   21.3610 H   0  0  0  0  0  0
  -26.1378  -20.0507   19.8052 H   0  0  0  0  0  0
  -31.0505  -16.6059   24.1342 H   0  0  0  0  0  0
  -29.7161  -16.4860   22.9938 H   0  0  0  0  0  0
  -29.8498  -17.8931   24.0431 H   0  0  0  0  0  0
  -33.0345  -18.2427   23.6209 H   0  0  0  0  0  0
  -31.8528  -19.5314   23.7283 H   0  0  0  0  0  0
  -32.8715  -19.3807   22.2935 H   0  0  0  0  0  0
  -30.7992  -17.5703   17.9024 H   0  0  0  0  0  0
  -31.3602  -15.9112   17.9700 H   0  0  0  0  0  0
  -32.0432  -17.1269   19.0438 H   0  0  0  0  0  0
  -28.5832  -16.9820   18.0975 H   0  0  0  0  0  0
  -27.8999  -16.1992   19.4954 H   0  0  0  0  0  0
  -28.8395  -15.2941   18.2632 H   0  0  0  0  0  0
  -27.1665  -21.8845   22.0316 H   0  0  0  0  0  0
  -26.3533  -22.4519   20.5956 H   0  0  0  0  0  0
  -29.2357  -23.4377   21.4907 H   0  0  0  0  0  0
  -29.8519  -23.4344   19.8753 H   0  0  0  0  0  0
  -27.0605  -24.5355   20.6553 H   0  0  0  0  0  0
  -27.6886  -24.5352   19.0403 H   0  0  0  0  0  0
  -28.1571  -21.7036   19.1815 H   0  0  0  0  0  0
  -31.8367  -17.1370   21.8392 H   0  0  0  0  0  0
  1 25  1  0  0  0
  1 30  2  0  0  0
  1 85  1  0  0  0
  2  3  1  0  0  0
  2 25  1  0  0  0
  2 87  1  0  0  0
  2 88  1  0  0  0
  3  4  1  0  0  0
  3 89  1  0  0  0
  3 90  1  0  0  0
  4  5  1  0  0  0
  4 91  1  0  0  0
  4 92  1  0  0  0
  5  6  1  0  0  0
  5 26  1  0  0  0
  5 93  1  0  0  0
  6 25  1  0  0  0
  6 94  1  0  0  0
  6 95  1  0  0  0
  7  8  2  0  0  0
  7 26  1  0  0  0
  7 29  1  0  0  0
  8  9  1  0  0  0
  8 22  1  0  0  0
  9 10  1  0  0  0
  9 27  2  0  0  0
 10 11  2  0  0  0
 10 15  1  0  0  0
 11 12  1  0  0  0
 11 96  1  0  0  0
 12 13  2  0  0  0
 12 97  1  0  0  0
 13 14  1  0  0  0
 13 31  1  0  0  0
 14 15  2  0  0  0
 14 98  1  0  0  0
 15 99  1  0  0  0
 16 17  2  0  0  0
 16 21  1  0  0  0
 16 31  1  0  0  0
 17 18  1  0  0  0
 17100  1  0  0  0
 18 19  2  0  0  0
 18101  1  0  0  0
 19 20  1  0  0  0
 19 24  1  0  0  0
 20 21  2  0  0  0
 20102  1  0  0  0
 21 23  1  0  0  0
 22 28  1  0  0  0
 22 32  2  0  0  0
 26 27  1  0  0  0
 28103  1  0  0  0
 28104  1  0  0  0
 29105  1  0  0  0
 29106  1  0  0  0
 33 34  1  0  0  0
 33 66  1  0  0  0
 33 70  2  0  0  0
 34 36  1  0  0  0
 34 59  1  0  0  0
 34107  1  0  0  0
 35 44  2  0  0  0
 35 45  1  0  0  0
 35 68  1  0  0  0
 36 56  1  0  0  0
 36108  1  0  0  0
 37 39  1  0  0  0
 37 47  1  0  0  0
 37 66  1  0  0  0
 37109  1  0  0  0
 38 43  2  0  0  0
 38 46  1  0  0  0
 38 47  1  0  0  0
 39 64  1  0  0  0
 39 67  2  0  0  0
 40 52  1  0  0  0
 40 53  2  0  0  0
 40 58  1  0  0  0
 41110  1  0  0  0
 41111  1  0  0  0
 41112  1  0  0  0
 41 48  1  0  0  0
 42 43  1  0  0  0
 42 66  1  0  0  0
 42113  1  0  0  0
 42114  1  0  0  0
 43 44  1  0  0  0
 44115  1  0  0  0
 45 46  2  0  0  0
 45116  1  0  0  0
 46117  1  0  0  0
 47118  1  0  0  0
 47119  1  0  0  0
 48 56  1  0  0  0
 48 65  1  0  0  0
 48120  1  0  0  0
 49 50  1  0  0  0
 49 53  1  0  0  0
 49 64  1  0  0  0
 49121  1  0  0  0
 50 51  1  0  0  0
 50122  1  0  0  0
 50123  1  0  0  0
 51 52  1  0  0  0
 51124  1  0  0  0
 51125  1  0  0  0
 52126  1  0  0  0
 52127  1  0  0  0
 53 54  1  0  0  0
 54 55  2  0  0  0
 54128  1  0  0  0
 55 57  1  0  0  0
 55129  1  0  0  0
 56 69  2  0  0  0
 57 58  2  0  0  0
 57130  1  0  0  0
 58131  1  0  0  0
 59 60  1  0  0  0
 59 61  1  0  0  0
 59 62  1  0  0  0
 60132  1  0  0  0
 60133  1  0  0  0
 60134  1  0  0  0
 61135  1  0  0  0
 61136  1  0  0  0
 61137  1  0  0  0
 62138  1  0  0  0
 62139  1  0  0  0
 62140  1  0  0  0
 63 65  1  0  0  0
 63141  1  0  0  0
 63142  1  0  0  0
 63143  1  0  0  0
 64144  1  0  0  0
 65145  1  0  0  0
 68 82  1  0  0  0
 71 73  1  0  0  0
 71 74  2  0  0  0
 71146  1  0  0  0
 72 73  2  0  0  0
 72 86  1  0  0  0
 72147  1  0  0  0
 73 83  1  0  0  0
 74 85  1  0  0  0
 74 86  1  0  0  0
 75 80  1  0  0  0
 75148  1  0  0  0
 75149  1  0  0  0
 75150  1  0  0  0
 76151  1  0  0  0
 76152  1  0  0  0
 76153  1  0  0  0
 76 84  1  0  0  0
 77 84  1  0  0  0
 77154  1  0  0  0
 77155  1  0  0  0
 77156  1  0  0  0
 78157  1  0  0  0
 78158  1  0  0  0
 78159  1  0  0  0
 78 85  1  0  0  0
 79 85  1  0  0  0
 79160  1  0  0  0
 79161  1  0  0  0
 79162  1  0  0  0
 80163  1  0  0  0
 80164  1  0  0  0
 80 83  1  0  0  0
 81 82  1  0  0  0
 81 83  1  0  0  0
 81165  1  0  0  0
 81166  1  0  0  0
 82167  1  0  0  0
 82168  1  0  0  0
 83169  1  0  0  0
 84 86  1  0  0  0
 84170  1  0  0  0
M  ISO  4   1 100  68 101  82 101  85 100
M  END
> <chiral flag>
0

> <version>
0

> <s_m_source_file>
/data/baiqing/PycharmProjects/Reinvent-master-3.2/result/LINK_invent/BTK/process_docking_weight1_custom_sum_contain_oxygen_bond_distance_aromatic_linkinvent_7_9_3/rearranged_h_0082.sdf

> <i_m_source_file_index>
27

> <r_mmod_Potential_Energy-OPLS-2005>
709.79541015625

> <r_mmod_Stretch_Energy-OPLS-2005>
257.556121826172

> <r_mmod_Bend_Energy-OPLS-2005>
320.815185546875

> <r_mmod_Torsional_Energy-OPLS-2005>
263.883636474609

> <r_mmod_Improper_Torsional_Energy-OPLS-2005>
18.9630641937256

> <r_mmod_Van_der_Waal_Energy-OPLS-2005>
127.832595825195

> <r_mmod_Electrostatic_Energy-OPLS-2005>
-325.993682861328

> <r_mmod_Solvation_Energy-OPLS-2005>
-172.847579956055

> <b_mmod_Minimization_Converged-OPLS-2005>
0

> <r_mmod_RMS_Derivative-OPLS-2005>
2.03716254234314

$$$$
27
                    3D
 Structure written by MMmdl.
160168  0  0  1  0            999 V2000
  -30.6638  -14.5565   20.4941 C   0  0  0  0  0  0
  -30.4228  -12.3374   19.4388 C   0  0  0  0  0  0
  -29.4982  -12.4856   18.2123 C   0  0  0  0  0  0
  -28.0183  -12.3479   18.6236 C   0  0  0  0  0  0
  -27.6529  -13.2126   19.8602 C   0  0  2  0  0  0
  -28.6965  -13.0537   20.9873 C   0  0  0  0  0  0
  -25.2569  -13.8169   20.5671 C   0  0  0  0  0  0
  -24.1831  -13.0435   20.9176 C   0  0  0  0  0  0
  -24.6390  -11.6903   20.8728 C   0  0  0  0  0  0
  -23.9059  -10.4287   21.0397 C   0  0  0  0  0  0
  -24.3614   -9.4207   21.9177 C   0  0  0  0  0  0
  -23.6290   -8.2242   22.0755 C   0  0  0  0  0  0
  -22.4272   -8.0276   21.3545 C   0  0  0  0  0  0
  -21.9903   -9.0249   20.4647 C   0  0  0  0  0  0
  -22.7231  -10.2125   20.3049 C   0  0  0  0  0  0
  -21.6859   -6.0726   22.5272 C   0  0  0  0  0  0
  -21.4022   -6.5637   23.8205 C   0  0  0  0  0  0
  -21.3654   -5.6789   24.9169 C   0  0  0  0  0  0
  -21.6038   -4.3049   24.7222 C   0  0  0  0  0  0
  -21.8824   -3.8141   23.4345 C   0  0  0  0  0  0
  -21.9198   -4.6954   22.3401 C   0  0  0  0  0  0
  -22.7855  -13.5226   21.1833 C   0  0  0  0  0  0
  -22.1668   -4.2139   21.0979 F   0  0  0  0  0  0
  -21.5619   -3.4536   25.7736 F   0  0  0  0  0  0
  -30.0158  -13.3592   20.4178 N   0  0  0  0  0  0
  -26.2987  -12.9341   20.3303 N   0  0  0  0  0  0
  -25.9318  -11.6499   20.5745 N   0  0  0  0  0  0
  -22.0505  -12.8218   22.0394 N   0  0  0  0  0  0
  -25.4291  -15.1887   20.4086 N   0  0  0  0  0  0
  -31.8349  -14.6898   20.1338 O   0  0  0  0  0  0
  -21.6643   -6.8868   21.4235 O   0  0  0  0  0  0
  -22.3537  -14.5530   20.6675 O   0  0  0  0  0  0
  -24.6190  -31.8625   23.2018 C   0  0  0  0  0  0
  -25.9060  -32.4787   23.8333 C   0  0  1  0  0  0
  -27.2339  -27.3738   20.0948 C   0  0  0  0  0  0
  -25.5909  -33.8584   24.2277 N   0  0  0  0  0  0
  -23.4099  -30.4834   21.5410 C   0  0  2  0  0  0
  -24.8559  -28.9389   20.1057 C   0  0  0  0  0  0
  -22.7434  -29.4623   22.4923 C   0  0  0  0  0  0
  -18.0283  -28.1368   22.8488 C   0  0  0  0  0  0
  -24.1497  -36.7288   23.2643 C   0  0  0  0  0  0
  -25.9443  -30.8046   21.3658 C   0  0  0  0  0  0
  -26.0172  -29.4345   20.7112 C   0  0  0  0  0  0
  -27.2028  -28.6575   20.7053 C   0  0  0  0  0  0
  -26.0518  -26.9022   19.4841 C   0  0  0  0  0  0
  -24.8722  -27.6738   19.4904 C   0  0  0  0  0  0
  -23.6204  -29.8120   20.1566 C   0  0  0  0  0  0
  -25.4118  -36.3077   24.0334 C   0  0  1  0  0  0
  -20.5880  -28.3656   23.1289 C   0  0  2  0  0  0
  -20.6771  -26.9385   22.5404 C   0  0  0  0  0  0
  -19.5750  -26.6371   21.5204 C   0  0  0  0  0  0
  -18.1927  -26.7914   22.1611 C   0  0  0  0  0  0
  -19.1537  -28.8824   23.2891 C   0  0  0  0  0  0
  -18.9468  -30.1436   23.8894 C   0  0  0  0  0  0
  -17.6472  -30.6577   24.0560 C   0  0  0  0  0  0
  -25.9047  -34.9447   23.5100 C   0  0  0  0  0  0
  -16.5359  -29.9075   23.6327 C   0  0  0  0  0  0
  -16.7272  -28.6491   23.0343 C   0  0  0  0  0  0
  -26.4467  -31.6590   25.0689 C   0  0  0  0  0  0
  -25.3732  -31.3714   26.1445 C   0  0  0  0  0  0
  -27.0314  -30.3030   24.6098 C   0  0  0  0  0  0
  -27.6035  -32.4317   25.7456 C   0  0  0  0  0  0
  -27.5575  -37.1797   24.8468 C   0  0  0  0  0  0
  -21.4154  -29.3025   22.3684 N   0  0  0  0  0  0
  -26.4292  -37.3770   23.9410 N   0  0  0  0  0  0
  -24.6760  -31.0675   22.0937 N   0  0  0  0  0  0
  -23.4194  -28.8178   23.2980 O   0  0  0  0  0  0
  -28.4004  -26.6214   20.1479 O   0  0  0  0  0  0
  -26.5613  -34.8917   22.4666 O   0  0  0  0  0  0
  -23.5366  -32.1393   23.7378 O   0  0  0  0  0  0
  -28.1901  -21.0770   22.0329 C   0  0  0  0  0  0
  -28.4934  -18.8926   22.3572 C   0  0  0  0  0  0
  -28.0660  -20.0271   22.9811 C   0  0  0  0  0  0
  -28.6410  -20.5689   20.8452 C   0  0  0  0  0  0
  -27.5415  -20.1370   24.3858 C   0  0  0  0  0  0
  -28.7680  -21.3214   19.5265 C   0  0  0  0  0  0
  -29.1913  -22.8435   19.5290 C   0  0  0  0  0  0
  -28.2388  -24.0052   20.0111 C   0  0  0  0  0  0
  -29.3329  -18.1200   20.1307 C   0  0  0  0  0  0
  -30.3395  -17.0672   20.7452 C   0  0  0  0  0  0
  -28.5917  -25.4042   19.3754 C   0  0  0  0  0  0
  -28.8761  -19.1844   21.0575 N   0  0  0  0  0  0
  -29.8990  -15.6417   20.7807 N   0  0  0  0  0  0
  -31.4671  -12.4375   19.1369 H   0  0  0  0  0  0
  -30.3315  -11.3396   19.8728 H   0  0  0  0  0  0
  -29.7470  -11.7348   17.4604 H   0  0  0  0  0  0
  -29.6617  -13.4560   17.7411 H   0  0  0  0  0  0
  -27.8336  -11.2957   18.8412 H   0  0  0  0  0  0
  -27.3697  -12.6010   17.7842 H   0  0  0  0  0  0
  -27.6766  -14.2499   19.5269 H   0  0  0  0  0  0
  -28.6864  -12.0354   21.3805 H   0  0  0  0  0  0
  -28.4604  -13.7026   21.8321 H   0  0  0  0  0  0
  -25.2760   -9.5681   22.4746 H   0  0  0  0  0  0
  -23.9994   -7.4636   22.7480 H   0  0  0  0  0  0
  -21.0829   -8.8762   19.8961 H   0  0  0  0  0  0
  -22.3687  -10.9658   19.6151 H   0  0  0  0  0  0
  -21.2026   -7.6147   23.9703 H   0  0  0  0  0  0
  -21.1467   -6.0523   25.9067 H   0  0  0  0  0  0
  -22.0610   -2.7603   23.2850 H   0  0  0  0  0  0
  -22.4134  -11.9876   22.4770 H   0  0  0  0  0  0
  -21.1121  -13.1235   22.2598 H   0  0  0  0  0  0
  -24.6638  -15.8437   20.5240 H   0  0  0  0  0  0
  -26.2748  -15.6274   20.0682 H   0  0  0  0  0  0
  -26.7120  -32.5463   23.1073 H   0  0  0  0  0  0
  -25.0093  -33.9738   25.0440 H   0  0  0  0  0  0
  -22.7010  -31.3009   21.3947 H   0  0  0  0  0  0
  -23.3759  -35.9623   23.3315 H   0  0  0  0  0  0
  -24.3604  -36.8889   22.2061 H   0  0  0  0  0  0
  -23.7246  -37.6486   23.6662 H   0  0  0  0  0  0
  -26.0696  -31.5683   20.5968 H   0  0  0  0  0  0
  -26.8286  -30.8518   21.9899 H   0  0  0  0  0  0
  -28.0965  -29.0344   21.1820 H   0  0  0  0  0  0
  -26.0196  -25.9286   19.0175 H   0  0  0  0  0  0
  -23.9790  -27.2813   19.0232 H   0  0  0  0  0  0
  -23.7289  -30.5843   19.3954 H   0  0  0  0  0  0
  -22.7446  -29.2318   19.8614 H   0  0  0  0  0  0
  -25.1294  -36.1926   25.0821 H   0  0  0  0  0  0
  -20.9974  -28.3221   24.1407 H   0  0  0  0  0  0
  -20.5652  -26.2263   23.3598 H   0  0  0  0  0  0
  -21.6639  -26.7400   22.1207 H   0  0  0  0  0  0
  -19.6921  -25.6283   21.1224 H   0  0  0  0  0  0
  -19.6706  -27.3193   20.6753 H   0  0  0  0  0  0
  -17.4202  -26.6666   21.4019 H   0  0  0  0  0  0
  -18.0324  -26.0054   22.9002 H   0  0  0  0  0  0
  -19.7952  -30.7249   24.2251 H   0  0  0  0  0  0
  -17.5034  -31.6257   24.5152 H   0  0  0  0  0  0
  -15.5361  -30.2976   23.7659 H   0  0  0  0  0  0
  -15.8675  -28.0819   22.7045 H   0  0  0  0  0  0
  -24.5910  -30.7049   25.7793 H   0  0  0  0  0  0
  -24.8931  -32.2883   26.4877 H   0  0  0  0  0  0
  -25.8094  -30.8902   27.0216 H   0  0  0  0  0  0
  -26.2871  -29.6785   24.1152 H   0  0  0  0  0  0
  -27.4081  -29.7257   25.4552 H   0  0  0  0  0  0
  -27.8702  -30.4342   23.9258 H   0  0  0  0  0  0
  -27.2648  -33.3617   26.2036 H   0  0  0  0  0  0
  -28.3851  -32.6887   25.0292 H   0  0  0  0  0  0
  -28.0710  -31.8452   26.5377 H   0  0  0  0  0  0
  -28.2586  -38.0099   24.7493 H   0  0  0  0  0  0
  -28.1068  -36.2621   24.6308 H   0  0  0  0  0  0
  -27.2295  -37.1441   25.8871 H   0  0  0  0  0  0
  -20.9303  -29.8757   21.6926 H   0  0  0  0  0  0
  -26.0171  -38.2843   24.1413 H   0  0  0  0  0  0
  -27.9160  -22.1098   22.1952 H   0  0  0  0  0  0
  -28.5442  -17.8763   22.7281 H   0  0  0  0  0  0
  -26.7844  -20.9183   24.4527 H   0  0  0  0  0  0
  -28.3478  -20.3775   25.0786 H   0  0  0  0  0  0
  -27.0856  -19.1965   24.6980 H   0  0  0  0  0  0
  -27.8280  -21.2251   18.9814 H   0  0  0  0  0  0
  -29.4985  -20.7999   18.9077 H   0  0  0  0  0  0
  -29.4183  -23.0676   18.4845 H   0  0  0  0  0  0
  -30.1482  -22.9411   20.0412 H   0  0  0  0  0  0
  -28.3031  -24.0829   21.0953 H   0  0  0  0  0  0
  -27.1994  -23.7636   19.7862 H   0  0  0  0  0  0
  -28.4497  -17.6172   19.7362 H   0  0  0  0  0  0
  -29.8094  -18.5939   19.2726 H   0  0  0  0  0  0
  -30.6347  -17.3544   21.7551 H   0  0  0  0  0  0
  -31.2631  -17.1392   20.1691 H   0  0  0  0  0  0
  -28.1493  -25.4953   18.3827 H   0  0  0  0  0  0
  -29.6652  -25.4015   19.1875 H   0  0  0  0  0  0
  -28.9384  -15.4597   21.0296 H   0  0  0  0  0  0
  1 25  1  0  0  0
  1 30  2  0  0  0
  1 83  1  0  0  0
  2  3  1  0  0  0
  2 25  1  0  0  0
  2 84  1  0  0  0
  2 85  1  0  0  0
  3  4  1  0  0  0
  3 86  1  0  0  0
  3 87  1  0  0  0
  4  5  1  0  0  0
  4 88  1  0  0  0
  4 89  1  0  0  0
  5  6  1  0  0  0
  5 26  1  0  0  0
  5 90  1  0  0  0
  6 25  1  0  0  0
  6 91  1  0  0  0
  6 92  1  0  0  0
  7  8  2  0  0  0
  7 26  1  0  0  0
  7 29  1  0  0  0
  8  9  1  0  0  0
  8 22  1  0  0  0
  9 10  1  0  0  0
  9 27  2  0  0  0
 10 11  2  0  0  0
 10 15  1  0  0  0
 11 12  1  0  0  0
 11 93  1  0  0  0
 12 13  2  0  0  0
 12 94  1  0  0  0
 13 14  1  0  0  0
 13 31  1  0  0  0
 14 15  2  0  0  0
 14 95  1  0  0  0
 15 96  1  0  0  0
 16 17  2  0  0  0
 16 21  1  0  0  0
 16 31  1  0  0  0
 17 18  1  0  0  0
 17 97  1  0  0  0
 18 19  2  0  0  0
 18 98  1  0  0  0
 19 20  1  0  0  0
 19 24  1  0  0  0
 20 21  2  0  0  0
 20 99  1  0  0  0
 21 23  1  0  0  0
 22 28  1  0  0  0
 22 32  2  0  0  0
 26 27  1  0  0  0
 28100  1  0  0  0
 28101  1  0  0  0
 29102  1  0  0  0
 29103  1  0  0  0
 33 34  1  0  0  0
 33 66  1  0  0  0
 33 70  2  0  0  0
 34 36  1  0  0  0
 34 59  1  0  0  0
 34104  1  0  0  0
 35 44  2  0  0  0
 35 45  1  0  0  0
 35 68  1  0  0  0
 36 56  1  0  0  0
 36105  1  0  0  0
 37 39  1  0  0  0
 37 47  1  0  0  0
 37 66  1  0  0  0
 37106  1  0  0  0
 38 43  2  0  0  0
 38 46  1  0  0  0
 38 47  1  0  0  0
 39 64  1  0  0  0
 39 67  2  0  0  0
 40 52  1  0  0  0
 40 53  2  0  0  0
 40 58  1  0  0  0
 41107  1  0  0  0
 41108  1  0  0  0
 41109  1  0  0  0
 41 48  1  0  0  0
 42 43  1  0  0  0
 42 66  1  0  0  0
 42110  1  0  0  0
 42111  1  0  0  0
 43 44  1  0  0  0
 44112  1  0  0  0
 45 46  2  0  0  0
 45113  1  0  0  0
 46114  1  0  0  0
 47115  1  0  0  0
 47116  1  0  0  0
 48 56  1  0  0  0
 48 65  1  0  0  0
 48117  1  0  0  0
 49 50  1  0  0  0
 49 53  1  0  0  0
 49 64  1  0  0  0
 49118  1  0  0  0
 50 51  1  0  0  0
 50119  1  0  0  0
 50120  1  0  0  0
 51 52  1  0  0  0
 51121  1  0  0  0
 51122  1  0  0  0
 52123  1  0  0  0
 52124  1  0  0  0
 53 54  1  0  0  0
 54 55  2  0  0  0
 54125  1  0  0  0
 55 57  1  0  0  0
 55126  1  0  0  0
 56 69  2  0  0  0
 57 58  2  0  0  0
 57127  1  0  0  0
 58128  1  0  0  0
 59 60  1  0  0  0
 59 61  1  0  0  0
 59 62  1  0  0  0
 60129  1  0  0  0
 60130  1  0  0  0
 60131  1  0  0  0
 61132  1  0  0  0
 61133  1  0  0  0
 61134  1  0  0  0
 62135  1  0  0  0
 62136  1  0  0  0
 62137  1  0  0  0
 63 65  1  0  0  0
 63138  1  0  0  0
 63139  1  0  0  0
 63140  1  0  0  0
 64141  1  0  0  0
 65142  1  0  0  0
 68 81  1  0  0  0
 71 73  1  0  0  0
 71 74  2  0  0  0
 71143  1  0  0  0
 72 73  2  0  0  0
 72 82  1  0  0  0
 72144  1  0  0  0
 73 75  1  0  0  0
 74 76  1  0  0  0
 74 82  1  0  0  0
 75145  1  0  0  0
 75146  1  0  0  0
 75147  1  0  0  0
 76 77  1  0  0  0
 76148  1  0  0  0
 76149  1  0  0  0
 77 78  1  0  0  0
 77150  1  0  0  0
 77151  1  0  0  0
 78 81  1  0  0  0
 78152  1  0  0  0
 78153  1  0  0  0
 79 80  1  0  0  0
 79 82  1  0  0  0
 79154  1  0  0  0
 79155  1  0  0  0
 80 83  1  0  0  0
 80156  1  0  0  0
 80157  1  0  0  0
 81158  1  0  0  0
 81159  1  0  0  0
 83160  1  0  0  0
M  ISO  4   1 100  68 101  81 101  83 100
M  END
> <chiral flag>
0

> <version>
0

> <s_m_source_file>
/data/baiqing/PycharmProjects/Reinvent-master-3.2/result/LINK_invent/BTK/process_docking_weight1_custom_sum_contain_oxygen_bond_distance_aromatic_linkinvent_7_9_3/rearranged_h_0082.sdf

> <i_m_source_file_index>
28

> <r_mmod_Potential_Energy-OPLS-2005>
-23.7858238220215

> <r_mmod_Stretch_Energy-OPLS-2005>
56.1502113342285

> <r_mmod_Bend_Energy-OPLS-2005>
142.817092895508

> <r_mmod_Torsional_Energy-OPLS-2005>
228.990798950195

> <r_mmod_Improper_Torsional_Energy-OPLS-2005>
5.20190382003784

> <r_mmod_Van_der_Waal_Energy-OPLS-2005>
120.732177734375

> <r_mmod_Electrostatic_Energy-OPLS-2005>
-392.237915039062

> <r_mmod_Solvation_Energy-OPLS-2005>
-213.439468383789

> <b_mmod_Minimization_Converged-OPLS-2005>
0

> <r_mmod_RMS_Derivative-OPLS-2005>
1.94194066524506

$$$$
28
                    3D
 Structure written by MMmdl.
176184  0  0  1  0            999 V2000
  -30.8995  -14.5297   20.4375 C   0  0  0  0  0  0
  -30.4414  -12.3432   19.4523 C   0  0  0  0  0  0
  -29.5171  -12.3428   18.2260 C   0  0  0  0  0  0
  -28.0372  -12.2997   18.6477 C   0  0  0  0  0  0
  -27.6645  -13.2259   19.8387 C   0  0  2  0  0  0
  -28.7444  -13.2247   20.9449 C   0  0  0  0  0  0
  -25.2738  -13.8157   20.5773 C   0  0  0  0  0  0
  -24.1960  -13.0489   20.9210 C   0  0  0  0  0  0
  -24.6494  -11.6941   20.8792 C   0  0  0  0  0  0
  -23.9103  -10.4347   21.0449 C   0  0  0  0  0  0
  -24.3629   -9.4246   21.9235 C   0  0  0  0  0  0
  -23.6311   -8.2292   22.0802 C   0  0  0  0  0  0
  -22.4294   -8.0341   21.3576 C   0  0  0  0  0  0
  -21.9942   -9.0323   20.4685 C   0  0  0  0  0  0
  -22.7277  -10.2214   20.3112 C   0  0  0  0  0  0
  -21.6862   -6.0777   22.5297 C   0  0  0  0  0  0
  -21.3992   -6.5651   23.8217 C   0  0  0  0  0  0
  -21.3641   -5.6788   24.9174 C   0  0  0  0  0  0
  -21.6027   -4.3072   24.7226 C   0  0  0  0  0  0
  -21.8854   -3.8178   23.4339 C   0  0  0  0  0  0
  -21.9236   -4.6996   22.3405 C   0  0  0  0  0  0
  -22.7970  -13.5311   21.1797 C   0  0  0  0  0  0
  -22.1720   -4.2200   21.0983 F   0  0  0  0  0  0
  -21.5617   -3.4556   25.7726 F   0  0  0  0  0  0
  -30.0457  -13.4708   20.3052 N   0  0  0  0  0  0
  -26.3167  -12.9361   20.3394 N   0  0  0  0  0  0
  -25.9440  -11.6516   20.5848 N   0  0  0  0  0  0
  -22.0538  -12.8349   22.0281 N   0  0  0  0  0  0
  -25.4581  -15.1881   20.4162 N   0  0  0  0  0  0
  -32.0790  -14.2679   20.6141 O   0  0  0  0  0  0
  -21.6678   -6.8941   21.4271 O   0  0  0  0  0  0
  -22.3698  -14.5638   20.6648 O   0  0  0  0  0  0
  -24.6212  -31.8665   23.2123 C   0  0  0  0  0  0
  -25.9138  -32.4775   23.8380 C   0  0  1  0  0  0
  -27.2004  -27.4134   20.0986 C   0  0  0  0  0  0
  -25.6044  -33.8559   24.2327 N   0  0  0  0  0  0
  -23.4066  -30.5009   21.5528 C   0  0  2  0  0  0
  -24.8428  -28.9835   20.0935 C   0  0  0  0  0  0
  -22.7435  -29.4675   22.4938 C   0  0  0  0  0  0
  -18.0280  -28.1394   22.8443 C   0  0  0  0  0  0
  -24.1539  -36.7313   23.2643 C   0  0  0  0  0  0
  -25.9431  -30.8284   21.3712 C   0  0  0  0  0  0
  -26.0087  -29.4736   20.6968 C   0  0  0  0  0  0
  -27.1933  -28.7014   20.6857 C   0  0  0  0  0  0
  -26.0190  -26.9528   19.4681 C   0  0  0  0  0  0
  -24.8443  -27.7233   19.4736 C   0  0  0  0  0  0
  -23.6102  -29.8545   20.1565 C   0  0  0  0  0  0
  -25.4159  -36.3085   24.0326 C   0  0  1  0  0  0
  -20.5868  -28.3682   23.1252 C   0  0  2  0  0  0
  -20.6781  -26.9390   22.5415 C   0  0  0  0  0  0
  -19.5750  -26.6366   21.5222 C   0  0  0  0  0  0
  -18.1906  -26.7926   22.1594 C   0  0  0  0  0  0
  -19.1532  -28.8845   23.2845 C   0  0  0  0  0  0
  -18.9472  -30.1429   23.8880 C   0  0  0  0  0  0
  -17.6467  -30.6575   24.0552 C   0  0  0  0  0  0
  -25.9070  -34.9426   23.5093 C   0  0  0  0  0  0
  -16.5355  -29.9078   23.6317 C   0  0  0  0  0  0
  -16.7269  -28.6513   23.0313 C   0  0  0  0  0  0
  -26.4539  -31.6567   25.0724 C   0  0  0  0  0  0
  -25.3809  -31.3751   26.1501 C   0  0  0  0  0  0
  -27.0362  -30.2982   24.6181 C   0  0  0  0  0  0
  -27.6110  -32.4295   25.7517 C   0  0  0  0  0  0
  -27.5606  -37.1817   24.8449 C   0  0  0  0  0  0
  -21.4165  -29.3052   22.3669 N   0  0  0  0  0  0
  -26.4344  -37.3763   23.9357 N   0  0  0  0  0  0
  -24.6743  -31.0791   22.1019 N   0  0  0  0  0  0
  -23.4196  -28.8142   23.2941 O   0  0  0  0  0  0
  -28.3170  -26.6055   20.1908 O   0  0  0  0  0  0
  -26.5570  -34.8889   22.4617 O   0  0  0  0  0  0
  -23.5420  -32.1423   23.7532 O   0  0  0  0  0  0
  -29.8243  -19.4234   21.3374 C   0  0  0  0  0  0
  -30.0212  -18.5348   20.3029 C   0  0  0  0  0  0
  -30.4406  -19.3672   19.1747 C   0  0  0  0  0  0
  -30.4661  -20.6733   19.6034 C   0  0  0  0  0  0
  -30.8685  -21.9202   18.8535 C   0  0  0  0  0  0
  -30.7441  -20.0335   15.3872 C   0  0  0  0  0  0
  -28.8680  -18.5383   16.2551 C   0  0  0  0  0  0
  -32.1593  -16.6190   19.7166 C   0  0  0  0  0  0
  -30.1779  -15.7174   18.3561 C   0  0  0  0  0  0
  -29.7877  -16.9944   20.4970 C   0  0  0  0  0  0
  -30.8877  -19.0480   17.7415 C   0  0  0  0  0  0
  -28.7679  -22.8848   21.1537 C   0  0  0  0  0  0
  -29.1486  -24.3846   21.0141 C   0  0  0  0  0  0
  -29.8731  -21.9473   21.7154 C   0  0  0  0  0  0
  -28.0191  -25.2044   20.3602 C   0  0  0  0  0  0
  -29.9476  -19.5675   16.6248 C   0  0  0  0  0  0
  -30.7249  -15.9641   19.7714 C   0  0  0  0  0  0
  -30.0383  -20.7247   20.9160 N   0  0  0  0  0  0
  -31.4779  -12.4051   19.1103 H   0  0  0  0  0  0
  -30.3638  -11.4136   20.0184 H   0  0  0  0  0  0
  -29.7468  -11.4657   17.6189 H   0  0  0  0  0  0
  -29.7311  -13.1882   17.5784 H   0  0  0  0  0  0
  -27.8381  -11.2641   18.9203 H   0  0  0  0  0  0
  -27.4013  -12.5227   17.7930 H   0  0  0  0  0  0
  -27.6329  -14.2376   19.4375 H   0  0  0  0  0  0
  -28.7688  -12.2669   21.4621 H   0  0  0  0  0  0
  -28.5330  -13.9860   21.6993 H   0  0  0  0  0  0
  -25.2789   -9.5721   22.4803 H   0  0  0  0  0  0
  -24.0050   -7.4675   22.7495 H   0  0  0  0  0  0
  -21.0904   -8.8822   19.8953 H   0  0  0  0  0  0
  -22.3744  -10.9755   19.6222 H   0  0  0  0  0  0
  -21.1930   -7.6157   23.9715 H   0  0  0  0  0  0
  -21.1398   -6.0524   25.9061 H   0  0  0  0  0  0
  -22.0644   -2.7647   23.2822 H   0  0  0  0  0  0
  -22.4089  -12.0011   22.4722 H   0  0  0  0  0  0
  -21.1145  -13.1458   22.2403 H   0  0  0  0  0  0
  -24.7071  -15.8599   20.5204 H   0  0  0  0  0  0
  -26.3200  -15.6084   20.0891 H   0  0  0  0  0  0
  -26.7206  -32.5484   23.1122 H   0  0  0  0  0  0
  -25.0313  -33.9682   25.0566 H   0  0  0  0  0  0
  -22.6996  -31.3231   21.4232 H   0  0  0  0  0  0
  -23.3788  -35.9665   23.3281 H   0  0  0  0  0  0
  -24.3654  -36.8943   22.2067 H   0  0  0  0  0  0
  -23.7272  -37.6507   23.6653 H   0  0  0  0  0  0
  -26.0888  -31.6086   20.6208 H   0  0  0  0  0  0
  -26.8194  -30.8416   22.0109 H   0  0  0  0  0  0
  -28.0868  -29.0657   21.1699 H   0  0  0  0  0  0
  -25.9820  -25.9890   18.9813 H   0  0  0  0  0  0
  -23.9484  -27.3443   19.0002 H   0  0  0  0  0  0
  -23.7086  -30.6404   19.4050 H   0  0  0  0  0  0
  -22.7292  -29.2808   19.8622 H   0  0  0  0  0  0
  -25.1319  -36.1990   25.0818 H   0  0  0  0  0  0
  -20.9959  -28.3329   24.1369 H   0  0  0  0  0  0
  -20.5756  -26.2290   23.3638 H   0  0  0  0  0  0
  -21.6641  -26.7442   22.1150 H   0  0  0  0  0  0
  -19.6929  -25.6278   21.1250 H   0  0  0  0  0  0
  -19.6749  -27.3191   20.6752 H   0  0  0  0  0  0
  -17.4209  -26.6689   21.3974 H   0  0  0  0  0  0
  -18.0217  -26.0103   22.8997 H   0  0  0  0  0  0
  -19.7971  -30.7188   24.2314 H   0  0  0  0  0  0
  -17.5057  -31.6269   24.5143 H   0  0  0  0  0  0
  -15.5366  -30.2978   23.7675 H   0  0  0  0  0  0
  -15.8660  -28.0856   22.7007 H   0  0  0  0  0  0
  -24.5911  -30.7165   25.7867 H   0  0  0  0  0  0
  -24.9128  -32.2960   26.4992 H   0  0  0  0  0  0
  -25.8172  -30.8880   27.0237 H   0  0  0  0  0  0
  -26.2889  -29.6726   24.1296 H   0  0  0  0  0  0
  -27.4110  -29.7254   25.4678 H   0  0  0  0  0  0
  -27.8750  -30.4212   23.9326 H   0  0  0  0  0  0
  -27.2677  -33.3567   26.2132 H   0  0  0  0  0  0
  -28.3933  -32.6905   25.0363 H   0  0  0  0  0  0
  -28.0774  -31.8404   26.5440 H   0  0  0  0  0  0
  -28.2606  -38.0129   24.7447 H   0  0  0  0  0  0
  -28.1094  -36.2623   24.6321 H   0  0  0  0  0  0
  -27.2277  -37.1515   25.8844 H   0  0  0  0  0  0
  -20.9346  -29.8862   21.6953 H   0  0  0  0  0  0
  -26.0251  -38.2854   24.1336 H   0  0  0  0  0  0
  -29.5287  -19.2385   22.3632 H   0  0  0  0  0  0
  -31.5195  -21.6996   18.0101 H   0  0  0  0  0  0
  -31.4199  -22.6181   19.4784 H   0  0  0  0  0  0
  -29.9922  -22.4343   18.4550 H   0  0  0  0  0  0
  -30.0809  -20.4952   14.6551 H   0  0  0  0  0  0
  -31.2577  -19.2072   14.8925 H   0  0  0  0  0  0
  -31.4930  -20.7837   15.6360 H   0  0  0  0  0  0
  -28.1407  -18.4504   17.0625 H   0  0  0  0  0  0
  -29.2894  -17.5507   16.0717 H   0  0  0  0  0  0
  -28.3314  -18.8055   15.3434 H   0  0  0  0  0  0
  -32.8944  -16.0219   19.1751 H   0  0  0  0  0  0
  -32.5375  -16.7689   20.7315 H   0  0  0  0  0  0
  -32.2339  -17.5971   19.2704 H   0  0  0  0  0  0
  -29.8282  -16.6215   17.9049 H   0  0  0  0  0  0
  -29.2748  -15.1204   18.3601 H   0  0  0  0  0  0
  -30.9093  -15.2416   17.6996 H   0  0  0  0  0  0
  -28.7469  -16.7753   20.2587 H   0  0  0  0  0  0
  -29.8709  -16.8010   21.5665 H   0  0  0  0  0  0
  -31.1776  -18.0257   17.5529 H   0  0  0  0  0  0
  -31.8597  -19.5328   17.6382 H   0  0  0  0  0  0
  -28.4417  -22.5330   20.1746 H   0  0  0  0  0  0
  -27.8838  -22.7897   21.7821 H   0  0  0  0  0  0
  -30.0406  -24.4837   20.3963 H   0  0  0  0  0  0
  -29.3961  -24.8023   21.9947 H   0  0  0  0  0  0
  -29.6432  -21.6755   22.7464 H   0  0  0  0  0  0
  -30.8363  -22.4588   21.7645 H   0  0  0  0  0  0
  -27.1207  -25.0805   20.9763 H   0  0  0  0  0  0
  -27.7867  -24.7691   19.3842 H   0  0  0  0  0  0
  -29.4315  -20.4549   16.9921 H   0  0  0  0  0  0
  1 25  1  0  0  0
  1 30  2  0  0  0
  1 87  1  0  0  0
  2  3  1  0  0  0
  2 25  1  0  0  0
  2 89  1  0  0  0
  2 90  1  0  0  0
  3  4  1  0  0  0
  3 91  1  0  0  0
  3 92  1  0  0  0
  4  5  1  0  0  0
  4 93  1  0  0  0
  4 94  1  0  0  0
  5  6  1  0  0  0
  5 26  1  0  0  0
  5 95  1  0  0  0
  6 25  1  0  0  0
  6 96  1  0  0  0
  6 97  1  0  0  0
  7  8  2  0  0  0
  7 26  1  0  0  0
  7 29  1  0  0  0
  8  9  1  0  0  0
  8 22  1  0  0  0
  9 10  1  0  0  0
  9 27  2  0  0  0
 10 11  2  0  0  0
 10 15  1  0  0  0
 11 12  1  0  0  0
 11 98  1  0  0  0
 12 13  2  0  0  0
 12 99  1  0  0  0
 13 14  1  0  0  0
 13 31  1  0  0  0
 14 15  2  0  0  0
 14100  1  0  0  0
 15101  1  0  0  0
 16 17  2  0  0  0
 16 21  1  0  0  0
 16 31  1  0  0  0
 17 18  1  0  0  0
 17102  1  0  0  0
 18 19  2  0  0  0
 18103  1  0  0  0
 19 20  1  0  0  0
 19 24  1  0  0  0
 20 21  2  0  0  0
 20104  1  0  0  0
 21 23  1  0  0  0
 22 28  1  0  0  0
 22 32  2  0  0  0
 26 27  1  0  0  0
 28105  1  0  0  0
 28106  1  0  0  0
 29107  1  0  0  0
 29108  1  0  0  0
 33 34  1  0  0  0
 33 66  1  0  0  0
 33 70  2  0  0  0
 34 36  1  0  0  0
 34 59  1  0  0  0
 34109  1  0  0  0
 35 44  2  0  0  0
 35 45  1  0  0  0
 35 68  1  0  0  0
 36 56  1  0  0  0
 36110  1  0  0  0
 37 39  1  0  0  0
 37 47  1  0  0  0
 37 66  1  0  0  0
 37111  1  0  0  0
 38 43  2  0  0  0
 38 46  1  0  0  0
 38 47  1  0  0  0
 39 64  1  0  0  0
 39 67  2  0  0  0
 40 52  1  0  0  0
 40 53  2  0  0  0
 40 58  1  0  0  0
 41112  1  0  0  0
 41113  1  0  0  0
 41114  1  0  0  0
 41 48  1  0  0  0
 42 43  1  0  0  0
 42 66  1  0  0  0
 42115  1  0  0  0
 42116  1  0  0  0
 43 44  1  0  0  0
 44117  1  0  0  0
 45 46  2  0  0  0
 45118  1  0  0  0
 46119  1  0  0  0
 47120  1  0  0  0
 47121  1  0  0  0
 48 56  1  0  0  0
 48 65  1  0  0  0
 48122  1  0  0  0
 49 50  1  0  0  0
 49 53  1  0  0  0
 49 64  1  0  0  0
 49123  1  0  0  0
 50 51  1  0  0  0
 50124  1  0  0  0
 50125  1  0  0  0
 51 52  1  0  0  0
 51126  1  0  0  0
 51127  1  0  0  0
 52128  1  0  0  0
 52129  1  0  0  0
 53 54  1  0  0  0
 54 55  2  0  0  0
 54130  1  0  0  0
 55 57  1  0  0  0
 55131  1  0  0  0
 56 69  2  0  0  0
 57 58  2  0  0  0
 57132  1  0  0  0
 58133  1  0  0  0
 59 60  1  0  0  0
 59 61  1  0  0  0
 59 62  1  0  0  0
 60134  1  0  0  0
 60135  1  0  0  0
 60136  1  0  0  0
 61137  1  0  0  0
 61138  1  0  0  0
 61139  1  0  0  0
 62140  1  0  0  0
 62141  1  0  0  0
 62142  1  0  0  0
 63 65  1  0  0  0
 63143  1  0  0  0
 63144  1  0  0  0
 63145  1  0  0  0
 64146  1  0  0  0
 65147  1  0  0  0
 68 85  1  0  0  0
 71 72  2  0  0  0
 71 88  1  0  0  0
 71148  1  0  0  0
 72 73  1  0  0  0
 72 80  1  0  0  0
 73 74  2  0  0  0
 73 81  1  0  0  0
 74 75  1  0  0  0
 74 88  1  0  0  0
 75149  1  0  0  0
 75150  1  0  0  0
 75151  1  0  0  0
 76152  1  0  0  0
 76153  1  0  0  0
 76154  1  0  0  0
 76 86  1  0  0  0
 77 86  1  0  0  0
 77155  1  0  0  0
 77156  1  0  0  0
 77157  1  0  0  0
 78158  1  0  0  0
 78159  1  0  0  0
 78160  1  0  0  0
 78 87  1  0  0  0
 79 87  1  0  0  0
 79161  1  0  0  0
 79162  1  0  0  0
 79163  1  0  0  0
 80 87  1  0  0  0
 80164  1  0  0  0
 80165  1  0  0  0
 81 86  1  0  0  0
 81166  1  0  0  0
 81167  1  0  0  0
 82 83  1  0  0  0
 82 84  1  0  0  0
 82168  1  0  0  0
 82169  1  0  0  0
 83 85  1  0  0  0
 83170  1  0  0  0
 83171  1  0  0  0
 84 88  1  0  0  0
 84172  1  0  0  0
 84173  1  0  0  0
 85174  1  0  0  0
 85175  1  0  0  0
 86176  1  0  0  0
M  ISO  4   1 100  68 101  85 101  87 100
M  END
> <chiral flag>
0

> <version>
0

> <s_m_source_file>
/data/baiqing/PycharmProjects/Reinvent-master-3.2/result/LINK_invent/BTK/process_docking_weight1_custom_sum_contain_oxygen_bond_distance_aromatic_linkinvent_7_9_3/rearranged_h_0082.sdf

> <i_m_source_file_index>
29

> <r_mmod_Potential_Energy-OPLS-2005>
270.7919921875

> <r_mmod_Stretch_Energy-OPLS-2005>
58.6450500488281

> <r_mmod_Bend_Energy-OPLS-2005>
163.565673828125

> <r_mmod_Torsional_Energy-OPLS-2005>
275.184875488281

> <r_mmod_Improper_Torsional_Energy-OPLS-2005>
21.3470077514648

> <r_mmod_Van_der_Waal_Energy-OPLS-2005>
170.165863037109

> <r_mmod_Electrostatic_Energy-OPLS-2005>
-341.425323486328

> <r_mmod_Solvation_Energy-OPLS-2005>
-182.51545715332

> <b_mmod_Minimization_Converged-OPLS-2005>
0

> <r_mmod_RMS_Derivative-OPLS-2005>
7.67505598068237

$$$$
29
                    3D
 Structure written by MMmdl.
173181  0  0  1  0            999 V2000
  -30.6419  -14.5672   20.5205 C   0  0  0  0  0  0
  -30.4288  -12.3520   19.4342 C   0  0  0  0  0  0
  -29.5039  -12.5043   18.2092 C   0  0  0  0  0  0
  -28.0209  -12.3577   18.6169 C   0  0  0  0  0  0
  -27.6513  -13.2131   19.8577 C   0  0  2  0  0  0
  -28.6948  -13.0400   20.9836 C   0  0  0  0  0  0
  -25.2557  -13.8142   20.5643 C   0  0  0  0  0  0
  -24.1835  -13.0414   20.9201 C   0  0  0  0  0  0
  -24.6406  -11.6876   20.8727 C   0  0  0  0  0  0
  -23.9065  -10.4251   21.0403 C   0  0  0  0  0  0
  -24.3581   -9.4167   21.9198 C   0  0  0  0  0  0
  -23.6243   -8.2210   22.0763 C   0  0  0  0  0  0
  -22.4234   -8.0260   21.3541 C   0  0  0  0  0  0
  -21.9874   -9.0248   20.4650 C   0  0  0  0  0  0
  -22.7223  -10.2120   20.3064 C   0  0  0  0  0  0
  -21.6849   -6.0719   22.5297 C   0  0  0  0  0  0
  -21.4040   -6.5640   23.8233 C   0  0  0  0  0  0
  -21.3658   -5.6797   24.9197 C   0  0  0  0  0  0
  -21.6024   -4.3058   24.7257 C   0  0  0  0  0  0
  -21.8824   -3.8145   23.4388 C   0  0  0  0  0  0
  -21.9199   -4.6945   22.3432 C   0  0  0  0  0  0
  -22.7857  -13.5214   21.1867 C   0  0  0  0  0  0
  -22.1659   -4.2125   21.1009 F   0  0  0  0  0  0
  -21.5577   -3.4544   25.7770 F   0  0  0  0  0  0
  -30.0144  -13.3621   20.4175 N   0  0  0  0  0  0
  -26.2989  -12.9323   20.3288 N   0  0  0  0  0  0
  -25.9328  -11.6478   20.5733 N   0  0  0  0  0  0
  -22.0500  -12.8195   22.0417 N   0  0  0  0  0  0
  -25.4285  -15.1850   20.3997 N   0  0  0  0  0  0
  -31.8185  -14.7341   20.1876 O   0  0  0  0  0  0
  -21.6621   -6.8851   21.4245 O   0  0  0  0  0  0
  -22.3552  -14.5543   20.6736 O   0  0  0  0  0  0
  -24.6206  -31.8622   23.2058 C   0  0  0  0  0  0
  -25.9075  -32.4782   23.8370 C   0  0  1  0  0  0
  -27.2257  -27.3769   20.0977 C   0  0  0  0  0  0
  -25.5888  -33.8588   24.2276 N   0  0  0  0  0  0
  -23.4110  -30.4867   21.5494 C   0  0  2  0  0  0
  -24.8543  -28.9451   20.1179 C   0  0  0  0  0  0
  -22.7445  -29.4634   22.4983 C   0  0  0  0  0  0
  -18.0267  -28.1392   22.8464 C   0  0  0  0  0  0
  -24.1489  -36.7340   23.2644 C   0  0  0  0  0  0
  -25.9464  -30.8142   21.3652 C   0  0  0  0  0  0
  -26.0231  -29.4458   20.7073 C   0  0  0  0  0  0
  -27.2151  -28.6738   20.6824 C   0  0  0  0  0  0
  -26.0314  -26.9037   19.5132 C   0  0  0  0  0  0
  -24.8559  -27.6763   19.5177 C   0  0  0  0  0  0
  -23.6211  -29.8207   20.1654 C   0  0  0  0  0  0
  -25.4096  -36.3093   24.0329 C   0  0  1  0  0  0
  -20.5858  -28.3687   23.1296 C   0  0  2  0  0  0
  -20.6769  -26.9426   22.5415 C   0  0  0  0  0  0
  -19.5766  -26.6399   21.5198 C   0  0  0  0  0  0
  -18.1926  -26.7928   22.1600 C   0  0  0  0  0  0
  -19.1516  -28.8853   23.2867 C   0  0  0  0  0  0
  -18.9445  -30.1443   23.8908 C   0  0  0  0  0  0
  -17.6448  -30.6591   24.0552 C   0  0  0  0  0  0
  -25.9028  -34.9465   23.5104 C   0  0  0  0  0  0
  -16.5334  -29.9098   23.6320 C   0  0  0  0  0  0
  -16.7250  -28.6510   23.0342 C   0  0  0  0  0  0
  -26.4495  -31.6585   25.0727 C   0  0  0  0  0  0
  -25.3751  -31.3701   26.1470 C   0  0  0  0  0  0
  -27.0337  -30.3011   24.6154 C   0  0  0  0  0  0
  -27.6055  -32.4334   25.7478 C   0  0  0  0  0  0
  -27.5572  -37.1825   24.8453 C   0  0  0  0  0  0
  -21.4164  -29.3048   22.3720 N   0  0  0  0  0  0
  -26.4273  -37.3779   23.9400 N   0  0  0  0  0  0
  -24.6784  -31.0686   22.0983 N   0  0  0  0  0  0
  -23.4178  -28.8167   23.3047 O   0  0  0  0  0  0
  -28.3800  -26.6011   20.0698 O   0  0  0  0  0  0
  -26.5615  -34.8934   22.4683 O   0  0  0  0  0  0
  -23.5383  -32.1415   23.7423 O   0  0  0  0  0  0
  -30.3048  -19.9286   18.0006 C   0  0  0  0  0  0
  -30.9179  -17.7715   18.8825 C   0  0  0  0  0  0
  -31.0312  -18.7245   17.8519 C   0  0  0  0  0  0
  -29.5047  -20.1382   19.1427 C   0  0  0  0  0  0
  -30.1297  -18.0316   20.0145 C   0  0  0  0  0  0
  -29.2159  -17.4213   22.3430 C   0  0  0  0  0  0
  -27.8386  -24.1471   18.1290 C   0  0  0  0  0  0
  -31.9755  -19.5812   15.6156 C   0  0  0  0  0  0
  -31.3781  -17.1704   15.9055 C   0  0  0  0  0  0
  -33.3652  -18.1477   17.0968 C   0  0  0  0  0  0
  -28.5922  -21.3930   19.1947 C   0  0  0  0  0  0
  -29.1076  -22.6920   19.9275 C   0  0  0  0  0  0
  -28.2810  -25.1862   20.4250 C   0  0  0  0  0  0
  -30.1423  -17.0082   21.1846 C   0  0  2  0  0  0
  -28.7728  -24.1427   19.3533 C   0  0  1  0  0  0
  -31.9204  -18.4190   16.6305 C   0  0  0  0  0  0
  -29.4308  -19.2043   20.1372 N   0  0  0  0  0  0
  -29.8297  -15.5998   20.8485 N   0  0  0  0  0  0
  -31.4741  -12.4634   19.1412 H   0  0  0  0  0  0
  -30.3431  -11.3529   19.8638 H   0  0  0  0  0  0
  -29.7626  -11.7636   17.4516 H   0  0  0  0  0  0
  -29.6650  -13.4800   17.7457 H   0  0  0  0  0  0
  -27.8327  -11.3052   18.8312 H   0  0  0  0  0  0
  -27.3739  -12.6136   17.7763 H   0  0  0  0  0  0
  -27.6746  -14.2510   19.5240 H   0  0  0  0  0  0
  -28.6861  -12.0142   21.3563 H   0  0  0  0  0  0
  -28.4520  -13.6679   21.8429 H   0  0  0  0  0  0
  -25.2703   -9.5607   22.4807 H   0  0  0  0  0  0
  -23.9947   -7.4576   22.7462 H   0  0  0  0  0  0
  -21.0819   -8.8770   19.8923 H   0  0  0  0  0  0
  -22.3673  -10.9668   19.6175 H   0  0  0  0  0  0
  -21.2070   -7.6158   23.9745 H   0  0  0  0  0  0
  -21.1450   -6.0519   25.9097 H   0  0  0  0  0  0
  -22.0592   -2.7604   23.2917 H   0  0  0  0  0  0
  -22.4074  -11.9836   22.4800 H   0  0  0  0  0  0
  -21.1133  -13.1265   22.2629 H   0  0  0  0  0  0
  -24.6597  -15.8393   20.4982 H   0  0  0  0  0  0
  -26.2691  -15.6158   20.0362 H   0  0  0  0  0  0
  -26.7140  -32.5475   23.1127 H   0  0  0  0  0  0
  -24.9968  -33.9735   25.0374 H   0  0  0  0  0  0
  -22.7012  -31.3053   21.4077 H   0  0  0  0  0  0
  -23.3718  -35.9710   23.3294 H   0  0  0  0  0  0
  -24.3582  -36.8981   22.2063 H   0  0  0  0  0  0
  -23.7290  -37.6562   23.6679 H   0  0  0  0  0  0
  -26.0623  -31.5819   20.5978 H   0  0  0  0  0  0
  -26.8328  -30.8668   21.9857 H   0  0  0  0  0  0
  -28.1198  -29.0617   21.1302 H   0  0  0  0  0  0
  -25.9921  -25.9315   19.0489 H   0  0  0  0  0  0
  -23.9564  -27.2850   19.0636 H   0  0  0  0  0  0
  -23.7351  -30.5974   19.4081 H   0  0  0  0  0  0
  -22.7421  -29.2475   19.8650 H   0  0  0  0  0  0
  -25.1283  -36.1946   25.0819 H   0  0  0  0  0  0
  -20.9906  -28.3258   24.1434 H   0  0  0  0  0  0
  -20.5656  -26.2296   23.3609 H   0  0  0  0  0  0
  -21.6638  -26.7473   22.1218 H   0  0  0  0  0  0
  -19.6938  -25.6315   21.1222 H   0  0  0  0  0  0
  -19.6701  -27.3215   20.6735 H   0  0  0  0  0  0
  -17.4195  -26.6635   21.4011 H   0  0  0  0  0  0
  -18.0345  -26.0081   22.9014 H   0  0  0  0  0  0
  -19.7919  -30.7234   24.2308 H   0  0  0  0  0  0
  -17.5010  -31.6276   24.5161 H   0  0  0  0  0  0
  -15.5337  -30.3005   23.7666 H   0  0  0  0  0  0
  -15.8633  -28.0833   22.7081 H   0  0  0  0  0  0
  -24.5915  -30.7055   25.7815 H   0  0  0  0  0  0
  -24.8956  -32.2861   26.4930 H   0  0  0  0  0  0
  -25.8105  -30.8865   27.0219 H   0  0  0  0  0  0
  -26.2907  -29.6757   24.1183 H   0  0  0  0  0  0
  -27.4061  -29.7261   25.4642 H   0  0  0  0  0  0
  -27.8756  -30.4295   23.9346 H   0  0  0  0  0  0
  -27.2645  -33.3616   26.2067 H   0  0  0  0  0  0
  -28.3836  -32.6926   25.0289 H   0  0  0  0  0  0
  -28.0761  -31.8468   26.5375 H   0  0  0  0  0  0
  -28.2586  -38.0128   24.7463 H   0  0  0  0  0  0
  -28.1074  -36.2652   24.6296 H   0  0  0  0  0  0
  -27.2294  -37.1490   25.8863 H   0  0  0  0  0  0
  -20.9357  -29.8765   21.6923 H   0  0  0  0  0  0
  -26.0163  -38.2855   24.1395 H   0  0  0  0  0  0
  -30.3233  -20.6858   17.2300 H   0  0  0  0  0  0
  -31.4728  -16.8472   18.8262 H   0  0  0  0  0  0
  -28.1777  -17.4702   22.0171 H   0  0  0  0  0  0
  -29.4848  -18.4043   22.7313 H   0  0  0  0  0  0
  -29.2754  -16.7189   23.1741 H   0  0  0  0  0  0
  -26.8619  -23.7254   18.3667 H   0  0  0  0  0  0
  -27.6816  -25.1613   17.7615 H   0  0  0  0  0  0
  -28.2629  -23.5930   17.2918 H   0  0  0  0  0  0
  -30.9940  -19.8036   15.1959 H   0  0  0  0  0  0
  -32.6290  -19.3387   14.7769 H   0  0  0  0  0  0
  -32.3657  -20.4937   16.0685 H   0  0  0  0  0  0
  -30.3522  -17.3224   15.5676 H   0  0  0  0  0  0
  -31.3794  -16.2906   16.5492 H   0  0  0  0  0  0
  -31.9771  -16.9220   15.0287 H   0  0  0  0  0  0
  -33.7689  -19.0035   17.6379 H   0  0  0  0  0  0
  -34.0291  -17.9514   16.2537 H   0  0  0  0  0  0
  -33.4307  -17.2849   17.7586 H   0  0  0  0  0  0
  -27.6313  -21.1012   19.6211 H   0  0  0  0  0  0
  -28.3691  -21.6099   18.1538 H   0  0  0  0  0  0
  -30.1942  -22.6216   19.9781 H   0  0  0  0  0  0
  -28.7881  -22.6269   20.9669 H   0  0  0  0  0  0
  -28.9064  -25.0714   21.3110 H   0  0  0  0  0  0
  -27.2771  -24.9198   20.7581 H   0  0  0  0  0  0
  -31.1620  -17.0211   21.5738 H   0  0  0  0  0  0
  -29.7260  -24.5333   18.9924 H   0  0  0  0  0  0
  -28.8665  -15.3449   20.9887 H   0  0  0  0  0  0
  1 25  1  0  0  0
  1 30  2  0  0  0
  1 88  1  0  0  0
  2  3  1  0  0  0
  2 25  1  0  0  0
  2 89  1  0  0  0
  2 90  1  0  0  0
  3  4  1  0  0  0
  3 91  1  0  0  0
  3 92  1  0  0  0
  4  5  1  0  0  0
  4 93  1  0  0  0
  4 94  1  0  0  0
  5  6  1  0  0  0
  5 26  1  0  0  0
  5 95  1  0  0  0
  6 25  1  0  0  0
  6 96  1  0  0  0
  6 97  1  0  0  0
  7  8  2  0  0  0
  7 26  1  0  0  0
  7 29  1  0  0  0
  8  9  1  0  0  0
  8 22  1  0  0  0
  9 10  1  0  0  0
  9 27  2  0  0  0
 10 11  2  0  0  0
 10 15  1  0  0  0
 11 12  1  0  0  0
 11 98  1  0  0  0
 12 13  2  0  0  0
 12 99  1  0  0  0
 13 14  1  0  0  0
 13 31  1  0  0  0
 14 15  2  0  0  0
 14100  1  0  0  0
 15101  1  0  0  0
 16 17  2  0  0  0
 16 21  1  0  0  0
 16 31  1  0  0  0
 17 18  1  0  0  0
 17102  1  0  0  0
 18 19  2  0  0  0
 18103  1  0  0  0
 19 20  1  0  0  0
 19 24  1  0  0  0
 20 21  2  0  0  0
 20104  1  0  0  0
 21 23  1  0  0  0
 22 28  1  0  0  0
 22 32  2  0  0  0
 26 27  1  0  0  0
 28105  1  0  0  0
 28106  1  0  0  0
 29107  1  0  0  0
 29108  1  0  0  0
 33 34  1  0  0  0
 33 66  1  0  0  0
 33 70  2  0  0  0
 34 36  1  0  0  0
 34 59  1  0  0  0
 34109  1  0  0  0
 35 44  2  0  0  0
 35 45  1  0  0  0
 35 68  1  0  0  0
 36 56  1  0  0  0
 36110  1  0  0  0
 37 39  1  0  0  0
 37 47  1  0  0  0
 37 66  1  0  0  0
 37111  1  0  0  0
 38 43  2  0  0  0
 38 46  1  0  0  0
 38 47  1  0  0  0
 39 64  1  0  0  0
 39 67  2  0  0  0
 40 52  1  0  0  0
 40 53  2  0  0  0
 40 58  1  0  0  0
 41112  1  0  0  0
 41113  1  0  0  0
 41114  1  0  0  0
 41 48  1  0  0  0
 42 43  1  0  0  0
 42 66  1  0  0  0
 42115  1  0  0  0
 42116  1  0  0  0
 43 44  1  0  0  0
 44117  1  0  0  0
 45 46  2  0  0  0
 45118  1  0  0  0
 46119  1  0  0  0
 47120  1  0  0  0
 47121  1  0  0  0
 48 56  1  0  0  0
 48 65  1  0  0  0
 48122  1  0  0  0
 49 50  1  0  0  0
 49 53  1  0  0  0
 49 64  1  0  0  0
 49123  1  0  0  0
 50 51  1  0  0  0
 50124  1  0  0  0
 50125  1  0  0  0
 51 52  1  0  0  0
 51126  1  0  0  0
 51127  1  0  0  0
 52128  1  0  0  0
 52129  1  0  0  0
 53 54  1  0  0  0
 54 55  2  0  0  0
 54130  1  0  0  0
 55 57  1  0  0  0
 55131  1  0  0  0
 56 69  2  0  0  0
 57 58  2  0  0  0
 57132  1  0  0  0
 58133  1  0  0  0
 59 60  1  0  0  0
 59 61  1  0  0  0
 59 62  1  0  0  0
 60134  1  0  0  0
 60135  1  0  0  0
 60136  1  0  0  0
 61137  1  0  0  0
 61138  1  0  0  0
 61139  1  0  0  0
 62140  1  0  0  0
 62141  1  0  0  0
 62142  1  0  0  0
 63 65  1  0  0  0
 63143  1  0  0  0
 63144  1  0  0  0
 63145  1  0  0  0
 64146  1  0  0  0
 65147  1  0  0  0
 68 83  1  0  0  0
 71 73  2  0  0  0
 71 74  1  0  0  0
 71148  1  0  0  0
 72 73  1  0  0  0
 72 75  2  0  0  0
 72149  1  0  0  0
 73 86  1  0  0  0
 74 81  1  0  0  0
 74 87  2  0  0  0
 75 84  1  0  0  0
 75 87  1  0  0  0
 76150  1  0  0  0
 76151  1  0  0  0
 76152  1  0  0  0
 76 84  1  0  0  0
 77153  1  0  0  0
 77154  1  0  0  0
 77155  1  0  0  0
 77 85  1  0  0  0
 78156  1  0  0  0
 78157  1  0  0  0
 78158  1  0  0  0
 78 86  1  0  0  0
 79 86  1  0  0  0
 79159  1  0  0  0
 79160  1  0  0  0
 79161  1  0  0  0
 80 86  1  0  0  0
 80162  1  0  0  0
 80163  1  0  0  0
 80164  1  0  0  0
 81 82  1  0  0  0
 81165  1  0  0  0
 81166  1  0  0  0
 82 85  1  0  0  0
 82167  1  0  0  0
 82168  1  0  0  0
 83 85  1  0  0  0
 83169  1  0  0  0
 83170  1  0  0  0
 84 88  1  0  0  0
 84171  1  0  0  0
 85172  1  0  0  0
 88173  1  0  0  0
M  ISO  4   1 100  68 101  83 101  88 100
M  END
> <chiral flag>
0

> <version>
0

> <s_m_source_file>
/data/baiqing/PycharmProjects/Reinvent-master-3.2/result/LINK_invent/BTK/process_docking_weight1_custom_sum_contain_oxygen_bond_distance_aromatic_linkinvent_7_9_3/rearranged_h_0082.sdf

> <i_m_source_file_index>
30

> <r_mmod_Potential_Energy-OPLS-2005>
-282.088104248047

> <r_mmod_Stretch_Energy-OPLS-2005>
59.557258605957

> <r_mmod_Bend_Energy-OPLS-2005>
132.784271240234

> <r_mmod_Torsional_Energy-OPLS-2005>
237.266342163086

> <r_mmod_Improper_Torsional_Energy-OPLS-2005>
4.61950635910034

> <r_mmod_Van_der_Waal_Energy-OPLS-2005>
154.447998046875

> <r_mmod_Electrostatic_Energy-OPLS-2005>
-704.123107910156

> <r_mmod_Solvation_Energy-OPLS-2005>
-194.657302856445

> <b_mmod_Minimization_Converged-OPLS-2005>
0

> <r_mmod_RMS_Derivative-OPLS-2005>
2.76710486412048

$$$$
30
                    3D
 Structure written by MMmdl.
171179  0  0  1  0            999 V2000
  -30.6767  -14.6676   20.5394 C   0  0  0  0  0  0
  -30.4317  -12.4303   19.4484 C   0  0  0  0  0  0
  -29.5084  -12.4964   18.2121 C   0  0  0  0  0  0
  -28.0364  -12.2870   18.6190 C   0  0  0  0  0  0
  -27.6430  -13.1704   19.8258 C   0  0  2  0  0  0
  -28.6912  -13.0541   20.9596 C   0  0  0  0  0  0
  -25.2553  -13.8034   20.5546 C   0  0  0  0  0  0
  -24.1813  -13.0388   20.9191 C   0  0  0  0  0  0
  -24.6342  -11.6838   20.8743 C   0  0  0  0  0  0
  -23.8992  -10.4263   21.0401 C   0  0  0  0  0  0
  -24.3567   -9.4193   21.9179 C   0  0  0  0  0  0
  -23.6269   -8.2225   22.0749 C   0  0  0  0  0  0
  -22.4252   -8.0247   21.3550 C   0  0  0  0  0  0
  -21.9871   -9.0213   20.4651 C   0  0  0  0  0  0
  -22.7174  -10.2095   20.3054 C   0  0  0  0  0  0
  -21.6853   -6.0717   22.5275 C   0  0  0  0  0  0
  -21.4014   -6.5622   23.8211 C   0  0  0  0  0  0
  -21.3662   -5.6773   24.9164 C   0  0  0  0  0  0
  -21.6021   -4.3033   24.7212 C   0  0  0  0  0  0
  -21.8825   -3.8130   23.4330 C   0  0  0  0  0  0
  -21.9203   -4.6946   22.3397 C   0  0  0  0  0  0
  -22.7848  -13.5216   21.1853 C   0  0  0  0  0  0
  -22.1668   -4.2137   21.0974 F   0  0  0  0  0  0
  -21.5653   -3.4530   25.7734 F   0  0  0  0  0  0
  -29.9850  -13.4749   20.4063 N   0  0  0  0  0  0
  -26.2909  -12.9107   20.3109 N   0  0  0  0  0  0
  -25.9235  -11.6327   20.5699 N   0  0  0  0  0  0
  -22.0457  -12.8240   22.0413 N   0  0  0  0  0  0
  -25.4222  -15.1721   20.3774 N   0  0  0  0  0  0
  -31.8512  -14.6919   20.1562 O   0  0  0  0  0  0
  -21.6617   -6.8840   21.4233 O   0  0  0  0  0  0
  -22.3546  -14.5526   20.6688 O   0  0  0  0  0  0
  -24.6233  -31.8626   23.2069 C   0  0  0  0  0  0
  -25.9090  -32.4799   23.8386 C   0  0  1  0  0  0
  -27.2195  -27.3631   20.1118 C   0  0  0  0  0  0
  -25.5906  -33.8602   24.2310 N   0  0  0  0  0  0
  -23.4162  -30.4866   21.5469 C   0  0  2  0  0  0
  -24.8648  -28.9444   20.1138 C   0  0  0  0  0  0
  -22.7466  -29.4629   22.4948 C   0  0  0  0  0  0
  -18.0286  -28.1397   22.8497 C   0  0  0  0  0  0
  -24.1492  -36.7310   23.2644 C   0  0  0  0  0  0
  -25.9524  -30.8058   21.3725 C   0  0  0  0  0  0
  -26.0283  -29.4337   20.7222 C   0  0  0  0  0  0
  -27.2146  -28.6479   20.7226 C   0  0  0  0  0  0
  -26.0440  -26.9099   19.4879 C   0  0  0  0  0  0
  -24.8691  -27.6858   19.4901 C   0  0  0  0  0  0
  -23.6314  -29.8230   20.1609 C   0  0  0  0  0  0
  -25.4112  -36.3102   24.0345 C   0  0  1  0  0  0
  -20.5891  -28.3688   23.1299 C   0  0  2  0  0  0
  -20.6771  -26.9411   22.5423 C   0  0  0  0  0  0
  -19.5741  -26.6389   21.5230 C   0  0  0  0  0  0
  -18.1922  -26.7944   22.1635 C   0  0  0  0  0  0
  -19.1541  -28.8858   23.2896 C   0  0  0  0  0  0
  -18.9457  -30.1465   23.8912 C   0  0  0  0  0  0
  -17.6455  -30.6593   24.0573 C   0  0  0  0  0  0
  -25.9039  -34.9464   23.5130 C   0  0  0  0  0  0
  -16.5346  -29.9096   23.6325 C   0  0  0  0  0  0
  -16.7273  -28.6517   23.0336 C   0  0  0  0  0  0
  -26.4497  -31.6585   25.0728 C   0  0  0  0  0  0
  -25.3758  -31.3703   26.1472 C   0  0  0  0  0  0
  -27.0311  -30.3012   24.6127 C   0  0  0  0  0  0
  -27.6073  -32.4316   25.7479 C   0  0  0  0  0  0
  -27.5587  -37.1807   24.8464 C   0  0  0  0  0  0
  -21.4195  -29.3039   22.3698 N   0  0  0  0  0  0
  -26.4293  -37.3788   23.9418 N   0  0  0  0  0  0
  -24.6826  -31.0669   22.0996 N   0  0  0  0  0  0
  -23.4208  -28.8153   23.3016 O   0  0  0  0  0  0
  -28.3133  -26.5098   20.0772 O   0  0  0  0  0  0
  -26.5609  -34.8921   22.4694 O   0  0  0  0  0  0
  -23.5406  -32.1402   23.7405 O   0  0  0  0  0  0
  -29.9865  -20.7554   20.9271 C   0  0  0  0  0  0
  -30.2338  -20.4299   22.2458 C   0  0  0  0  0  0
  -30.3808  -18.5608   21.0536 C   0  0  0  0  0  0
  -30.3466  -21.3624   23.4121 C   0  0  0  0  0  0
  -28.5401  -15.9678   22.8548 C   0  0  0  0  0  0
  -30.3610  -18.5862   24.8179 C   0  0  0  0  0  0
  -32.5862  -18.5190   23.6094 C   0  0  0  0  0  0
  -30.0560  -22.1503   20.2432 C   0  0  0  0  0  0
  -30.8663  -17.1547   20.5954 C   0  0  0  0  0  0
  -28.8678  -23.2037   20.1934 C   0  0  0  0  0  0
  -28.6790  -24.1965   21.3984 C   0  0  0  0  0  0
  -28.6997  -16.1429   21.3411 C   0  0  0  0  0  0
  -28.5913  -25.7821   21.2972 C   0  0  0  0  0  0
  -31.0711  -18.3073   23.4725 C   0  0  0  0  0  0
  -30.0133  -19.5443   20.2043 N   0  0  0  0  0  0
  -30.5299  -19.0476   22.3144 N   0  0  0  0  0  0
  -30.0719  -15.8913   20.8597 N   0  0  0  0  0  0
  -31.4711  -12.5479   19.1377 H   0  0  0  0  0  0
  -30.3881  -11.4387   19.9045 H   0  0  0  0  0  0
  -29.8075  -11.7517   17.4732 H   0  0  0  0  0  0
  -29.6191  -13.4667   17.7247 H   0  0  0  0  0  0
  -27.8960  -11.2331   18.8670 H   0  0  0  0  0  0
  -27.3855  -12.4866   17.7676 H   0  0  0  0  0  0
  -27.6400  -14.1662   19.3939 H   0  0  0  0  0  0
  -28.7523  -12.0191   21.2978 H   0  0  0  0  0  0
  -28.4012  -13.6032   21.8471 H   0  0  0  0  0  0
  -25.2712   -9.5699   22.4739 H   0  0  0  0  0  0
  -24.0017   -7.4597   22.7432 H   0  0  0  0  0  0
  -21.0826   -8.8647   19.8954 H   0  0  0  0  0  0
  -22.3582  -10.9611   19.6144 H   0  0  0  0  0  0
  -21.1981   -7.6119   23.9714 H   0  0  0  0  0  0
  -21.1505   -6.0501   25.9077 H   0  0  0  0  0  0
  -22.0613   -2.7595   23.2826 H   0  0  0  0  0  0
  -22.4077  -11.9930   22.4816 H   0  0  0  0  0  0
  -21.1064  -13.1256   22.2583 H   0  0  0  0  0  0
  -24.6530  -15.8260   20.4779 H   0  0  0  0  0  0
  -26.2565  -15.6014   20.0003 H   0  0  0  0  0  0
  -26.7166  -32.5491   23.1146 H   0  0  0  0  0  0
  -25.0056  -33.9755   25.0456 H   0  0  0  0  0  0
  -22.7094  -31.3072   21.4056 H   0  0  0  0  0  0
  -23.3753  -35.9642   23.3304 H   0  0  0  0  0  0
  -24.3583  -36.8922   22.2055 H   0  0  0  0  0  0
  -23.7243  -37.6517   23.6654 H   0  0  0  0  0  0
  -26.0760  -31.5663   20.5995 H   0  0  0  0  0  0
  -26.8380  -30.8607   21.9931 H   0  0  0  0  0  0
  -28.1129  -29.0189   21.1973 H   0  0  0  0  0  0
  -26.0345  -25.9389   19.0137 H   0  0  0  0  0  0
  -23.9783  -27.3067   19.0075 H   0  0  0  0  0  0
  -23.7528  -30.6023   19.4072 H   0  0  0  0  0  0
  -22.7524  -29.2527   19.8555 H   0  0  0  0  0  0
  -25.1293  -36.1968   25.0838 H   0  0  0  0  0  0
  -20.9996  -28.3261   24.1414 H   0  0  0  0  0  0
  -20.5672  -26.2302   23.3629 H   0  0  0  0  0  0
  -21.6630  -26.7437   22.1202 H   0  0  0  0  0  0
  -19.6883  -25.6301   21.1254 H   0  0  0  0  0  0
  -19.6685  -27.3210   20.6773 H   0  0  0  0  0  0
  -17.4201  -26.6728   21.4020 H   0  0  0  0  0  0
  -18.0287  -26.0083   22.9024 H   0  0  0  0  0  0
  -19.7931  -30.7283   24.2281 H   0  0  0  0  0  0
  -17.5000  -31.6269   24.5188 H   0  0  0  0  0  0
  -15.5340  -30.2992   23.7636 H   0  0  0  0  0  0
  -15.8681  -28.0842   22.7014 H   0  0  0  0  0  0
  -24.5931  -30.7047   25.7816 H   0  0  0  0  0  0
  -24.8944  -32.2854   26.4933 H   0  0  0  0  0  0
  -25.8104  -30.8869   27.0229 H   0  0  0  0  0  0
  -26.2841  -29.6778   24.1195 H   0  0  0  0  0  0
  -27.4078  -29.7256   25.4592 H   0  0  0  0  0  0
  -27.8694  -30.4320   23.9280 H   0  0  0  0  0  0
  -27.2693  -33.3613   26.2077 H   0  0  0  0  0  0
  -28.3850  -32.6889   25.0271 H   0  0  0  0  0  0
  -28.0778  -31.8429   26.5364 H   0  0  0  0  0  0
  -28.2613  -38.0099   24.7502 H   0  0  0  0  0  0
  -28.1075  -36.2627   24.6296 H   0  0  0  0  0  0
  -27.2307  -37.1466   25.8868 H   0  0  0  0  0  0
  -20.9369  -29.8783   21.6922 H   0  0  0  0  0  0
  -26.0187  -38.2871   24.1410 H   0  0  0  0  0  0
  -30.2608  -22.3964   23.1036 H   0  0  0  0  0  0
  -31.3104  -21.2778   23.9108 H   0  0  0  0  0  0
  -29.5531  -21.1777   24.1355 H   0  0  0  0  0  0
  -29.1930  -15.1882   23.2565 H   0  0  0  0  0  0
  -27.5071  -15.7156   23.0963 H   0  0  0  0  0  0
  -28.7537  -16.8929   23.3759 H   0  0  0  0  0  0
  -30.6094  -17.8138   25.5474 H   0  0  0  0  0  0
  -29.2773  -18.6042   24.7196 H   0  0  0  0  0  0
  -30.6683  -19.5290   25.2682 H   0  0  0  0  0  0
  -32.9801  -17.9639   24.4612 H   0  0  0  0  0  0
  -32.8383  -19.5687   23.7593 H   0  0  0  0  0  0
  -33.1203  -18.1752   22.7244 H   0  0  0  0  0  0
  -30.3165  -21.9667   19.1998 H   0  0  0  0  0  0
  -30.9303  -22.6762   20.6288 H   0  0  0  0  0  0
  -31.8670  -17.0301   21.0161 H   0  0  0  0  0  0
  -31.0192  -17.2103   19.5160 H   0  0  0  0  0  0
  -27.9319  -22.6918   19.9676 H   0  0  0  0  0  0
  -29.0470  -23.8310   19.3193 H   0  0  0  0  0  0
  -29.5117  -24.0370   22.0753 H   0  0  0  0  0  0
  -27.8153  -23.8450   21.9645 H   0  0  0  0  0  0
  -28.3286  -17.1240   21.0475 H   0  0  0  0  0  0
  -27.9935  -15.5086   20.8453 H   0  0  0  0  0  0
  -29.5405  -26.1856   21.6513 H   0  0  0  0  0  0
  -27.8772  -26.0930   22.0640 H   0  0  0  0  0  0
  -30.9318  -17.2484   23.2724 H   0  0  0  0  0  0
  1 25  1  0  0  0
  1 30  2  0  0  0
  1 87  1  0  0  0
  2  3  1  0  0  0
  2 25  1  0  0  0
  2 88  1  0  0  0
  2 89  1  0  0  0
  3  4  1  0  0  0
  3 90  1  0  0  0
  3 91  1  0  0  0
  4  5  1  0  0  0
  4 92  1  0  0  0
  4 93  1  0  0  0
  5  6  1  0  0  0
  5 26  1  0  0  0
  5 94  1  0  0  0
  6 25  1  0  0  0
  6 95  1  0  0  0
  6 96  1  0  0  0
  7  8  2  0  0  0
  7 26  1  0  0  0
  7 29  1  0  0  0
  8  9  1  0  0  0
  8 22  1  0  0  0
  9 10  1  0  0  0
  9 27  2  0  0  0
 10 11  2  0  0  0
 10 15  1  0  0  0
 11 12  1  0  0  0
 11 97  1  0  0  0
 12 13  2  0  0  0
 12 98  1  0  0  0
 13 14  1  0  0  0
 13 31  1  0  0  0
 14 15  2  0  0  0
 14 99  1  0  0  0
 15100  1  0  0  0
 16 17  2  0  0  0
 16 21  1  0  0  0
 16 31  1  0  0  0
 17 18  1  0  0  0
 17101  1  0  0  0
 18 19  2  0  0  0
 18102  1  0  0  0
 19 20  1  0  0  0
 19 24  1  0  0  0
 20 21  2  0  0  0
 20103  1  0  0  0
 21 23  1  0  0  0
 22 28  1  0  0  0
 22 32  2  0  0  0
 26 27  1  0  0  0
 28104  1  0  0  0
 28105  1  0  0  0
 29106  1  0  0  0
 29107  1  0  0  0
 33 34  1  0  0  0
 33 66  1  0  0  0
 33 70  2  0  0  0
 34 36  1  0  0  0
 34 59  1  0  0  0
 34108  1  0  0  0
 35 44  2  0  0  0
 35 45  1  0  0  0
 35 68  1  0  0  0
 36 56  1  0  0  0
 36109  1  0  0  0
 37 39  1  0  0  0
 37 47  1  0  0  0
 37 66  1  0  0  0
 37110  1  0  0  0
 38 43  2  0  0  0
 38 46  1  0  0  0
 38 47  1  0  0  0
 39 64  1  0  0  0
 39 67  2  0  0  0
 40 52  1  0  0  0
 40 53  2  0  0  0
 40 58  1  0  0  0
 41111  1  0  0  0
 41112  1  0  0  0
 41113  1  0  0  0
 41 48  1  0  0  0
 42 43  1  0  0  0
 42 66  1  0  0  0
 42114  1  0  0  0
 42115  1  0  0  0
 43 44  1  0  0  0
 44116  1  0  0  0
 45 46  2  0  0  0
 45117  1  0  0  0
 46118  1  0  0  0
 47119  1  0  0  0
 47120  1  0  0  0
 48 56  1  0  0  0
 48 65  1  0  0  0
 48121  1  0  0  0
 49 50  1  0  0  0
 49 53  1  0  0  0
 49 64  1  0  0  0
 49122  1  0  0  0
 50 51  1  0  0  0
 50123  1  0  0  0
 50124  1  0  0  0
 51 52  1  0  0  0
 51125  1  0  0  0
 51126  1  0  0  0
 52127  1  0  0  0
 52128  1  0  0  0
 53 54  1  0  0  0
 54 55  2  0  0  0
 54129  1  0  0  0
 55 57  1  0  0  0
 55130  1  0  0  0
 56 69  2  0  0  0
 57 58  2  0  0  0
 57131  1  0  0  0
 58132  1  0  0  0
 59 60  1  0  0  0
 59 61  1  0  0  0
 59 62  1  0  0  0
 60133  1  0  0  0
 60134  1  0  0  0
 60135  1  0  0  0
 61136  1  0  0  0
 61137  1  0  0  0
 61138  1  0  0  0
 62139  1  0  0  0
 62140  1  0  0  0
 62141  1  0  0  0
 63 65  1  0  0  0
 63142  1  0  0  0
 63143  1  0  0  0
 63144  1  0  0  0
 64145  1  0  0  0
 65146  1  0  0  0
 68 83  1  0  0  0
 71 72  2  0  0  0
 71 78  1  0  0  0
 71 85  1  0  0  0
 72 74  1  0  0  0
 72 86  1  0  0  0
 73 79  1  0  0  0
 73 85  2  0  0  0
 73 86  1  0  0  0
 74147  1  0  0  0
 74148  1  0  0  0
 74149  1  0  0  0
 75 82  1  0  0  0
 75150  1  0  0  0
 75151  1  0  0  0
 75152  1  0  0  0
 76153  1  0  0  0
 76154  1  0  0  0
 76155  1  0  0  0
 76 84  1  0  0  0
 77 84  1  0  0  0
 77156  1  0  0  0
 77157  1  0  0  0
 77158  1  0  0  0
 78 80  1  0  0  0
 78159  1  0  0  0
 78160  1  0  0  0
 79 87  1  0  0  0
 79161  1  0  0  0
 79162  1  0  0  0
 80 81  1  0  0  0
 80163  1  0  0  0
 80164  1  0  0  0
 81 83  1  0  0  0
 81165  1  0  0  0
 81166  1  0  0  0
 82 87  1  0  0  0
 82167  1  0  0  0
 82168  1  0  0  0
 83169  1  0  0  0
 83170  1  0  0  0
 84 86  1  0  0  0
 84171  1  0  0  0
M  ISO  4   1 100  68 101  83 101  87 100
M  END
> <chiral flag>
0

> <version>
0

> <s_m_source_file>
/data/baiqing/PycharmProjects/Reinvent-master-3.2/result/LINK_invent/BTK/process_docking_weight1_custom_sum_contain_oxygen_bond_distance_aromatic_linkinvent_7_9_3/rearranged_h_0082.sdf

> <i_m_source_file_index>
31

> <r_mmod_Potential_Energy-OPLS-2005>
289.5341796875

> <r_mmod_Stretch_Energy-OPLS-2005>
82.4478073120117

> <r_mmod_Bend_Energy-OPLS-2005>
224.026336669922

> <r_mmod_Torsional_Energy-OPLS-2005>
341.415283203125

> <r_mmod_Improper_Torsional_Energy-OPLS-2005>
10.2256345748901

> <r_mmod_Van_der_Waal_Energy-OPLS-2005>
139.946243286133

> <r_mmod_Electrostatic_Energy-OPLS-2005>
-353.4404296875

> <r_mmod_Solvation_Energy-OPLS-2005>
-201.698303222656

> <b_mmod_Minimization_Converged-OPLS-2005>
0

> <r_mmod_RMS_Derivative-OPLS-2005>
3.90236759185791

$$$$
31
                    3D
 Structure written by MMmdl.
161169  0  0  1  0            999 V2000
  -30.6499  -14.6807   20.4973 C   0  0  0  0  0  0
  -30.4323  -12.4228   19.4654 C   0  0  0  0  0  0
  -29.5100  -12.5093   18.2301 C   0  0  0  0  0  0
  -28.0348  -12.3380   18.6419 C   0  0  0  0  0  0
  -27.6470  -13.2295   19.8516 C   0  0  2  0  0  0
  -28.6909  -13.1376   20.9864 C   0  0  0  0  0  0
  -25.2527  -13.8207   20.5680 C   0  0  0  0  0  0
  -24.1812  -13.0453   20.9199 C   0  0  0  0  0  0
  -24.6402  -11.6925   20.8740 C   0  0  0  0  0  0
  -23.9081  -10.4301   21.0396 C   0  0  0  0  0  0
  -24.3631   -9.4215   21.9175 C   0  0  0  0  0  0
  -23.6311   -8.2249   22.0744 C   0  0  0  0  0  0
  -22.4293   -8.0290   21.3534 C   0  0  0  0  0  0
  -21.9930   -9.0262   20.4639 C   0  0  0  0  0  0
  -22.7255  -10.2143   20.3046 C   0  0  0  0  0  0
  -21.6861   -6.0748   22.5285 C   0  0  0  0  0  0
  -21.4018   -6.5643   23.8218 C   0  0  0  0  0  0
  -21.3657   -5.6791   24.9173 C   0  0  0  0  0  0
  -21.6041   -4.3054   24.7220 C   0  0  0  0  0  0
  -21.8818   -3.8151   23.4338 C   0  0  0  0  0  0
  -21.9191   -4.6976   22.3399 C   0  0  0  0  0  0
  -22.7832  -13.5224   21.1853 C   0  0  0  0  0  0
  -22.1660   -4.2162   21.0980 F   0  0  0  0  0  0
  -21.5621   -3.4532   25.7725 F   0  0  0  0  0  0
  -30.0029  -13.4716   20.4147 N   0  0  0  0  0  0
  -26.2958  -12.9410   20.3268 N   0  0  0  0  0  0
  -25.9328  -11.6551   20.5740 N   0  0  0  0  0  0
  -22.0478  -12.8215   22.0424 N   0  0  0  0  0  0
  -25.4224  -15.1939   20.4096 N   0  0  0  0  0  0
  -31.8285  -14.7884   20.1509 O   0  0  0  0  0  0
  -21.6641   -6.8897   21.4248 O   0  0  0  0  0  0
  -22.3507  -14.5524   20.6706 O   0  0  0  0  0  0
  -24.6330  -31.8594   23.2055 C   0  0  0  0  0  0
  -25.9174  -32.4765   23.8364 C   0  0  1  0  0  0
  -27.2057  -27.2784   20.1071 C   0  0  0  0  0  0
  -25.5993  -33.8563   24.2291 N   0  0  0  0  0  0
  -23.4254  -30.4914   21.5480 C   0  0  2  0  0  0
  -24.8681  -28.9550   20.1061 C   0  0  0  0  0  0
  -22.7508  -29.4646   22.4904 C   0  0  0  0  0  0
  -18.0303  -28.1385   22.8486 C   0  0  0  0  0  0
  -24.1491  -36.7275   23.2633 C   0  0  0  0  0  0
  -25.9748  -30.7750   21.3886 C   0  0  0  0  0  0
  -26.0435  -29.4035   20.7228 C   0  0  0  0  0  0
  -27.2134  -28.5764   20.7209 C   0  0  0  0  0  0
  -26.0054  -26.9204   19.4390 C   0  0  0  0  0  0
  -24.8540  -27.7194   19.4549 C   0  0  0  0  0  0
  -23.6420  -29.8411   20.1592 C   0  0  0  0  0  0
  -25.4116  -36.3065   24.0328 C   0  0  1  0  0  0
  -20.5911  -28.3710   23.1258 C   0  0  2  0  0  0
  -20.6793  -26.9429   22.5397 C   0  0  0  0  0  0
  -19.5761  -26.6390   21.5208 C   0  0  0  0  0  0
  -18.1946  -26.7929   22.1625 C   0  0  0  0  0  0
  -19.1557  -28.8860   23.2867 C   0  0  0  0  0  0
  -18.9476  -30.1460   23.8884 C   0  0  0  0  0  0
  -17.6475  -30.6584   24.0566 C   0  0  0  0  0  0
  -25.9065  -34.9441   23.5098 C   0  0  0  0  0  0
  -16.5367  -29.9086   23.6326 C   0  0  0  0  0  0
  -16.7291  -28.6503   23.0351 C   0  0  0  0  0  0
  -26.4540  -31.6571   25.0735 C   0  0  0  0  0  0
  -25.3762  -31.3738   26.1458 C   0  0  0  0  0  0
  -27.0382  -30.2977   24.6229 C   0  0  0  0  0  0
  -27.6087  -32.4313   25.7514 C   0  0  0  0  0  0
  -27.5576  -37.1803   24.8468 C   0  0  0  0  0  0
  -21.4218  -29.3067   22.3643 N   0  0  0  0  0  0
  -26.4285  -37.3770   23.9413 N   0  0  0  0  0  0
  -24.6962  -31.0592   22.1019 N   0  0  0  0  0  0
  -23.4228  -28.8163   23.2969 O   0  0  0  0  0  0
  -28.2749  -26.3458   20.1806 O   0  0  0  0  0  0
  -26.5604  -34.8916   22.4645 O   0  0  0  0  0  0
  -23.5489  -32.1400   23.7380 O   0  0  0  0  0  0
  -26.6419  -22.5008   18.9621 C   0  0  0  0  0  0
  -25.8179  -21.5125   18.4178 C   0  0  0  0  0  0
  -27.8749  -22.2087   19.6200 C   0  0  0  0  0  0
  -26.2326  -20.1921   18.5103 C   0  0  0  0  0  0
  -28.1967  -20.7699   19.6995 C   0  0  0  0  0  0
  -25.4120  -19.0515   17.9457 C   0  0  0  0  0  0
  -30.6975  -20.3062   19.5108 C   0  0  0  0  0  0
  -28.6681  -23.5042   20.1290 C   0  0  0  0  0  0
  -29.2164  -18.3371   20.3504 C   0  0  0  0  0  0
  -30.3165  -17.2641   20.8041 C   0  0  0  0  0  0
  -27.9193  -24.9251   19.8630 C   0  0  0  0  0  0
  -29.4269  -19.9656   20.3021 C   0  0  2  0  0  0
  -27.3758  -19.8634   19.1153 N   0  0  0  0  0  0
  -29.9001  -15.7997   20.7840 N   0  0  0  0  0  0
  -31.4755  -12.5372   19.1662 H   0  0  0  0  0  0
  -30.3619  -11.4392   19.9328 H   0  0  0  0  0  0
  -29.7868  -11.7498   17.4981 H   0  0  0  0  0  0
  -29.6443  -13.4747   17.7380 H   0  0  0  0  0  0
  -27.8846  -11.2885   18.8970 H   0  0  0  0  0  0
  -27.3798  -12.5413   17.7942 H   0  0  0  0  0  0
  -27.6507  -14.2556   19.4826 H   0  0  0  0  0  0
  -28.7092  -12.1344   21.4133 H   0  0  0  0  0  0
  -28.4308  -13.8112   21.8042 H   0  0  0  0  0  0
  -25.2777   -9.5693   22.4746 H   0  0  0  0  0  0
  -24.0017   -7.4641   22.7464 H   0  0  0  0  0  0
  -21.0856   -8.8791   19.8955 H   0  0  0  0  0  0
  -22.3718  -10.9680   19.6152 H   0  0  0  0  0  0
  -21.2027   -7.6155   23.9730 H   0  0  0  0  0  0
  -21.1474   -6.0514   25.9078 H   0  0  0  0  0  0
  -22.0605   -2.7618   23.2826 H   0  0  0  0  0  0
  -22.4088  -11.9878   22.4820 H   0  0  0  0  0  0
  -21.1093  -13.1238   22.2612 H   0  0  0  0  0  0
  -24.6565  -15.8481   20.5279 H   0  0  0  0  0  0
  -26.2659  -15.6350   20.0677 H   0  0  0  0  0  0
  -26.7236  -32.5419   23.1098 H   0  0  0  0  0  0
  -25.0208  -33.9689   25.0487 H   0  0  0  0  0  0
  -22.7205  -31.3141   21.4109 H   0  0  0  0  0  0
  -23.3756  -35.9602   23.3288 H   0  0  0  0  0  0
  -24.3585  -36.8896   22.2047 H   0  0  0  0  0  0
  -23.7242  -37.6477   23.6649 H   0  0  0  0  0  0
  -26.1237  -31.5416   20.6270 H   0  0  0  0  0  0
  -26.8483  -30.8110   22.0274 H   0  0  0  0  0  0
  -28.1043  -28.9111   21.2334 H   0  0  0  0  0  0
  -25.8943  -25.9930   18.9000 H   0  0  0  0  0  0
  -23.9584  -27.3770   18.9544 H   0  0  0  0  0  0
  -23.7742  -30.6244   19.4126 H   0  0  0  0  0  0
  -22.7567  -29.2853   19.8448 H   0  0  0  0  0  0
  -25.1301  -36.1900   25.0819 H   0  0  0  0  0  0
  -21.0003  -28.3286   24.1378 H   0  0  0  0  0  0
  -20.5702  -26.2323   23.3605 H   0  0  0  0  0  0
  -21.6661  -26.7466   22.1182 H   0  0  0  0  0  0
  -19.6927  -25.6301   21.1240 H   0  0  0  0  0  0
  -19.6682  -27.3194   20.6732 H   0  0  0  0  0  0
  -17.4216  -26.6682   21.4025 H   0  0  0  0  0  0
  -18.0346  -26.0066   22.9015 H   0  0  0  0  0  0
  -19.7954  -30.7283   24.2242 H   0  0  0  0  0  0
  -17.5032  -31.6254   24.5185 H   0  0  0  0  0  0
  -15.5366  -30.2986   23.7649 H   0  0  0  0  0  0
  -15.8696  -28.0817   22.7068 H   0  0  0  0  0  0
  -24.5920  -30.7100   25.7799 H   0  0  0  0  0  0
  -24.8982  -32.2919   26.4878 H   0  0  0  0  0  0
  -25.8085  -30.8916   27.0234 H   0  0  0  0  0  0
  -26.2968  -29.6720   24.1241 H   0  0  0  0  0  0
  -27.4038  -29.7242   25.4758 H   0  0  0  0  0  0
  -27.8865  -30.4229   23.9494 H   0  0  0  0  0  0
  -27.2673  -33.3606   26.2084 H   0  0  0  0  0  0
  -28.3907  -32.6886   25.0355 H   0  0  0  0  0  0
  -28.0740  -31.8442   26.5441 H   0  0  0  0  0  0
  -28.2603  -38.0094   24.7517 H   0  0  0  0  0  0
  -28.1067  -36.2631   24.6291 H   0  0  0  0  0  0
  -27.2295  -37.1449   25.8870 H   0  0  0  0  0  0
  -20.9396  -29.8811   21.6870 H   0  0  0  0  0  0
  -26.0159  -38.2839   24.1413 H   0  0  0  0  0  0
  -26.2541  -23.4948   18.8301 H   0  0  0  0  0  0
  -24.8884  -21.7755   17.9311 H   0  0  0  0  0  0
  -24.7518  -18.6432   18.7110 H   0  0  0  0  0  0
  -26.0572  -18.2457   17.5950 H   0  0  0  0  0  0
  -24.8015  -19.3818   17.1052 H   0  0  0  0  0  0
  -30.8917  -21.3779   19.5212 H   0  0  0  0  0  0
  -30.6004  -19.9985   18.4695 H   0  0  0  0  0  0
  -31.5744  -19.8139   19.9300 H   0  0  0  0  0  0
  -29.6424  -23.5197   19.6409 H   0  0  0  0  0  0
  -28.8607  -23.3943   21.1964 H   0  0  0  0  0  0
  -28.3264  -18.1509   20.9521 H   0  0  0  0  0  0
  -28.9570  -18.0097   19.3429 H   0  0  0  0  0  0
  -30.6407  -17.5013   21.8182 H   0  0  0  0  0  0
  -31.2002  -17.3805   20.1754 H   0  0  0  0  0  0
  -26.9676  -24.7744   20.3750 H   0  0  0  0  0  0
  -27.7615  -24.9557   18.7841 H   0  0  0  0  0  0
  -29.5556  -20.3216   21.3256 H   0  0  0  0  0  0
  -28.9333  -15.6137   21.0049 H   0  0  0  0  0  0
  1 25  1  0  0  0
  1 30  2  0  0  0
  1 84  1  0  0  0
  2  3  1  0  0  0
  2 25  1  0  0  0
  2 85  1  0  0  0
  2 86  1  0  0  0
  3  4  1  0  0  0
  3 87  1  0  0  0
  3 88  1  0  0  0
  4  5  1  0  0  0
  4 89  1  0  0  0
  4 90  1  0  0  0
  5  6  1  0  0  0
  5 26  1  0  0  0
  5 91  1  0  0  0
  6 25  1  0  0  0
  6 92  1  0  0  0
  6 93  1  0  0  0
  7  8  2  0  0  0
  7 26  1  0  0  0
  7 29  1  0  0  0
  8  9  1  0  0  0
  8 22  1  0  0  0
  9 10  1  0  0  0
  9 27  2  0  0  0
 10 11  2  0  0  0
 10 15  1  0  0  0
 11 12  1  0  0  0
 11 94  1  0  0  0
 12 13  2  0  0  0
 12 95  1  0  0  0
 13 14  1  0  0  0
 13 31  1  0  0  0
 14 15  2  0  0  0
 14 96  1  0  0  0
 15 97  1  0  0  0
 16 17  2  0  0  0
 16 21  1  0  0  0
 16 31  1  0  0  0
 17 18  1  0  0  0
 17 98  1  0  0  0
 18 19  2  0  0  0
 18 99  1  0  0  0
 19 20  1  0  0  0
 19 24  1  0  0  0
 20 21  2  0  0  0
 20100  1  0  0  0
 21 23  1  0  0  0
 22 28  1  0  0  0
 22 32  2  0  0  0
 26 27  1  0  0  0
 28101  1  0  0  0
 28102  1  0  0  0
 29103  1  0  0  0
 29104  1  0  0  0
 33 34  1  0  0  0
 33 66  1  0  0  0
 33 70  2  0  0  0
 34 36  1  0  0  0
 34 59  1  0  0  0
 34105  1  0  0  0
 35 44  2  0  0  0
 35 45  1  0  0  0
 35 68  1  0  0  0
 36 56  1  0  0  0
 36106  1  0  0  0
 37 39  1  0  0  0
 37 47  1  0  0  0
 37 66  1  0  0  0
 37107  1  0  0  0
 38 43  2  0  0  0
 38 46  1  0  0  0
 38 47  1  0  0  0
 39 64  1  0  0  0
 39 67  2  0  0  0
 40 52  1  0  0  0
 40 53  2  0  0  0
 40 58  1  0  0  0
 41108  1  0  0  0
 41109  1  0  0  0
 41110  1  0  0  0
 41 48  1  0  0  0
 42 43  1  0  0  0
 42 66  1  0  0  0
 42111  1  0  0  0
 42112  1  0  0  0
 43 44  1  0  0  0
 44113  1  0  0  0
 45 46  2  0  0  0
 45114  1  0  0  0
 46115  1  0  0  0
 47116  1  0  0  0
 47117  1  0  0  0
 48 56  1  0  0  0
 48 65  1  0  0  0
 48118  1  0  0  0
 49 50  1  0  0  0
 49 53  1  0  0  0
 49 64  1  0  0  0
 49119  1  0  0  0
 50 51  1  0  0  0
 50120  1  0  0  0
 50121  1  0  0  0
 51 52  1  0  0  0
 51122  1  0  0  0
 51123  1  0  0  0
 52124  1  0  0  0
 52125  1  0  0  0
 53 54  1  0  0  0
 54 55  2  0  0  0
 54126  1  0  0  0
 55 57  1  0  0  0
 55127  1  0  0  0
 56 69  2  0  0  0
 57 58  2  0  0  0
 57128  1  0  0  0
 58129  1  0  0  0
 59 60  1  0  0  0
 59 61  1  0  0  0
 59 62  1  0  0  0
 60130  1  0  0  0
 60131  1  0  0  0
 60132  1  0  0  0
 61133  1  0  0  0
 61134  1  0  0  0
 61135  1  0  0  0
 62136  1  0  0  0
 62137  1  0  0  0
 62138  1  0  0  0
 63 65  1  0  0  0
 63139  1  0  0  0
 63140  1  0  0  0
 63141  1  0  0  0
 64142  1  0  0  0
 65143  1  0  0  0
 68 81  1  0  0  0
 71 72  2  0  0  0
 71 73  1  0  0  0
 71144  1  0  0  0
 72 74  1  0  0  0
 72145  1  0  0  0
 73 75  2  0  0  0
 73 78  1  0  0  0
 74 76  1  0  0  0
 74 83  2  0  0  0
 75 82  1  0  0  0
 75 83  1  0  0  0
 76146  1  0  0  0
 76147  1  0  0  0
 76148  1  0  0  0
 77149  1  0  0  0
 77150  1  0  0  0
 77151  1  0  0  0
 77 82  1  0  0  0
 78 81  1  0  0  0
 78152  1  0  0  0
 78153  1  0  0  0
 79 80  1  0  0  0
 79 82  1  0  0  0
 79154  1  0  0  0
 79155  1  0  0  0
 80 84  1  0  0  0
 80156  1  0  0  0
 80157  1  0  0  0
 81158  1  0  0  0
 81159  1  0  0  0
 82160  1  0  0  0
 84161  1  0  0  0
M  ISO  4   1 100  68 101  81 101  84 100
M  END
> <chiral flag>
0

> <version>
0

> <s_m_source_file>
/data/baiqing/PycharmProjects/Reinvent-master-3.2/result/LINK_invent/BTK/process_docking_weight1_custom_sum_contain_oxygen_bond_distance_aromatic_linkinvent_7_9_3/rearranged_h_0082.sdf

> <i_m_source_file_index>
32

> <r_mmod_Potential_Energy-OPLS-2005>
20.9281272888184

> <r_mmod_Stretch_Energy-OPLS-2005>
129.428970336914

> <r_mmod_Bend_Energy-OPLS-2005>
215.318298339844

> <r_mmod_Torsional_Energy-OPLS-2005>
202.033721923828

> <r_mmod_Improper_Torsional_Energy-OPLS-2005>
4.31534767150879

> <r_mmod_Van_der_Waal_Energy-OPLS-2005>
171.872497558594

> <r_mmod_Electrostatic_Energy-OPLS-2005>
-559.30078125

> <r_mmod_Solvation_Energy-OPLS-2005>
-215.471664428711

> <b_mmod_Minimization_Converged-OPLS-2005>
0

> <r_mmod_RMS_Derivative-OPLS-2005>
1.59364926815033

$$$$
32
                    3D
 Structure written by MMmdl.
155163  0  0  1  0            999 V2000
  -31.3540  -14.5485   21.2477 C   0  0  0  0  0  0
  -30.6887  -13.9493   18.9226 C   0  0  0  0  0  0
  -29.3730  -13.7571   17.6608 C   0  0  0  0  0  0
  -27.5998  -13.7660   18.1527 C   0  0  0  0  0  0
  -27.1893  -14.1197   19.9464 C   0  0  2  0  0  0
  -28.6149  -14.3911   21.2153 C   0  0  0  0  0  0
  -24.9392  -13.9854   20.7248 C   0  0  0  0  0  0
  -24.0072  -13.0587   20.9862 C   0  0  0  0  0  0
  -24.6123  -11.7705   20.8729 C   0  0  0  0  0  0
  -23.9474  -10.4497   21.0078 C   0  0  0  0  0  0
  -24.3932   -9.4461   21.8997 C   0  0  0  0  0  0
  -23.6551   -8.2483   22.0697 C   0  0  0  0  0  0
  -22.4523   -8.0400   21.3517 C   0  0  0  0  0  0
  -22.0223   -9.0296   20.4522 C   0  0  0  0  0  0
  -22.7604  -10.2140   20.2799 C   0  0  0  0  0  0
  -21.6977   -6.0824   22.5281 C   0  0  0  0  0  0
  -21.4095   -6.5699   23.8216 C   0  0  0  0  0  0
  -21.3677   -5.6830   24.9167 C   0  0  0  0  0  0
  -21.6040   -4.3091   24.7207 C   0  0  0  0  0  0
  -21.8810   -3.8195   23.4325 C   0  0  0  0  0  0
  -21.9232   -4.7029   22.3394 C   0  0  0  0  0  0
  -22.5963  -13.4411   21.2276 C   0  0  0  0  0  0
  -22.1684   -4.2201   21.0975 F   0  0  0  0  0  0
  -21.5608   -3.4566   25.7715 F   0  0  0  0  0  0
  -30.2700  -14.3148   20.5792 N   0  0  0  0  0  0
  -26.0677  -13.3162   20.4256 N   0  0  0  0  0  0
  -25.9076  -11.9371   20.5458 N   0  0  0  0  0  0
  -21.9122  -12.7158   22.0943 N   0  0  0  0  0  0
  -24.8616  -15.3760   20.6944 N   0  0  0  0  0  0
  -32.3549  -14.8839   20.6286 O   0  0  0  0  0  0
  -21.6841   -6.9003   21.4259 O   0  0  0  0  0  0
  -22.1305  -14.4542   20.7035 O   0  0  0  0  0  0
  -24.7428  -31.7231   23.1009 C   0  0  0  0  0  0
  -25.9722  -32.4070   23.7758 C   0  0  1  0  0  0
  -27.0898  -26.0438   20.1535 C   0  0  0  0  0  0
  -25.6054  -33.7936   24.1584 N   0  0  0  0  0  0
  -23.5803  -30.3134   21.4766 C   0  0  2  0  0  0
  -24.9975  -28.5252   20.1112 C   0  0  0  0  0  0
  -22.7970  -29.3946   22.4569 C   0  0  0  0  0  0
  -18.0360  -28.1435   22.8431 C   0  0  0  0  0  0
  -24.1511  -36.6974   23.2671 C   0  0  0  0  0  0
  -26.1804  -30.2258   21.4513 C   0  0  0  0  0  0
  -26.2047  -28.7264   20.7864 C   0  0  0  0  0  0
  -27.2188  -27.5324   20.7591 C   0  0  0  0  0  0
  -25.8655  -26.2240   19.4314 C   0  0  0  0  0  0
  -24.9053  -27.3082   19.4104 C   0  0  0  0  0  0
  -23.8472  -29.5740   20.1279 C   0  0  0  0  0  0
  -25.4184  -36.2655   24.0232 C   0  0  1  0  0  0
  -20.6015  -28.3804   23.1058 C   0  0  2  0  0  0
  -20.6790  -26.9416   22.5417 C   0  0  0  0  0  0
  -19.5784  -26.6343   21.5216 C   0  0  0  0  0  0
  -18.1969  -26.7954   22.1608 C   0  0  0  0  0  0
  -19.1638  -28.8955   23.2710 C   0  0  0  0  0  0
  -18.9542  -30.1530   23.8768 C   0  0  0  0  0  0
  -17.6528  -30.6606   24.0536 C   0  0  0  0  0  0
  -25.9199  -34.9066   23.4788 C   0  0  0  0  0  0
  -16.5413  -29.9078   23.6363 C   0  0  0  0  0  0
  -16.7340  -28.6503   23.0377 C   0  0  0  0  0  0
  -26.4707  -31.6381   25.0641 C   0  0  0  0  0  0
  -25.3624  -31.3874   26.1157 C   0  0  0  0  0  0
  -27.0710  -30.2654   24.6970 C   0  0  0  0  0  0
  -27.6043  -32.4382   25.7488 C   0  0  0  0  0  0
  -27.5547  -37.1639   24.8472 C   0  0  0  0  0  0
  -21.4573  -29.2947   22.3319 N   0  0  0  0  0  0
  -26.4251  -37.3488   23.9406 N   0  0  0  0  0  0
  -24.8701  -30.8035   22.0603 N   0  0  0  0  0  0
  -23.4164  -28.7621   23.3147 O   0  0  0  0  0  0
  -27.8832  -24.5051   20.0899 O   0  0  0  0  0  0
  -26.5928  -34.8778   22.4466 O   0  0  0  0  0  0
  -23.6340  -32.0638   23.5597 O   0  0  0  0  0  0
  -30.7836  -11.5150   21.1394 C   0  0  0  0  0  0
  -30.7948  -11.8204   22.4635 C   0  0  0  0  0  0
  -31.6780  -12.8823   23.0637 C   0  0  0  0  0  0
  -28.2742  -17.8903   19.7867 C   0  0  0  0  0  0
  -28.8580  -15.7018   19.2221 C   0  0  0  0  0  0
  -28.3746  -20.2195   19.6312 C   0  0  0  0  0  0
  -28.9257  -12.6506   19.7043 C   0  0  0  0  0  0
  -27.6916  -22.4246   20.0101 C   0  0  0  0  0  0
  -29.5173  -11.5687   22.9620 N   0  0  0  0  0  0
  -28.7094  -11.4961   21.9496 N   0  0  0  0  0  0
  -29.4646  -11.8346   20.8724 N   0  0  0  0  0  0
  -31.3369  -14.2338   22.5556 N   0  0  0  0  0  0
  -31.3501  -14.7134   18.5103 H   0  0  0  0  0  0
  -31.3457  -13.0811   18.8802 H   0  0  0  0  0  0
  -29.5757  -12.8684   17.0574 H   0  0  0  0  0  0
  -29.5237  -14.5400   16.9171 H   0  0  0  0  0  0
  -27.1408  -12.8248   17.8387 H   0  0  0  0  0  0
  -27.0513  -14.4723   17.5278 H   0  0  0  0  0  0
  -26.8112  -15.1043   19.7613 H   0  0  0  0  0  0
  -28.4631  -13.8638   22.1498 H   0  0  0  0  0  0
  -28.4999  -15.4011   21.6140 H   0  0  0  0  0  0
  -25.2953   -9.6078   22.4738 H   0  0  0  0  0  0
  -24.0207   -7.4980   22.7565 H   0  0  0  0  0  0
  -21.1141   -8.8798   19.8849 H   0  0  0  0  0  0
  -22.3941  -10.9631   19.5917 H   0  0  0  0  0  0
  -21.2118   -7.6210   23.9730 H   0  0  0  0  0  0
  -21.1489   -6.0562   25.9068 H   0  0  0  0  0  0
  -22.0557   -2.7656   23.2815 H   0  0  0  0  0  0
  -22.3247  -11.9071   22.5342 H   0  0  0  0  0  0
  -20.9580  -12.9651   22.3142 H   0  0  0  0  0  0
  -23.9526  -15.8273   20.7281 H   0  0  0  0  0  0
  -25.6019  -15.9947   20.3886 H   0  0  0  0  0  0
  -26.7866  -32.4387   23.0503 H   0  0  0  0  0  0
  -25.0008  -33.8861   24.9615 H   0  0  0  0  0  0
  -22.9420  -31.1707   21.2519 H   0  0  0  0  0  0
  -23.3804  -35.9263   23.3212 H   0  0  0  0  0  0
  -24.3564  -36.8796   22.2110 H   0  0  0  0  0  0
  -23.7249  -37.6083   23.6883 H   0  0  0  0  0  0
  -26.4675  -30.9165   20.6575 H   0  0  0  0  0  0
  -27.0064  -30.2814   22.1451 H   0  0  0  0  0  0
  -28.1282  -27.7074   21.3172 H   0  0  0  0  0  0
  -25.5633  -25.3600   18.8570 H   0  0  0  0  0  0
  -24.0097  -27.1433   18.8276 H   0  0  0  0  0  0
  -24.0795  -30.3167   19.3638 H   0  0  0  0  0  0
  -22.9286  -29.0947   19.7863 H   0  0  0  0  0  0
  -25.1429  -36.1310   25.0717 H   0  0  0  0  0  0
  -21.0085  -28.3457   24.1191 H   0  0  0  0  0  0
  -20.5589  -26.2439   23.3720 H   0  0  0  0  0  0
  -21.6652  -26.7269   22.1279 H   0  0  0  0  0  0
  -19.6928  -25.6224   21.1317 H   0  0  0  0  0  0
  -19.6744  -27.3094   20.6703 H   0  0  0  0  0  0
  -17.4240  -26.6703   21.4009 H   0  0  0  0  0  0
  -18.0338  -26.0122   22.9025 H   0  0  0  0  0  0
  -19.8018  -30.7375   24.2084 H   0  0  0  0  0  0
  -17.5075  -31.6279   24.5158 H   0  0  0  0  0  0
  -15.5408  -30.2940   23.7758 H   0  0  0  0  0  0
  -15.8742  -28.0779   22.7167 H   0  0  0  0  0  0
  -24.5860  -30.7174   25.7450 H   0  0  0  0  0  0
  -24.8778  -32.3151   26.4206 H   0  0  0  0  0  0
  -25.7684  -30.9279   27.0178 H   0  0  0  0  0  0
  -26.3481  -29.6068   24.2152 H   0  0  0  0  0  0
  -27.4074  -29.7365   25.5897 H   0  0  0  0  0  0
  -27.9505  -30.3644   24.0608 H   0  0  0  0  0  0
  -27.2517  -33.3836   26.1621 H   0  0  0  0  0  0
  -28.4082  -32.6685   25.0483 H   0  0  0  0  0  0
  -28.0455  -31.8810   26.5762 H   0  0  0  0  0  0
  -28.2492  -37.9996   24.7503 H   0  0  0  0  0  0
  -28.1113  -36.2502   24.6320 H   0  0  0  0  0  0
  -27.2255  -37.1283   25.8873 H   0  0  0  0  0  0
  -20.9984  -29.8532   21.6256 H   0  0  0  0  0  0
  -26.0010  -38.2501   24.1428 H   0  0  0  0  0  0
  -31.5690  -11.6621   20.4144 H   0  0  0  0  0  0
  -31.5942  -12.8871   24.1508 H   0  0  0  0  0  0
  -32.7256  -12.6763   22.8386 H   0  0  0  0  0  0
  -28.3858  -17.8048   20.8676 H   0  0  0  0  0  0
  -27.1991  -17.7838   19.6435 H   0  0  0  0  0  0
  -29.8694  -16.0839   19.0765 H   0  0  0  0  0  0
  -28.4873  -15.9044   18.2182 H   0  0  0  0  0  0
  -28.4471  -20.2829   18.5460 H   0  0  0  0  0  0
  -29.4059  -20.3361   19.9640 H   0  0  0  0  0  0
  -29.4156  -11.9897   18.9791 H   0  0  0  0  0  0
  -28.0413  -12.0333   19.5609 H   0  0  0  0  0  0
  -27.4250  -22.3074   21.0612 H   0  0  0  0  0  0
  -26.7280  -22.3953   19.4999 H   0  0  0  0  0  0
  -31.8435  -14.9163   23.1003 H   0  0  0  0  0  0
  1 25  1  0  0  0
  1 30  2  0  0  0
  1 82  1  0  0  0
  2  3  1  0  0  0
  2 25  1  0  0  0
  2 83  1  0  0  0
  2 84  1  0  0  0
  3  4  1  0  0  0
  3 85  1  0  0  0
  3 86  1  0  0  0
  4  5  1  0  0  0
  4 87  1  0  0  0
  4 88  1  0  0  0
  5  6  1  0  0  0
  5 26  1  0  0  0
  5 89  1  0  0  0
  6 25  1  0  0  0
  6 90  1  0  0  0
  6 91  1  0  0  0
  7  8  2  0  0  0
  7 26  1  0  0  0
  7 29  1  0  0  0
  8  9  1  0  0  0
  8 22  1  0  0  0
  9 10  1  0  0  0
  9 27  2  0  0  0
 10 11  2  0  0  0
 10 15  1  0  0  0
 11 12  1  0  0  0
 11 92  1  0  0  0
 12 13  2  0  0  0
 12 93  1  0  0  0
 13 14  1  0  0  0
 13 31  1  0  0  0
 14 15  2  0  0  0
 14 94  1  0  0  0
 15 95  1  0  0  0
 16 17  2  0  0  0
 16 21  1  0  0  0
 16 31  1  0  0  0
 17 18  1  0  0  0
 17 96  1  0  0  0
 18 19  2  0  0  0
 18 97  1  0  0  0
 19 20  1  0  0  0
 19 24  1  0  0  0
 20 21  2  0  0  0
 20 98  1  0  0  0
 21 23  1  0  0  0
 22 28  1  0  0  0
 22 32  2  0  0  0
 26 27  1  0  0  0
 28 99  1  0  0  0
 28100  1  0  0  0
 29101  1  0  0  0
 29102  1  0  0  0
 33 34  1  0  0  0
 33 66  1  0  0  0
 33 70  2  0  0  0
 34 36  1  0  0  0
 34 59  1  0  0  0
 34103  1  0  0  0
 35 44  2  0  0  0
 35 45  1  0  0  0
 35 68  1  0  0  0
 36 56  1  0  0  0
 36104  1  0  0  0
 37 39  1  0  0  0
 37 47  1  0  0  0
 37 66  1  0  0  0
 37105  1  0  0  0
 38 43  2  0  0  0
 38 46  1  0  0  0
 38 47  1  0  0  0
 39 64  1  0  0  0
 39 67  2  0  0  0
 40 52  1  0  0  0
 40 53  2  0  0  0
 40 58  1  0  0  0
 41106  1  0  0  0
 41107  1  0  0  0
 41108  1  0  0  0
 41 48  1  0  0  0
 42 43  1  0  0  0
 42 66  1  0  0  0
 42109  1  0  0  0
 42110  1  0  0  0
 43 44  1  0  0  0
 44111  1  0  0  0
 45 46  2  0  0  0
 45112  1  0  0  0
 46113  1  0  0  0
 47114  1  0  0  0
 47115  1  0  0  0
 48 56  1  0  0  0
 48 65  1  0  0  0
 48116  1  0  0  0
 49 50  1  0  0  0
 49 53  1  0  0  0
 49 64  1  0  0  0
 49117  1  0  0  0
 50 51  1  0  0  0
 50118  1  0  0  0
 50119  1  0  0  0
 51 52  1  0  0  0
 51120  1  0  0  0
 51121  1  0  0  0
 52122  1  0  0  0
 52123  1  0  0  0
 53 54  1  0  0  0
 54 55  2  0  0  0
 54124  1  0  0  0
 55 57  1  0  0  0
 55125  1  0  0  0
 56 69  2  0  0  0
 57 58  2  0  0  0
 57126  1  0  0  0
 58127  1  0  0  0
 59 60  1  0  0  0
 59 61  1  0  0  0
 59 62  1  0  0  0
 60128  1  0  0  0
 60129  1  0  0  0
 60130  1  0  0  0
 61131  1  0  0  0
 61132  1  0  0  0
 61133  1  0  0  0
 62134  1  0  0  0
 62135  1  0  0  0
 62136  1  0  0  0
 63 65  1  0  0  0
 63137  1  0  0  0
 63138  1  0  0  0
 63139  1  0  0  0
 64140  1  0  0  0
 65141  1  0  0  0
 68 78  1  0  0  0
 71 72  2  0  0  0
 71 81  1  0  0  0
 71142  1  0  0  0
 72 73  1  0  0  0
 72 79  1  0  0  0
 73 82  1  0  0  0
 73143  1  0  0  0
 73144  1  0  0  0
 74 75  1  0  0  0
 74 76  1  0  0  0
 74145  1  0  0  0
 74146  1  0  0  0
 75 77  1  0  0  0
 75147  1  0  0  0
 75148  1  0  0  0
 76 78  1  0  0  0
 76149  1  0  0  0
 76150  1  0  0  0
 77 81  1  0  0  0
 77151  1  0  0  0
 77152  1  0  0  0
 78153  1  0  0  0
 78154  1  0  0  0
 79 80  2  0  0  0
 80 81  1  0  0  0
 82155  1  0  0  0
M  ISO  4   1 100  68 101  78 101  82 100
M  END
> <chiral flag>
0

> <version>
0

> <s_m_source_file>
/data/baiqing/PycharmProjects/Reinvent-master-3.2/result/LINK_invent/BTK/process_docking_weight1_custom_sum_contain_oxygen_bond_distance_aromatic_linkinvent_7_9_3/rearranged_h_0082.sdf

> <i_m_source_file_index>
33

> <r_mmod_Potential_Energy-OPLS-2005>
12081.439453125

> <r_mmod_Stretch_Energy-OPLS-2005>
6850.7548828125

> <r_mmod_Bend_Energy-OPLS-2005>
1284.34814453125

> <r_mmod_Torsional_Energy-OPLS-2005>
446.998046875

> <r_mmod_Improper_Torsional_Energy-OPLS-2005>
23.5496139526367

> <r_mmod_Van_der_Waal_Energy-OPLS-2005>
1591.55322265625

> <r_mmod_Electrostatic_Energy-OPLS-2005>
-474.698303222656

> <r_mmod_Solvation_Energy-OPLS-2005>
-217.36296081543

> <b_mmod_Minimization_Converged-OPLS-2005>
0

> <r_mmod_RMS_Derivative-OPLS-2005>
2.72605562210083

$$$$
33
                    3D
 Structure written by MMmdl.
164172  0  0  1  0            999 V2000
  -30.6986  -14.5429   20.5770 C   0  0  0  0  0  0
  -30.4239  -12.3524   19.4425 C   0  0  0  0  0  0
  -29.4998  -12.5134   18.2171 C   0  0  0  0  0  0
  -28.0218  -12.3614   18.6254 C   0  0  0  0  0  0
  -27.6562  -13.2127   19.8702 C   0  0  2  0  0  0
  -28.6966  -13.0269   20.9955 C   0  0  0  0  0  0
  -25.2540  -13.8090   20.5687 C   0  0  0  0  0  0
  -24.1807  -13.0378   20.9180 C   0  0  0  0  0  0
  -24.6388  -11.6861   20.8731 C   0  0  0  0  0  0
  -23.9057  -10.4258   21.0397 C   0  0  0  0  0  0
  -24.3612   -9.4182   21.9180 C   0  0  0  0  0  0
  -23.6285   -8.2223   22.0755 C   0  0  0  0  0  0
  -22.4268   -8.0263   21.3544 C   0  0  0  0  0  0
  -21.9898   -9.0235   20.4646 C   0  0  0  0  0  0
  -22.7227  -10.2111   20.3050 C   0  0  0  0  0  0
  -21.6847   -6.0725   22.5278 C   0  0  0  0  0  0
  -21.4009   -6.5633   23.8210 C   0  0  0  0  0  0
  -21.3661   -5.6789   24.9175 C   0  0  0  0  0  0
  -21.6047   -4.3052   24.7227 C   0  0  0  0  0  0
  -21.8821   -3.8141   23.4348 C   0  0  0  0  0  0
  -21.9191   -4.6955   22.3403 C   0  0  0  0  0  0
  -22.7838  -13.5196   21.1844 C   0  0  0  0  0  0
  -22.1660   -4.2140   21.0981 F   0  0  0  0  0  0
  -21.5633   -3.4538   25.7741 F   0  0  0  0  0  0
  -30.0234  -13.3573   20.4480 N   0  0  0  0  0  0
  -26.2996  -12.9306   20.3345 N   0  0  0  0  0  0
  -25.9321  -11.6461   20.5756 N   0  0  0  0  0  0
  -22.0480  -12.8206   22.0411 N   0  0  0  0  0  0
  -25.4210  -15.1778   20.4112 N   0  0  0  0  0  0
  -31.8024  -14.7110   20.0485 O   0  0  0  0  0  0
  -21.6632   -6.8864   21.4240 O   0  0  0  0  0  0
  -22.3535  -14.5511   20.6697 O   0  0  0  0  0  0
  -24.6200  -31.8643   23.2076 C   0  0  0  0  0  0
  -25.9074  -32.4803   23.8382 C   0  0  1  0  0  0
  -27.2302  -27.3766   20.1001 C   0  0  0  0  0  0
  -25.5913  -33.8603   24.2310 N   0  0  0  0  0  0
  -23.4106  -30.4892   21.5489 C   0  0  2  0  0  0
  -24.8565  -28.9531   20.1105 C   0  0  0  0  0  0
  -22.7441  -29.4644   22.4961 C   0  0  0  0  0  0
  -18.0280  -28.1380   22.8491 C   0  0  0  0  0  0
  -24.1488  -36.7308   23.2637 C   0  0  0  0  0  0
  -25.9465  -30.8105   21.3723 C   0  0  0  0  0  0
  -26.0202  -29.4422   20.7159 C   0  0  0  0  0  0
  -27.2061  -28.6612   20.7096 C   0  0  0  0  0  0
  -26.0460  -26.9320   19.4632 C   0  0  0  0  0  0
  -24.8678  -27.6999   19.4798 C   0  0  0  0  0  0
  -23.6218  -29.8259   20.1624 C   0  0  0  0  0  0
  -25.4111  -36.3101   24.0333 C   0  0  1  0  0  0
  -20.5874  -28.3676   23.1300 C   0  0  2  0  0  0
  -20.6769  -26.9407   22.5412 C   0  0  0  0  0  0
  -19.5746  -26.6386   21.5212 C   0  0  0  0  0  0
  -18.1926  -26.7926   22.1625 C   0  0  0  0  0  0
  -19.1530  -28.8845   23.2893 C   0  0  0  0  0  0
  -18.9456  -30.1449   23.8906 C   0  0  0  0  0  0
  -17.6458  -30.6585   24.0566 C   0  0  0  0  0  0
  -25.9042  -34.9466   23.5120 C   0  0  0  0  0  0
  -16.5349  -29.9087   23.6327 C   0  0  0  0  0  0
  -16.7268  -28.6503   23.0349 C   0  0  0  0  0  0
  -26.4484  -31.6597   25.0729 C   0  0  0  0  0  0
  -25.3736  -31.3718   26.1469 C   0  0  0  0  0  0
  -27.0323  -30.3031   24.6147 C   0  0  0  0  0  0
  -27.6053  -32.4325   25.7493 C   0  0  0  0  0  0
  -27.5581  -37.1808   24.8465 C   0  0  0  0  0  0
  -21.4162  -29.3039   22.3701 N   0  0  0  0  0  0
  -26.4295  -37.3788   23.9407 N   0  0  0  0  0  0
  -24.6774  -31.0699   22.1004 N   0  0  0  0  0  0
  -23.4191  -28.8181   23.3017 O   0  0  0  0  0  0
  -28.3813  -26.5908   20.1587 O   0  0  0  0  0  0
  -26.5605  -34.8922   22.4682 O   0  0  0  0  0  0
  -23.5378  -32.1422   23.7436 O   0  0  0  0  0  0
  -27.2036  -20.3115   18.7467 C   0  0  0  0  0  0
  -27.8858  -21.5376   18.7650 C   0  0  0  0  0  0
  -27.6853  -19.2304   19.5005 C   0  0  0  0  0  0
  -29.0279  -21.6706   19.5899 C   0  0  0  0  0  0
  -28.8724  -19.3874   20.2531 C   0  0  0  0  0  0
  -27.3653  -22.6465   17.8639 C   0  0  0  0  0  0
  -26.8882  -17.9384   19.4769 C   0  0  0  0  0  0
  -29.8417  -15.6877   22.5457 C   0  0  0  0  0  0
  -29.8589  -22.9808   19.6128 C   0  0  0  0  0  0
  -29.4276  -18.2102   21.1086 C   0  0  0  0  0  0
  -29.3621  -24.2418   20.4156 C   0  0  0  0  0  0
  -29.9490  -16.9231   20.3457 C   0  0  0  0  0  0
  -28.3132  -25.1919   19.7520 C   0  0  0  0  0  0
  -29.5061  -20.6006   20.3028 N   0  0  0  0  0  0
  -30.0162  -15.6149   21.0899 N   0  0  0  0  0  0
  -31.4682  -12.4508   19.1411 H   0  0  0  0  0  0
  -30.3340  -11.3482   19.8599 H   0  0  0  0  0  0
  -29.7540  -11.7765   17.4541 H   0  0  0  0  0  0
  -29.6569  -13.4923   17.7615 H   0  0  0  0  0  0
  -27.8441  -11.3056   18.8350 H   0  0  0  0  0  0
  -27.3704  -12.6172   17.7889 H   0  0  0  0  0  0
  -27.6889  -14.2571   19.5592 H   0  0  0  0  0  0
  -28.6913  -11.9963   21.3531 H   0  0  0  0  0  0
  -28.4263  -13.6323   21.8576 H   0  0  0  0  0  0
  -25.2757   -9.5662   22.4752 H   0  0  0  0  0  0
  -23.9991   -7.4617   22.7479 H   0  0  0  0  0  0
  -21.0824   -8.8753   19.8957 H   0  0  0  0  0  0
  -22.3684  -10.9650   19.6162 H   0  0  0  0  0  0
  -21.1996   -7.6140   23.9708 H   0  0  0  0  0  0
  -21.1485   -6.0521   25.9076 H   0  0  0  0  0  0
  -22.0601   -2.7603   23.2852 H   0  0  0  0  0  0
  -22.4094  -11.9870   22.4807 H   0  0  0  0  0  0
  -21.1105  -13.1244   22.2621 H   0  0  0  0  0  0
  -24.6555  -15.8323   20.5245 H   0  0  0  0  0  0
  -26.2823  -15.6094   20.1083 H   0  0  0  0  0  0
  -26.7143  -32.5492   23.1137 H   0  0  0  0  0  0
  -25.0069  -33.9761   25.0459 H   0  0  0  0  0  0
  -22.7018  -31.3081   21.4093 H   0  0  0  0  0  0
  -23.3746  -35.9645   23.3308 H   0  0  0  0  0  0
  -24.3582  -36.8916   22.2050 H   0  0  0  0  0  0
  -23.7246  -37.6517   23.6649 H   0  0  0  0  0  0
  -26.0705  -31.5757   20.6047 H   0  0  0  0  0  0
  -26.8302  -30.8594   21.9969 H   0  0  0  0  0  0
  -28.0991  -29.0309   21.1940 H   0  0  0  0  0  0
  -25.9975  -25.9877   18.9431 H   0  0  0  0  0  0
  -23.9769  -27.3225   18.9967 H   0  0  0  0  0  0
  -23.7360  -30.6033   19.4059 H   0  0  0  0  0  0
  -22.7436  -29.2513   19.8622 H   0  0  0  0  0  0
  -25.1289  -36.1963   25.0826 H   0  0  0  0  0  0
  -20.9970  -28.3246   24.1418 H   0  0  0  0  0  0
  -20.5672  -26.2286   23.3605 H   0  0  0  0  0  0
  -21.6639  -26.7444   22.1203 H   0  0  0  0  0  0
  -19.6907  -25.6299   21.1236 H   0  0  0  0  0  0
  -19.6682  -27.3201   20.6745 H   0  0  0  0  0  0
  -17.4195  -26.6675   21.4028 H   0  0  0  0  0  0
  -18.0328  -26.0065   22.9020 H   0  0  0  0  0  0
  -19.7933  -30.7262   24.2280 H   0  0  0  0  0  0
  -17.5014  -31.6265   24.5166 H   0  0  0  0  0  0
  -15.5351  -30.2993   23.7643 H   0  0  0  0  0  0
  -15.8669  -28.0826   22.7059 H   0  0  0  0  0  0
  -24.5904  -30.7074   25.7802 H   0  0  0  0  0  0
  -24.8934  -32.2880   26.4916 H   0  0  0  0  0  0
  -25.8075  -30.8883   27.0230 H   0  0  0  0  0  0
  -26.2884  -29.6786   24.1185 H   0  0  0  0  0  0
  -27.4058  -29.7277   25.4628 H   0  0  0  0  0  0
  -27.8736  -30.4336   23.9336 H   0  0  0  0  0  0
  -27.2667  -33.3614   26.2094 H   0  0  0  0  0  0
  -28.3848  -32.6903   25.0312 H   0  0  0  0  0  0
  -28.0740  -31.8438   26.5390 H   0  0  0  0  0  0
  -28.2604  -38.0101   24.7508 H   0  0  0  0  0  0
  -28.1072  -36.2633   24.6295 H   0  0  0  0  0  0
  -27.2298  -37.1465   25.8868 H   0  0  0  0  0  0
  -20.9328  -29.8773   21.6929 H   0  0  0  0  0  0
  -26.0182  -38.2866   24.1403 H   0  0  0  0  0  0
  -26.3127  -20.1958   18.1450 H   0  0  0  0  0  0
  -26.8213  -22.2275   17.0162 H   0  0  0  0  0  0
  -28.1670  -23.2513   17.4438 H   0  0  0  0  0  0
  -26.6710  -23.2889   18.4032 H   0  0  0  0  0  0
  -27.2414  -17.2807   18.6828 H   0  0  0  0  0  0
  -25.8320  -18.1395   19.2927 H   0  0  0  0  0  0
  -26.9491  -17.4124   20.4273 H   0  0  0  0  0  0
  -30.1325  -14.7638   23.0501 H   0  0  0  0  0  0
  -28.7979  -15.8764   22.7980 H   0  0  0  0  0  0
  -30.4530  -16.4816   22.9754 H   0  0  0  0  0  0
  -30.0922  -23.2709   18.5888 H   0  0  0  0  0  0
  -30.8304  -22.7117   20.0295 H   0  0  0  0  0  0
  -28.6295  -17.9442   21.8000 H   0  0  0  0  0  0
  -30.2302  -18.5902   21.7415 H   0  0  0  0  0  0
  -30.2493  -24.8538   20.5790 H   0  0  0  0  0  0
  -29.0331  -23.9469   21.4121 H   0  0  0  0  0  0
  -29.3058  -16.7330   19.4891 H   0  0  0  0  0  0
  -30.9234  -17.1584   19.9148 H   0  0  0  0  0  0
  -27.3442  -24.7595   19.9963 H   0  0  0  0  0  0
  -28.4260  -25.1757   18.6685 H   0  0  0  0  0  0
  1 25  1  0  0  0
  1 30  2  0  0  0
  1 85  1  0  0  0
  2  3  1  0  0  0
  2 25  1  0  0  0
  2 86  1  0  0  0
  2 87  1  0  0  0
  3  4  1  0  0  0
  3 88  1  0  0  0
  3 89  1  0  0  0
  4  5  1  0  0  0
  4 90  1  0  0  0
  4 91  1  0  0  0
  5  6  1  0  0  0
  5 26  1  0  0  0
  5 92  1  0  0  0
  6 25  1  0  0  0
  6 93  1  0  0  0
  6 94  1  0  0  0
  7  8  2  0  0  0
  7 26  1  0  0  0
  7 29  1  0  0  0
  8  9  1  0  0  0
  8 22  1  0  0  0
  9 10  1  0  0  0
  9 27  2  0  0  0
 10 11  2  0  0  0
 10 15  1  0  0  0
 11 12  1  0  0  0
 11 95  1  0  0  0
 12 13  2  0  0  0
 12 96  1  0  0  0
 13 14  1  0  0  0
 13 31  1  0  0  0
 14 15  2  0  0  0
 14 97  1  0  0  0
 15 98  1  0  0  0
 16 17  2  0  0  0
 16 21  1  0  0  0
 16 31  1  0  0  0
 17 18  1  0  0  0
 17 99  1  0  0  0
 18 19  2  0  0  0
 18100  1  0  0  0
 19 20  1  0  0  0
 19 24  1  0  0  0
 20 21  2  0  0  0
 20101  1  0  0  0
 21 23  1  0  0  0
 22 28  1  0  0  0
 22 32  2  0  0  0
 26 27  1  0  0  0
 28102  1  0  0  0
 28103  1  0  0  0
 29104  1  0  0  0
 29105  1  0  0  0
 33 34  1  0  0  0
 33 66  1  0  0  0
 33 70  2  0  0  0
 34 36  1  0  0  0
 34 59  1  0  0  0
 34106  1  0  0  0
 35 44  2  0  0  0
 35 45  1  0  0  0
 35 68  1  0  0  0
 36 56  1  0  0  0
 36107  1  0  0  0
 37 39  1  0  0  0
 37 47  1  0  0  0
 37 66  1  0  0  0
 37108  1  0  0  0
 38 43  2  0  0  0
 38 46  1  0  0  0
 38 47  1  0  0  0
 39 64  1  0  0  0
 39 67  2  0  0  0
 40 52  1  0  0  0
 40 53  2  0  0  0
 40 58  1  0  0  0
 41109  1  0  0  0
 41110  1  0  0  0
 41111  1  0  0  0
 41 48  1  0  0  0
 42 43  1  0  0  0
 42 66  1  0  0  0
 42112  1  0  0  0
 42113  1  0  0  0
 43 44  1  0  0  0
 44114  1  0  0  0
 45 46  2  0  0  0
 45115  1  0  0  0
 46116  1  0  0  0
 47117  1  0  0  0
 47118  1  0  0  0
 48 56  1  0  0  0
 48 65  1  0  0  0
 48119  1  0  0  0
 49 50  1  0  0  0
 49 53  1  0  0  0
 49 64  1  0  0  0
 49120  1  0  0  0
 50 51  1  0  0  0
 50121  1  0  0  0
 50122  1  0  0  0
 51 52  1  0  0  0
 51123  1  0  0  0
 51124  1  0  0  0
 52125  1  0  0  0
 52126  1  0  0  0
 53 54  1  0  0  0
 54 55  2  0  0  0
 54127  1  0  0  0
 55 57  1  0  0  0
 55128  1  0  0  0
 56 69  2  0  0  0
 57 58  2  0  0  0
 57129  1  0  0  0
 58130  1  0  0  0
 59 60  1  0  0  0
 59 61  1  0  0  0
 59 62  1  0  0  0
 60131  1  0  0  0
 60132  1  0  0  0
 60133  1  0  0  0
 61134  1  0  0  0
 61135  1  0  0  0
 61136  1  0  0  0
 62137  1  0  0  0
 62138  1  0  0  0
 62139  1  0  0  0
 63 65  1  0  0  0
 63140  1  0  0  0
 63141  1  0  0  0
 63142  1  0  0  0
 64143  1  0  0  0
 65144  1  0  0  0
 68 83  1  0  0  0
 71 72  2  0  0  0
 71 73  1  0  0  0
 71145  1  0  0  0
 72 74  1  0  0  0
 72 76  1  0  0  0
 73 75  2  0  0  0
 73 77  1  0  0  0
 74 79  1  0  0  0
 74 84  2  0  0  0
 75 80  1  0  0  0
 75 84  1  0  0  0
 76146  1  0  0  0
 76147  1  0  0  0
 76148  1  0  0  0
 77149  1  0  0  0
 77150  1  0  0  0
 77151  1  0  0  0
 78 85  1  0  0  0
 78152  1  0  0  0
 78153  1  0  0  0
 78154  1  0  0  0
 79 81  1  0  0  0
 79155  1  0  0  0
 79156  1  0  0  0
 80 82  1  0  0  0
 80157  1  0  0  0
 80158  1  0  0  0
 81 83  1  0  0  0
 81159  1  0  0  0
 81160  1  0  0  0
 82 85  1  0  0  0
 82161  1  0  0  0
 82162  1  0  0  0
 83163  1  0  0  0
 83164  1  0  0  0
M  ISO  4   1 100  68 101  83 101  85 100
M  END
> <chiral flag>
0

> <version>
0

> <s_m_source_file>
/data/baiqing/PycharmProjects/Reinvent-master-3.2/result/LINK_invent/BTK/process_docking_weight1_custom_sum_contain_oxygen_bond_distance_aromatic_linkinvent_7_9_3/rearranged_h_0082.sdf

> <i_m_source_file_index>
34

> <r_mmod_Potential_Energy-OPLS-2005>
-24.6184196472168

> <r_mmod_Stretch_Energy-OPLS-2005>
62.4913940429688

> <r_mmod_Bend_Energy-OPLS-2005>
130.950012207031

> <r_mmod_Torsional_Energy-OPLS-2005>
281.225463867188

> <r_mmod_Improper_Torsional_Energy-OPLS-2005>
7.45926952362061

> <r_mmod_Van_der_Waal_Energy-OPLS-2005>
157.843902587891

> <r_mmod_Electrostatic_Energy-OPLS-2005>
-473.411437988281

> <r_mmod_Solvation_Energy-OPLS-2005>
-215.290512084961

> <b_mmod_Minimization_Converged-OPLS-2005>
0

> <r_mmod_RMS_Derivative-OPLS-2005>
0.440439462661743

$$$$
34
                    3D
 Structure written by MMmdl.
163171  0  0  1  0            999 V2000
  -30.7310  -14.4738   20.5383 C   0  0  0  0  0  0
  -30.4117  -12.2961   19.4420 C   0  0  0  0  0  0
  -29.4966  -12.4882   18.2154 C   0  0  0  0  0  0
  -28.0182  -12.3546   18.6266 C   0  0  0  0  0  0
  -27.6613  -13.2126   19.8708 C   0  0  2  0  0  0
  -28.7031  -13.0337   21.0001 C   0  0  0  0  0  0
  -25.2597  -13.8177   20.5682 C   0  0  0  0  0  0
  -24.1850  -13.0444   20.9180 C   0  0  0  0  0  0
  -24.6412  -11.6917   20.8741 C   0  0  0  0  0  0
  -23.9079  -10.4296   21.0408 C   0  0  0  0  0  0
  -24.3629   -9.4207   21.9183 C   0  0  0  0  0  0
  -23.6298   -8.2243   22.0757 C   0  0  0  0  0  0
  -22.4279   -8.0284   21.3549 C   0  0  0  0  0  0
  -21.9920   -9.0259   20.4651 C   0  0  0  0  0  0
  -22.7253  -10.2136   20.3057 C   0  0  0  0  0  0
  -21.6852   -6.0742   22.5283 C   0  0  0  0  0  0
  -21.4010   -6.5645   23.8217 C   0  0  0  0  0  0
  -21.3656   -5.6795   24.9179 C   0  0  0  0  0  0
  -21.6045   -4.3058   24.7229 C   0  0  0  0  0  0
  -21.8817   -3.8153   23.4347 C   0  0  0  0  0  0
  -21.9193   -4.6970   22.3403 C   0  0  0  0  0  0
  -22.7875  -13.5242   21.1822 C   0  0  0  0  0  0
  -22.1662   -4.2156   21.0982 F   0  0  0  0  0  0
  -21.5628   -3.4541   25.7740 F   0  0  0  0  0  0
  -30.0329  -13.3103   20.4394 N   0  0  0  0  0  0
  -26.3038  -12.9359   20.3368 N   0  0  0  0  0  0
  -25.9344  -11.6514   20.5780 N   0  0  0  0  0  0
  -22.0519  -12.8241   22.0388 N   0  0  0  0  0  0
  -25.4315  -15.1887   20.4073 N   0  0  0  0  0  0
  -31.8709  -14.5971   20.0854 O   0  0  0  0  0  0
  -21.6638   -6.8885   21.4246 O   0  0  0  0  0  0
  -22.3562  -14.5545   20.6669 O   0  0  0  0  0  0
  -24.6139  -31.8677   23.2116 C   0  0  0  0  0  0
  -25.9036  -32.4820   23.8396 C   0  0  1  0  0  0
  -27.2240  -27.4179   20.1045 C   0  0  0  0  0  0
  -25.5889  -33.8616   24.2318 N   0  0  0  0  0  0
  -23.4026  -30.4924   21.5531 C   0  0  2  0  0  0
  -24.8518  -28.9609   20.1154 C   0  0  0  0  0  0
  -22.7415  -29.4634   22.4983 C   0  0  0  0  0  0
  -18.0264  -28.1363   22.8480 C   0  0  0  0  0  0
  -24.1490  -36.7320   23.2635 C   0  0  0  0  0  0
  -25.9346  -30.8239   21.3741 C   0  0  0  0  0  0
  -26.0100  -29.4550   20.7295 C   0  0  0  0  0  0
  -27.1997  -28.6853   20.7334 C   0  0  0  0  0  0
  -26.0649  -26.9693   19.4423 C   0  0  0  0  0  0
  -24.8738  -27.7153   19.4682 C   0  0  0  0  0  0
  -23.6134  -29.8276   20.1665 C   0  0  0  0  0  0
  -25.4107  -36.3099   24.0327 C   0  0  1  0  0  0
  -20.5854  -28.3644   23.1309 C   0  0  2  0  0  0
  -20.6758  -26.9375   22.5416 C   0  0  0  0  0  0
  -19.5741  -26.6373   21.5206 C   0  0  0  0  0  0
  -18.1914  -26.7907   22.1613 C   0  0  0  0  0  0
  -19.1513  -28.8821   23.2889 C   0  0  0  0  0  0
  -18.9445  -30.1432   23.8895 C   0  0  0  0  0  0
  -17.6450  -30.6574   24.0554 C   0  0  0  0  0  0
  -25.9029  -34.9468   23.5121 C   0  0  0  0  0  0
  -16.5337  -29.9075   23.6323 C   0  0  0  0  0  0
  -16.7251  -28.6489   23.0337 C   0  0  0  0  0  0
  -26.4462  -31.6586   25.0716 C   0  0  0  0  0  0
  -25.3714  -31.3686   26.1454 C   0  0  0  0  0  0
  -27.0288  -30.3025   24.6079 C   0  0  0  0  0  0
  -27.6038  -32.4298   25.7472 C   0  0  0  0  0  0
  -27.5583  -37.1807   24.8462 C   0  0  0  0  0  0
  -21.4136  -29.3014   22.3731 N   0  0  0  0  0  0
  -26.4297  -37.3782   23.9401 N   0  0  0  0  0  0
  -24.6685  -31.0760   22.1043 N   0  0  0  0  0  0
  -23.4192  -28.8146   23.2998 O   0  0  0  0  0  0
  -28.3737  -26.6567   20.0559 O   0  0  0  0  0  0
  -26.5596  -34.8911   22.4683 O   0  0  0  0  0  0
  -23.5329  -32.1419   23.7522 O   0  0  0  0  0  0
  -29.2561  -21.7933   20.6940 C   0  0  0  0  0  0
  -28.8645  -22.9911   21.3650 C   0  0  0  0  0  0
  -29.8851  -20.7513   21.4173 C   0  0  0  0  0  0
  -29.1569  -23.0023   22.7649 C   0  0  0  0  0  0
  -28.7743  -24.1164   23.7246 C   0  0  0  0  0  0
  -26.5952  -23.8773   20.8842 C   0  0  0  0  0  0
  -28.3066  -23.9970   19.0764 C   0  0  0  0  0  0
  -30.3953  -19.4746   20.7407 C   0  0  0  0  0  0
  -29.7804  -18.1294   21.2305 C   0  0  0  0  0  0
  -30.5762  -16.9234   20.6651 C   0  0  0  0  0  0
  -28.5128  -25.5924   21.0264 C   0  0  0  0  0  0
  -28.0925  -24.1264   20.6056 C   0  0  0  0  0  0
  -30.1634  -20.8769   22.7333 N   0  0  0  0  0  0
  -29.7948  -21.9775   23.3896 N   0  0  0  0  0  0
  -30.0618  -15.5688   20.9578 N   0  0  0  0  0  0
  -31.4617  -12.3585   19.1500 H   0  0  0  0  0  0
  -30.2842  -11.2977   19.8626 H   0  0  0  0  0  0
  -29.7386  -11.7513   17.4484 H   0  0  0  0  0  0
  -29.6716  -13.4677   17.7668 H   0  0  0  0  0  0
  -27.8331  -11.3014   18.8395 H   0  0  0  0  0  0
  -27.3679  -12.6126   17.7902 H   0  0  0  0  0  0
  -27.6959  -14.2543   19.5508 H   0  0  0  0  0  0
  -28.6766  -12.0146   21.3865 H   0  0  0  0  0  0
  -28.4768  -13.6801   21.8489 H   0  0  0  0  0  0
  -25.2780   -9.5673   22.4756 H   0  0  0  0  0  0
  -24.0006   -7.4635   22.7479 H   0  0  0  0  0  0
  -21.0851   -8.8782   19.8959 H   0  0  0  0  0  0
  -22.3718  -10.9676   19.6162 H   0  0  0  0  0  0
  -21.2000   -7.6153   23.9723 H   0  0  0  0  0  0
  -21.1480   -6.0526   25.9081 H   0  0  0  0  0  0
  -22.0600   -2.7616   23.2847 H   0  0  0  0  0  0
  -22.4137  -11.9907   22.4781 H   0  0  0  0  0  0
  -21.1135  -13.1268   22.2583 H   0  0  0  0  0  0
  -24.6639  -15.8439   20.5072 H   0  0  0  0  0  0
  -26.2833  -15.6260   20.0787 H   0  0  0  0  0  0
  -26.7109  -32.5537   23.1158 H   0  0  0  0  0  0
  -25.0041  -33.9770   25.0467 H   0  0  0  0  0  0
  -22.6881  -31.3067   21.4170 H   0  0  0  0  0  0
  -23.3734  -35.9678   23.3315 H   0  0  0  0  0  0
  -24.3586  -36.8922   22.2048 H   0  0  0  0  0  0
  -23.7259  -37.6541   23.6642 H   0  0  0  0  0  0
  -26.0450  -31.5829   20.5987 H   0  0  0  0  0  0
  -26.8243  -30.8819   21.9883 H   0  0  0  0  0  0
  -28.0938  -29.0580   21.2142 H   0  0  0  0  0  0
  -26.0748  -26.0493   18.8803 H   0  0  0  0  0  0
  -23.9928  -27.3410   18.9646 H   0  0  0  0  0  0
  -23.7181  -30.6038   19.4071 H   0  0  0  0  0  0
  -22.7386  -29.2441   19.8729 H   0  0  0  0  0  0
  -25.1284  -36.1971   25.0817 H   0  0  0  0  0  0
  -20.9933  -28.3219   24.1432 H   0  0  0  0  0  0
  -20.5675  -26.2236   23.3601 H   0  0  0  0  0  0
  -21.6629  -26.7430   22.1197 H   0  0  0  0  0  0
  -19.6909  -25.6290   21.1210 H   0  0  0  0  0  0
  -19.6699  -27.3210   20.6755 H   0  0  0  0  0  0
  -17.4192  -26.6648   21.4010 H   0  0  0  0  0  0
  -18.0312  -26.0064   22.9010 H   0  0  0  0  0  0
  -19.7937  -30.7223   24.2282 H   0  0  0  0  0  0
  -17.5015  -31.6265   24.5141 H   0  0  0  0  0  0
  -15.5337  -30.2967   23.7671 H   0  0  0  0  0  0
  -15.8647  -28.0819   22.7040 H   0  0  0  0  0  0
  -24.5942  -30.6964   25.7788 H   0  0  0  0  0  0
  -24.8831  -32.2832   26.4831 H   0  0  0  0  0  0
  -25.8065  -30.8930   27.0246 H   0  0  0  0  0  0
  -26.2827  -29.6778   24.1156 H   0  0  0  0  0  0
  -27.4073  -29.7260   25.4528 H   0  0  0  0  0  0
  -27.8651  -30.4333   23.9211 H   0  0  0  0  0  0
  -27.2688  -33.3619   26.2023 H   0  0  0  0  0  0
  -28.3865  -32.6800   25.0294 H   0  0  0  0  0  0
  -28.0674  -31.8418   26.5400 H   0  0  0  0  0  0
  -28.2589  -38.0118   24.7516 H   0  0  0  0  0  0
  -28.1087  -36.2644   24.6284 H   0  0  0  0  0  0
  -27.2294  -37.1446   25.8863 H   0  0  0  0  0  0
  -20.9301  -29.8763   21.6975 H   0  0  0  0  0  0
  -26.0190  -38.2854   24.1416 H   0  0  0  0  0  0
  -29.0931  -21.6417   19.6389 H   0  0  0  0  0  0
  -29.4111  -24.9880   23.5843 H   0  0  0  0  0  0
  -28.8996  -23.8026   24.7618 H   0  0  0  0  0  0
  -27.7297  -24.4000   23.6185 H   0  0  0  0  0  0
  -26.2883  -22.8989   20.5126 H   0  0  0  0  0  0
  -25.9428  -24.6016   20.4148 H   0  0  0  0  0  0
  -26.3652  -23.9032   21.9471 H   0  0  0  0  0  0
  -27.8664  -23.0827   18.6794 H   0  0  0  0  0  0
  -29.3658  -24.0129   18.8164 H   0  0  0  0  0  0
  -27.8299  -24.8026   18.5232 H   0  0  0  0  0  0
  -31.4774  -19.4485   20.8783 H   0  0  0  0  0  0
  -30.2468  -19.5641   19.6641 H   0  0  0  0  0  0
  -28.7309  -18.0809   20.9380 H   0  0  0  0  0  0
  -29.8048  -18.0897   22.3202 H   0  0  0  0  0  0
  -31.6054  -16.9924   21.0243 H   0  0  0  0  0  0
  -30.6307  -17.0233   19.5787 H   0  0  0  0  0  0
  -29.5798  -25.5829   21.2483 H   0  0  0  0  0  0
  -28.0190  -25.8978   21.9486 H   0  0  0  0  0  0
  -29.1195  -15.4581   21.3044 H   0  0  0  0  0  0
  1 25  1  0  0  0
  1 30  2  0  0  0
  1 85  1  0  0  0
  2  3  1  0  0  0
  2 25  1  0  0  0
  2 86  1  0  0  0
  2 87  1  0  0  0
  3  4  1  0  0  0
  3 88  1  0  0  0
  3 89  1  0  0  0
  4  5  1  0  0  0
  4 90  1  0  0  0
  4 91  1  0  0  0
  5  6  1  0  0  0
  5 26  1  0  0  0
  5 92  1  0  0  0
  6 25  1  0  0  0
  6 93  1  0  0  0
  6 94  1  0  0  0
  7  8  2  0  0  0
  7 26  1  0  0  0
  7 29  1  0  0  0
  8  9  1  0  0  0
  8 22  1  0  0  0
  9 10  1  0  0  0
  9 27  2  0  0  0
 10 11  2  0  0  0
 10 15  1  0  0  0
 11 12  1  0  0  0
 11 95  1  0  0  0
 12 13  2  0  0  0
 12 96  1  0  0  0
 13 14  1  0  0  0
 13 31  1  0  0  0
 14 15  2  0  0  0
 14 97  1  0  0  0
 15 98  1  0  0  0
 16 17  2  0  0  0
 16 21  1  0  0  0
 16 31  1  0  0  0
 17 18  1  0  0  0
 17 99  1  0  0  0
 18 19  2  0  0  0
 18100  1  0  0  0
 19 20  1  0  0  0
 19 24  1  0  0  0
 20 21  2  0  0  0
 20101  1  0  0  0
 21 23  1  0  0  0
 22 28  1  0  0  0
 22 32  2  0  0  0
 26 27  1  0  0  0
 28102  1  0  0  0
 28103  1  0  0  0
 29104  1  0  0  0
 29105  1  0  0  0
 33 34  1  0  0  0
 33 66  1  0  0  0
 33 70  2  0  0  0
 34 36  1  0  0  0
 34 59  1  0  0  0
 34106  1  0  0  0
 35 44  2  0  0  0
 35 45  1  0  0  0
 35 68  1  0  0  0
 36 56  1  0  0  0
 36107  1  0  0  0
 37 39  1  0  0  0
 37 47  1  0  0  0
 37 66  1  0  0  0
 37108  1  0  0  0
 38 43  2  0  0  0
 38 46  1  0  0  0
 38 47  1  0  0  0
 39 64  1  0  0  0
 39 67  2  0  0  0
 40 52  1  0  0  0
 40 53  2  0  0  0
 40 58  1  0  0  0
 41109  1  0  0  0
 41110  1  0  0  0
 41111  1  0  0  0
 41 48  1  0  0  0
 42 43  1  0  0  0
 42 66  1  0  0  0
 42112  1  0  0  0
 42113  1  0  0  0
 43 44  1  0  0  0
 44114  1  0  0  0
 45 46  2  0  0  0
 45115  1  0  0  0
 46116  1  0  0  0
 47117  1  0  0  0
 47118  1  0  0  0
 48 56  1  0  0  0
 48 65  1  0  0  0
 48119  1  0  0  0
 49 50  1  0  0  0
 49 53  1  0  0  0
 49 64  1  0  0  0
 49120  1  0  0  0
 50 51  1  0  0  0
 50121  1  0  0  0
 50122  1  0  0  0
 51 52  1  0  0  0
 51123  1  0  0  0
 51124  1  0  0  0
 52125  1  0  0  0
 52126  1  0  0  0
 53 54  1  0  0  0
 54 55  2  0  0  0
 54127  1  0  0  0
 55 57  1  0  0  0
 55128  1  0  0  0
 56 69  2  0  0  0
 57 58  2  0  0  0
 57129  1  0  0  0
 58130  1  0  0  0
 59 60  1  0  0  0
 59 61  1  0  0  0
 59 62  1  0  0  0
 60131  1  0  0  0
 60132  1  0  0  0
 60133  1  0  0  0
 61134  1  0  0  0
 61135  1  0  0  0
 61136  1  0  0  0
 62137  1  0  0  0
 62138  1  0  0  0
 62139  1  0  0  0
 63 65  1  0  0  0
 63140  1  0  0  0
 63141  1  0  0  0
 63142  1  0  0  0
 64143  1  0  0  0
 65144  1  0  0  0
 68 81  1  0  0  0
 71 72  2  0  0  0
 71 73  1  0  0  0
 71145  1  0  0  0
 72 74  1  0  0  0
 72 82  1  0  0  0
 73 78  1  0  0  0
 73 83  2  0  0  0
 74 75  1  0  0  0
 74 84  2  0  0  0
 75146  1  0  0  0
 75147  1  0  0  0
 75148  1  0  0  0
 76149  1  0  0  0
 76150  1  0  0  0
 76151  1  0  0  0
 76 82  1  0  0  0
 77 82  1  0  0  0
 77152  1  0  0  0
 77153  1  0  0  0
 77154  1  0  0  0
 78 79  1  0  0  0
 78155  1  0  0  0
 78156  1  0  0  0
 79 80  1  0  0  0
 79157  1  0  0  0
 79158  1  0  0  0
 80 85  1  0  0  0
 80159  1  0  0  0
 80160  1  0  0  0
 81 82  1  0  0  0
 81161  1  0  0  0
 81162  1  0  0  0
 83 84  1  0  0  0
 85163  1  0  0  0
M  ISO  4   1 100  68 101  81 101  85 100
M  END
> <chiral flag>
0

> <version>
0

> <s_m_source_file>
/data/baiqing/PycharmProjects/Reinvent-master-3.2/result/LINK_invent/BTK/process_docking_weight1_custom_sum_contain_oxygen_bond_distance_aromatic_linkinvent_7_9_3/rearranged_h_0082.sdf

> <i_m_source_file_index>
35

> <r_mmod_Potential_Energy-OPLS-2005>
-35.4993934631348

> <r_mmod_Stretch_Energy-OPLS-2005>
49.0451889038086

> <r_mmod_Bend_Energy-OPLS-2005>
122.656524658203

> <r_mmod_Torsional_Energy-OPLS-2005>
228.667877197266

> <r_mmod_Improper_Torsional_Energy-OPLS-2005>
5.68022108078003

> <r_mmod_Van_der_Waal_Energy-OPLS-2005>
167.118087768555

> <r_mmod_Electrostatic_Energy-OPLS-2005>
-397.099578857422

> <r_mmod_Solvation_Energy-OPLS-2005>
-227.865432739258

> <b_mmod_Minimization_Converged-OPLS-2005>
0

> <r_mmod_RMS_Derivative-OPLS-2005>
2.16961741447449

$$$$
35
                    3D
 Structure written by MMmdl.
163171  0  0  1  0            999 V2000
  -30.6072  -14.7438   20.4597 C   0  0  0  0  0  0
  -30.4367  -12.4515   19.4831 C   0  0  0  0  0  0
  -29.5153  -12.5121   18.2436 C   0  0  0  0  0  0
  -28.0403  -12.3365   18.6532 C   0  0  0  0  0  0
  -27.6464  -13.2312   19.8584 C   0  0  2  0  0  0
  -28.6898  -13.1563   20.9967 C   0  0  0  0  0  0
  -25.2522  -13.8189   20.5689 C   0  0  0  0  0  0
  -24.1812  -13.0436   20.9195 C   0  0  0  0  0  0
  -24.6399  -11.6913   20.8742 C   0  0  0  0  0  0
  -23.9071  -10.4290   21.0404 C   0  0  0  0  0  0
  -24.3621   -9.4204   21.9180 C   0  0  0  0  0  0
  -23.6298   -8.2240   22.0751 C   0  0  0  0  0  0
  -22.4281   -8.0279   21.3539 C   0  0  0  0  0  0
  -21.9914   -9.0251   20.4640 C   0  0  0  0  0  0
  -22.7242  -10.2131   20.3053 C   0  0  0  0  0  0
  -21.6858   -6.0738   22.5279 C   0  0  0  0  0  0
  -21.4016   -6.5640   23.8212 C   0  0  0  0  0  0
  -21.3661   -5.6792   24.9174 C   0  0  0  0  0  0
  -21.6048   -4.3055   24.7225 C   0  0  0  0  0  0
  -21.8820   -3.8149   23.4344 C   0  0  0  0  0  0
  -21.9195   -4.6966   22.3402 C   0  0  0  0  0  0
  -22.7832  -13.5215   21.1864 C   0  0  0  0  0  0
  -22.1660   -4.2152   21.0980 F   0  0  0  0  0  0
  -21.5632   -3.4536   25.7736 F   0  0  0  0  0  0
  -29.9961  -13.5089   20.4240 N   0  0  0  0  0  0
  -26.2961  -12.9400   20.3312 N   0  0  0  0  0  0
  -25.9334  -11.6538   20.5758 N   0  0  0  0  0  0
  -22.0485  -12.8197   22.0416 N   0  0  0  0  0  0
  -25.4213  -15.1914   20.4101 N   0  0  0  0  0  0
  -31.7765  -14.8623   20.0844 O   0  0  0  0  0  0
  -21.6641   -6.8880   21.4241 O   0  0  0  0  0  0
  -22.3508  -14.5519   20.6713 O   0  0  0  0  0  0
  -24.6334  -31.8550   23.2001 C   0  0  0  0  0  0
  -25.9152  -32.4755   23.8345 C   0  0  1  0  0  0
  -27.2123  -27.2458   20.1252 C   0  0  0  0  0  0
  -25.5942  -33.8559   24.2264 N   0  0  0  0  0  0
  -23.4309  -30.4798   21.5439 C   0  0  2  0  0  0
  -24.8776  -28.9333   20.1062 C   0  0  0  0  0  0
  -22.7522  -29.4597   22.4905 C   0  0  0  0  0  0
  -18.0299  -28.1382   22.8480 C   0  0  0  0  0  0
  -24.1491  -36.7281   23.2639 C   0  0  0  0  0  0
  -25.9802  -30.7606   21.3871 C   0  0  0  0  0  0
  -26.0505  -29.3841   20.7253 C   0  0  0  0  0  0
  -27.2191  -28.5515   20.7295 C   0  0  0  0  0  0
  -26.0238  -26.8912   19.4423 C   0  0  0  0  0  0
  -24.8708  -27.6952   19.4525 C   0  0  0  0  0  0
  -23.6499  -29.8207   20.1580 C   0  0  0  0  0  0
  -25.4117  -36.3071   24.0327 C   0  0  1  0  0  0
  -20.5906  -28.3698   23.1260 C   0  0  2  0  0  0
  -20.6785  -26.9411   22.5405 C   0  0  0  0  0  0
  -19.5759  -26.6377   21.5209 C   0  0  0  0  0  0
  -18.1940  -26.7923   22.1624 C   0  0  0  0  0  0
  -19.1554  -28.8859   23.2860 C   0  0  0  0  0  0
  -18.9471  -30.1455   23.8881 C   0  0  0  0  0  0
  -17.6469  -30.6580   24.0561 C   0  0  0  0  0  0
  -25.9060  -34.9440   23.5099 C   0  0  0  0  0  0
  -16.5361  -29.9076   23.6332 C   0  0  0  0  0  0
  -16.7285  -28.6497   23.0350 C   0  0  0  0  0  0
  -26.4511  -31.6582   25.0741 C   0  0  0  0  0  0
  -25.3720  -31.3737   26.1453 C   0  0  0  0  0  0
  -27.0372  -30.2995   24.6250 C   0  0  0  0  0  0
  -27.6063  -32.4324   25.7513 C   0  0  0  0  0  0
  -27.5580  -37.1800   24.8466 C   0  0  0  0  0  0
  -21.4228  -29.3043   22.3648 N   0  0  0  0  0  0
  -26.4292  -37.3770   23.9406 N   0  0  0  0  0  0
  -24.7004  -31.0499   22.0991 N   0  0  0  0  0  0
  -23.4215  -28.8128   23.3001 O   0  0  0  0  0  0
  -28.2774  -26.3069   20.2183 O   0  0  0  0  0  0
  -26.5630  -34.8914   22.4667 O   0  0  0  0  0  0
  -23.5479  -32.1386   23.7277 O   0  0  0  0  0  0
  -30.6533  -23.3636   19.2243 C   0  0  0  0  0  0
  -29.6972  -22.6229   19.9526 C   0  0  0  0  0  0
  -31.6844  -22.6946   18.5387 C   0  0  0  0  0  0
  -29.8872  -21.1564   19.9389 C   0  0  0  0  0  0
  -33.1071  -24.8182   18.2849 C   0  0  0  0  0  0
  -32.3178  -23.5295   16.2404 C   0  0  0  0  0  0
  -28.6271  -23.5255   20.6823 C   0  0  0  0  0  0
  -28.9900  -19.9942   20.5146 C   0  0  0  0  0  0
  -29.6014  -18.5801   21.0733 C   0  0  0  0  0  0
  -29.9598  -17.2953   20.1516 C   0  0  0  0  0  0
  -27.9756  -24.8425   19.9715 C   0  0  0  0  0  0
  -32.7365  -23.4360   17.7156 C   0  0  0  0  0  0
  -31.7809  -21.3477   18.5426 N   0  0  0  0  0  0
  -30.8992  -20.6099   19.2172 N   0  0  0  0  0  0
  -29.8205  -15.8631   20.6924 N   0  0  0  0  0  0
  -31.4790  -12.5736   19.1825 H   0  0  0  0  0  0
  -30.3796  -11.4717   19.9595 H   0  0  0  0  0  0
  -29.7978  -11.7422   17.5242 H   0  0  0  0  0  0
  -29.6434  -13.4685   17.7342 H   0  0  0  0  0  0
  -27.8939  -11.2866   18.9091 H   0  0  0  0  0  0
  -27.3846  -12.5352   17.8049 H   0  0  0  0  0  0
  -27.6436  -14.2548   19.4829 H   0  0  0  0  0  0
  -28.7207  -12.1555   21.4296 H   0  0  0  0  0  0
  -28.4236  -13.8314   21.8117 H   0  0  0  0  0  0
  -25.2768   -9.5682   22.4749 H   0  0  0  0  0  0
  -24.0015   -7.4629   22.7461 H   0  0  0  0  0  0
  -21.0849   -8.8762   19.8940 H   0  0  0  0  0  0
  -22.3700  -10.9666   19.6158 H   0  0  0  0  0  0
  -21.2007   -7.6148   23.9715 H   0  0  0  0  0  0
  -21.1483   -6.0521   25.9076 H   0  0  0  0  0  0
  -22.0600   -2.7612   23.2840 H   0  0  0  0  0  0
  -22.4121  -11.9869   22.4808 H   0  0  0  0  0  0
  -21.1096  -13.1202   22.2623 H   0  0  0  0  0  0
  -24.6507  -15.8421   20.5175 H   0  0  0  0  0  0
  -26.2663  -15.6323   20.0703 H   0  0  0  0  0  0
  -26.7218  -32.5400   23.1084 H   0  0  0  0  0  0
  -25.0094  -33.9695   25.0414 H   0  0  0  0  0  0
  -22.7283  -31.3030   21.4003 H   0  0  0  0  0  0
  -23.3758  -35.9608   23.3299 H   0  0  0  0  0  0
  -24.3581  -36.8908   22.2054 H   0  0  0  0  0  0
  -23.7242  -37.6481   23.6664 H   0  0  0  0  0  0
  -26.1272  -31.5220   20.6198 H   0  0  0  0  0  0
  -26.8552  -30.8049   22.0241 H   0  0  0  0  0  0
  -28.1102  -28.8854   21.2426 H   0  0  0  0  0  0
  -25.9443  -25.9608   18.9015 H   0  0  0  0  0  0
  -23.9788  -27.3523   18.9458 H   0  0  0  0  0  0
  -23.7764  -30.6008   19.4067 H   0  0  0  0  0  0
  -22.7686  -29.2563   19.8486 H   0  0  0  0  0  0
  -25.1299  -36.1921   25.0820 H   0  0  0  0  0  0
  -20.9995  -28.3274   24.1384 H   0  0  0  0  0  0
  -20.5684  -26.2307   23.3613 H   0  0  0  0  0  0
  -21.6652  -26.7429   22.1201 H   0  0  0  0  0  0
  -19.6920  -25.6284   21.1247 H   0  0  0  0  0  0
  -19.6695  -27.3180   20.6733 H   0  0  0  0  0  0
  -17.4210  -26.6669   21.4025 H   0  0  0  0  0  0
  -18.0337  -26.0062   22.9019 H   0  0  0  0  0  0
  -19.7946  -30.7273   24.2245 H   0  0  0  0  0  0
  -17.5024  -31.6260   24.5162 H   0  0  0  0  0  0
  -15.5361  -30.2973   23.7659 H   0  0  0  0  0  0
  -15.8689  -28.0811   22.7071 H   0  0  0  0  0  0
  -24.5900  -30.7082   25.7778 H   0  0  0  0  0  0
  -24.8903  -32.2908   26.4857 H   0  0  0  0  0  0
  -25.8025  -30.8930   27.0247 H   0  0  0  0  0  0
  -26.2975  -29.6732   24.1252 H   0  0  0  0  0  0
  -27.4024  -29.7270   25.4788 H   0  0  0  0  0  0
  -27.8863  -30.4270   23.9532 H   0  0  0  0  0  0
  -27.2677  -33.3633   26.2073 H   0  0  0  0  0  0
  -28.3881  -32.6870   25.0342 H   0  0  0  0  0  0
  -28.0722  -31.8458   26.5444 H   0  0  0  0  0  0
  -28.2600  -38.0096   24.7511 H   0  0  0  0  0  0
  -28.1075  -36.2629   24.6294 H   0  0  0  0  0  0
  -27.2296  -37.1447   25.8869 H   0  0  0  0  0  0
  -20.9414  -29.8783   21.6869 H   0  0  0  0  0  0
  -26.0175  -38.2846   24.1400 H   0  0  0  0  0  0
  -30.5910  -24.4408   19.1923 H   0  0  0  0  0  0
  -33.4123  -24.7435   19.3292 H   0  0  0  0  0  0
  -32.2790  -25.5244   18.2241 H   0  0  0  0  0  0
  -33.9396  -25.2541   17.7326 H   0  0  0  0  0  0
  -32.1447  -22.5380   15.8208 H   0  0  0  0  0  0
  -33.0896  -24.0095   15.6383 H   0  0  0  0  0  0
  -31.3970  -24.1019   16.1254 H   0  0  0  0  0  0
  -29.0320  -23.8173   21.6513 H   0  0  0  0  0  0
  -27.8057  -22.8479   20.9192 H   0  0  0  0  0  0
  -28.2307  -19.7722   19.7649 H   0  0  0  0  0  0
  -28.4418  -20.4483   21.3400 H   0  0  0  0  0  0
  -28.8347  -18.2121   21.7561 H   0  0  0  0  0  0
  -30.4508  -18.8016   21.7204 H   0  0  0  0  0  0
  -30.9674  -17.4259   19.7539 H   0  0  0  0  0  0
  -29.3091  -17.3348   19.2772 H   0  0  0  0  0  0
  -26.9458  -24.7213   20.3059 H   0  0  0  0  0  0
  -27.9430  -24.6774   18.8939 H   0  0  0  0  0  0
  -33.6449  -22.8318   17.7564 H   0  0  0  0  0  0
  -28.9019  -15.6366   21.0447 H   0  0  0  0  0  0
  1 25  1  0  0  0
  1 30  2  0  0  0
  1 85  1  0  0  0
  2  3  1  0  0  0
  2 25  1  0  0  0
  2 86  1  0  0  0
  2 87  1  0  0  0
  3  4  1  0  0  0
  3 88  1  0  0  0
  3 89  1  0  0  0
  4  5  1  0  0  0
  4 90  1  0  0  0
  4 91  1  0  0  0
  5  6  1  0  0  0
  5 26  1  0  0  0
  5 92  1  0  0  0
  6 25  1  0  0  0
  6 93  1  0  0  0
  6 94  1  0  0  0
  7  8  2  0  0  0
  7 26  1  0  0  0
  7 29  1  0  0  0
  8  9  1  0  0  0
  8 22  1  0  0  0
  9 10  1  0  0  0
  9 27  2  0  0  0
 10 11  2  0  0  0
 10 15  1  0  0  0
 11 12  1  0  0  0
 11 95  1  0  0  0
 12 13  2  0  0  0
 12 96  1  0  0  0
 13 14  1  0  0  0
 13 31  1  0  0  0
 14 15  2  0  0  0
 14 97  1  0  0  0
 15 98  1  0  0  0
 16 17  2  0  0  0
 16 21  1  0  0  0
 16 31  1  0  0  0
 17 18  1  0  0  0
 17 99  1  0  0  0
 18 19  2  0  0  0
 18100  1  0  0  0
 19 20  1  0  0  0
 19 24  1  0  0  0
 20 21  2  0  0  0
 20101  1  0  0  0
 21 23  1  0  0  0
 22 28  1  0  0  0
 22 32  2  0  0  0
 26 27  1  0  0  0
 28102  1  0  0  0
 28103  1  0  0  0
 29104  1  0  0  0
 29105  1  0  0  0
 33 34  1  0  0  0
 33 66  1  0  0  0
 33 70  2  0  0  0
 34 36  1  0  0  0
 34 59  1  0  0  0
 34106  1  0  0  0
 35 44  2  0  0  0
 35 45  1  0  0  0
 35 68  1  0  0  0
 36 56  1  0  0  0
 36107  1  0  0  0
 37 39  1  0  0  0
 37 47  1  0  0  0
 37 66  1  0  0  0
 37108  1  0  0  0
 38 43  2  0  0  0
 38 46  1  0  0  0
 38 47  1  0  0  0
 39 64  1  0  0  0
 39 67  2  0  0  0
 40 52  1  0  0  0
 40 53  2  0  0  0
 40 58  1  0  0  0
 41109  1  0  0  0
 41110  1  0  0  0
 41111  1  0  0  0
 41 48  1  0  0  0
 42 43  1  0  0  0
 42 66  1  0  0  0
 42112  1  0  0  0
 42113  1  0  0  0
 43 44  1  0  0  0
 44114  1  0  0  0
 45 46  2  0  0  0
 45115  1  0  0  0
 46116  1  0  0  0
 47117  1  0  0  0
 47118  1  0  0  0
 48 56  1  0  0  0
 48 65  1  0  0  0
 48119  1  0  0  0
 49 50  1  0  0  0
 49 53  1  0  0  0
 49 64  1  0  0  0
 49120  1  0  0  0
 50 51  1  0  0  0
 50121  1  0  0  0
 50122  1  0  0  0
 51 52  1  0  0  0
 51123  1  0  0  0
 51124  1  0  0  0
 52125  1  0  0  0
 52126  1  0  0  0
 53 54  1  0  0  0
 54 55  2  0  0  0
 54127  1  0  0  0
 55 57  1  0  0  0
 55128  1  0  0  0
 56 69  2  0  0  0
 57 58  2  0  0  0
 57129  1  0  0  0
 58130  1  0  0  0
 59 60  1  0  0  0
 59 61  1  0  0  0
 59 62  1  0  0  0
 60131  1  0  0  0
 60132  1  0  0  0
 60133  1  0  0  0
 61134  1  0  0  0
 61135  1  0  0  0
 61136  1  0  0  0
 62137  1  0  0  0
 62138  1  0  0  0
 62139  1  0  0  0
 63 65  1  0  0  0
 63140  1  0  0  0
 63141  1  0  0  0
 63142  1  0  0  0
 64143  1  0  0  0
 65144  1  0  0  0
 68 81  1  0  0  0
 71 72  2  0  0  0
 71 73  1  0  0  0
 71145  1  0  0  0
 72 74  1  0  0  0
 72 77  1  0  0  0
 73 82  1  0  0  0
 73 83  2  0  0  0
 74 78  1  0  0  0
 74 84  2  0  0  0
 75146  1  0  0  0
 75147  1  0  0  0
 75148  1  0  0  0
 75 82  1  0  0  0
 76 82  1  0  0  0
 76149  1  0  0  0
 76150  1  0  0  0
 76151  1  0  0  0
 77 81  1  0  0  0
 77152  1  0  0  0
 77153  1  0  0  0
 78 79  1  0  0  0
 78154  1  0  0  0
 78155  1  0  0  0
 79 80  1  0  0  0
 79156  1  0  0  0
 79157  1  0  0  0
 80 85  1  0  0  0
 80158  1  0  0  0
 80159  1  0  0  0
 81160  1  0  0  0
 81161  1  0  0  0
 82162  1  0  0  0
 83 84  1  0  0  0
 85163  1  0  0  0
M  ISO  4   1 100  68 101  81 101  85 100
M  END
> <chiral flag>
0

> <version>
0

> <s_m_source_file>
/data/baiqing/PycharmProjects/Reinvent-master-3.2/result/LINK_invent/BTK/process_docking_weight1_custom_sum_contain_oxygen_bond_distance_aromatic_linkinvent_7_9_3/rearranged_h_0082.sdf

> <i_m_source_file_index>
36

> <r_mmod_Potential_Energy-OPLS-2005>
237.793273925781

> <r_mmod_Stretch_Energy-OPLS-2005>
138.900344848633

> <r_mmod_Bend_Energy-OPLS-2005>
225.965515136719

> <r_mmod_Torsional_Energy-OPLS-2005>
221.538803100586

> <r_mmod_Improper_Torsional_Energy-OPLS-2005>
6.80818748474121

> <r_mmod_Van_der_Waal_Energy-OPLS-2005>
145.940460205078

> <r_mmod_Electrostatic_Energy-OPLS-2005>
-356.383056640625

> <r_mmod_Solvation_Energy-OPLS-2005>
-238.646591186523

> <b_mmod_Minimization_Converged-OPLS-2005>
0

> <r_mmod_RMS_Derivative-OPLS-2005>
0.814547061920166

$$$$
36
                    3D
 Structure written by MMmdl.
165173  0  0  1  0            999 V2000
  -30.5854  -14.7775   20.4617 C   0  0  0  0  0  0
  -30.4421  -12.4779   19.4702 C   0  0  0  0  0  0
  -29.5129  -12.5114   18.2357 C   0  0  0  0  0  0
  -28.0398  -12.3286   18.6518 C   0  0  0  0  0  0
  -27.6422  -13.2306   19.8504 C   0  0  2  0  0  0
  -28.6890  -13.1669   20.9836 C   0  0  0  0  0  0
  -25.2519  -13.8194   20.5695 C   0  0  0  0  0  0
  -24.1809  -13.0441   20.9211 C   0  0  0  0  0  0
  -24.6400  -11.6919   20.8760 C   0  0  0  0  0  0
  -23.9079  -10.4295   21.0418 C   0  0  0  0  0  0
  -24.3623   -9.4208   21.9195 C   0  0  0  0  0  0
  -23.6296   -8.2246   22.0762 C   0  0  0  0  0  0
  -22.4281   -8.0287   21.3548 C   0  0  0  0  0  0
  -21.9918   -9.0263   20.4651 C   0  0  0  0  0  0
  -22.7252  -10.2140   20.3063 C   0  0  0  0  0  0
  -21.6852   -6.0742   22.5283 C   0  0  0  0  0  0
  -21.4014   -6.5644   23.8218 C   0  0  0  0  0  0
  -21.3657   -5.6794   24.9177 C   0  0  0  0  0  0
  -21.6042   -4.3059   24.7226 C   0  0  0  0  0  0
  -21.8818   -3.8152   23.4348 C   0  0  0  0  0  0
  -21.9192   -4.6969   22.3405 C   0  0  0  0  0  0
  -22.7829  -13.5225   21.1871 C   0  0  0  0  0  0
  -22.1660   -4.2157   21.0983 F   0  0  0  0  0  0
  -21.5627   -3.4542   25.7738 F   0  0  0  0  0  0
  -29.9844  -13.5375   20.3987 N   0  0  0  0  0  0
  -26.2945  -12.9398   20.3286 N   0  0  0  0  0  0
  -25.9332  -11.6542   20.5762 N   0  0  0  0  0  0
  -22.0467  -12.8214   22.0420 N   0  0  0  0  0  0
  -25.4198  -15.1920   20.4098 N   0  0  0  0  0  0
  -31.7779  -14.8955   20.1668 O   0  0  0  0  0  0
  -21.6641   -6.8887   21.4246 O   0  0  0  0  0  0
  -22.3514  -14.5532   20.6721 O   0  0  0  0  0  0
  -24.6348  -31.8515   23.1961 C   0  0  0  0  0  0
  -25.9156  -32.4734   23.8320 C   0  0  1  0  0  0
  -27.2154  -27.2257   20.1294 C   0  0  0  0  0  0
  -25.5934  -33.8539   24.2233 N   0  0  0  0  0  0
  -23.4325  -30.4754   21.5405 C   0  0  2  0  0  0
  -24.8794  -28.9198   20.1092 C   0  0  0  0  0  0
  -22.7520  -29.4581   22.4893 C   0  0  0  0  0  0
  -18.0297  -28.1386   22.8472 C   0  0  0  0  0  0
  -24.1489  -36.7276   23.2643 C   0  0  0  0  0  0
  -25.9828  -30.7540   21.3812 C   0  0  0  0  0  0
  -26.0545  -29.3743   20.7210 C   0  0  0  0  0  0
  -27.2248  -28.5412   20.7179 C   0  0  0  0  0  0
  -26.0138  -26.8525   19.4842 C   0  0  0  0  0  0
  -24.8664  -27.6680   19.4793 C   0  0  0  0  0  0
  -23.6522  -29.8107   20.1568 C   0  0  0  0  0  0
  -25.4116  -36.3058   24.0323 C   0  0  1  0  0  0
  -20.5902  -28.3695   23.1255 C   0  0  2  0  0  0
  -20.6778  -26.9408   22.5402 C   0  0  0  0  0  0
  -19.5758  -26.6375   21.5205 C   0  0  0  0  0  0
  -18.1938  -26.7925   22.1617 C   0  0  0  0  0  0
  -19.1550  -28.8858   23.2858 C   0  0  0  0  0  0
  -18.9475  -30.1459   23.8878 C   0  0  0  0  0  0
  -17.6473  -30.6583   24.0557 C   0  0  0  0  0  0
  -25.9061  -34.9428   23.5080 C   0  0  0  0  0  0
  -16.5363  -29.9077   23.6336 C   0  0  0  0  0  0
  -16.7282  -28.6499   23.0348 C   0  0  0  0  0  0
  -26.4512  -31.6576   25.0726 C   0  0  0  0  0  0
  -25.3721  -31.3734   26.1437 C   0  0  0  0  0  0
  -27.0363  -30.2988   24.6236 C   0  0  0  0  0  0
  -27.6054  -32.4327   25.7507 C   0  0  0  0  0  0
  -27.5576  -37.1793   24.8466 C   0  0  0  0  0  0
  -21.4222  -29.3041   22.3642 N   0  0  0  0  0  0
  -26.4285  -37.3760   23.9411 N   0  0  0  0  0  0
  -24.7030  -31.0454   22.0954 N   0  0  0  0  0  0
  -23.4207  -28.8115   23.2997 O   0  0  0  0  0  0
  -28.2923  -26.2946   20.1935 O   0  0  0  0  0  0
  -26.5642  -34.8906   22.4656 O   0  0  0  0  0  0
  -23.5489  -32.1356   23.7237 O   0  0  0  0  0  0
  -29.0872  -18.1312   21.7857 C   0  0  0  0  0  0
  -29.8876  -18.2578   19.4377 C   0  0  0  0  0  0
  -28.4849  -19.5583   21.4166 C   0  0  0  0  0  0
  -29.9959  -19.8638   19.5167 C   0  0  0  0  0  0
  -30.0305  -17.4078   20.7539 C   0  0  2  0  0  0
  -29.4070  -20.6645   20.7631 C   0  0  1  0  0  0
  -29.9895  -21.6056   23.1170 C   0  0  0  0  0  0
  -31.7153  -20.1638   22.0198 C   0  0  0  0  0  0
  -28.5320  -22.0217   20.3649 C   0  0  0  0  0  0
  -29.0424  -23.5886   20.3781 C   0  0  0  0  0  0
  -27.9983  -24.8084   20.0596 C   0  0  0  0  0  0
  -30.5374  -21.1286   21.7550 C   0  0  0  0  0  0
  -29.7713  -15.8888   20.6623 N   0  0  0  0  0  0
  -31.4791  -12.6232   19.1624 H   0  0  0  0  0  0
  -30.4076  -11.5022   19.9573 H   0  0  0  0  0  0
  -29.7998  -11.7354   17.5247 H   0  0  0  0  0  0
  -29.6301  -13.4629   17.7146 H   0  0  0  0  0  0
  -27.9016  -11.2801   18.9184 H   0  0  0  0  0  0
  -27.3807  -12.5155   17.8032 H   0  0  0  0  0  0
  -27.6342  -14.2510   19.4667 H   0  0  0  0  0  0
  -28.7358  -12.1669   21.4169 H   0  0  0  0  0  0
  -28.4200  -13.8406   21.7991 H   0  0  0  0  0  0
  -25.2767   -9.5683   22.4774 H   0  0  0  0  0  0
  -24.0003   -7.4636   22.7482 H   0  0  0  0  0  0
  -21.0850   -8.8786   19.8956 H   0  0  0  0  0  0
  -22.3715  -10.9682   19.6174 H   0  0  0  0  0  0
  -21.2007   -7.6151   23.9723 H   0  0  0  0  0  0
  -21.1476   -6.0525   25.9080 H   0  0  0  0  0  0
  -22.0598   -2.7615   23.2846 H   0  0  0  0  0  0
  -22.4072  -11.9859   22.4791 H   0  0  0  0  0  0
  -21.1094  -13.1252   22.2643 H   0  0  0  0  0  0
  -24.6476  -15.8413   20.5160 H   0  0  0  0  0  0
  -26.2587  -15.6339   20.0571 H   0  0  0  0  0  0
  -26.7213  -32.5367   23.1049 H   0  0  0  0  0  0
  -25.0063  -33.9669   25.0365 H   0  0  0  0  0  0
  -22.7309  -31.2994   21.3930 H   0  0  0  0  0  0
  -23.3751  -35.9609   23.3299 H   0  0  0  0  0  0
  -24.3577  -36.8912   22.2060 H   0  0  0  0  0  0
  -23.7243  -37.6471   23.6679 H   0  0  0  0  0  0
  -26.1258  -31.5135   20.6112 H   0  0  0  0  0  0
  -26.8588  -30.8025   22.0167 H   0  0  0  0  0  0
  -28.1218  -28.8821   21.2155 H   0  0  0  0  0  0
  -25.9214  -25.8991   18.9880 H   0  0  0  0  0  0
  -23.9682  -27.3142   18.9925 H   0  0  0  0  0  0
  -23.7793  -30.5882   19.4025 H   0  0  0  0  0  0
  -22.7692  -29.2482   19.8486 H   0  0  0  0  0  0
  -25.1301  -36.1894   25.0815 H   0  0  0  0  0  0
  -20.9995  -28.3267   24.1376 H   0  0  0  0  0  0
  -20.5664  -26.2305   23.3608 H   0  0  0  0  0  0
  -21.6644  -26.7412   22.1206 H   0  0  0  0  0  0
  -19.6922  -25.6286   21.1237 H   0  0  0  0  0  0
  -19.6701  -27.3180   20.6732 H   0  0  0  0  0  0
  -17.4205  -26.6665   21.4024 H   0  0  0  0  0  0
  -18.0343  -26.0072   22.9022 H   0  0  0  0  0  0
  -19.7955  -30.7276   24.2234 H   0  0  0  0  0  0
  -17.5030  -31.6263   24.5161 H   0  0  0  0  0  0
  -15.5363  -30.2972   23.7674 H   0  0  0  0  0  0
  -15.8683  -28.0814   22.7069 H   0  0  0  0  0  0
  -24.5925  -30.7042   25.7779 H   0  0  0  0  0  0
  -24.8874  -32.2899   26.4813 H   0  0  0  0  0  0
  -25.8033  -30.8966   27.0247 H   0  0  0  0  0  0
  -26.2955  -29.6730   24.1243 H   0  0  0  0  0  0
  -27.4020  -29.7261   25.4767 H   0  0  0  0  0  0
  -27.8842  -30.4260   23.9500 H   0  0  0  0  0  0
  -27.2662  -33.3653   26.2025 H   0  0  0  0  0  0
  -28.3898  -32.6838   25.0355 H   0  0  0  0  0  0
  -28.0674  -31.8483   26.5473 H   0  0  0  0  0  0
  -28.2583  -38.0099   24.7507 H   0  0  0  0  0  0
  -28.1077  -36.2625   24.6293 H   0  0  0  0  0  0
  -27.2291  -37.1442   25.8868 H   0  0  0  0  0  0
  -20.9408  -29.8787   21.6868 H   0  0  0  0  0  0
  -26.0159  -38.2829   24.1415 H   0  0  0  0  0  0
  -28.2319  -17.4827   21.9791 H   0  0  0  0  0  0
  -29.5856  -18.1832   22.7527 H   0  0  0  0  0  0
  -30.6083  -17.8967   18.7030 H   0  0  0  0  0  0
  -28.9132  -18.0222   19.0078 H   0  0  0  0  0  0
  -27.9936  -19.9596   22.3028 H   0  0  0  0  0  0
  -27.6599  -19.3836   20.7237 H   0  0  0  0  0  0
  -29.4954  -20.2319   18.6209 H   0  0  0  0  0  0
  -31.0290  -20.1626   19.3454 H   0  0  0  0  0  0
  -31.0595  -17.5214   21.0971 H   0  0  0  0  0  0
  -29.1361  -22.2748   23.0192 H   0  0  0  0  0  0
  -30.7556  -22.1410   23.6785 H   0  0  0  0  0  0
  -29.6694  -20.7661   23.7343 H   0  0  0  0  0  0
  -32.1976  -19.8037   21.1135 H   0  0  0  0  0  0
  -31.4276  -19.3012   22.6136 H   0  0  0  0  0  0
  -32.4934  -20.6730   22.5898 H   0  0  0  0  0  0
  -27.6780  -22.0236   21.0431 H   0  0  0  0  0  0
  -28.0737  -21.8448   19.3916 H   0  0  0  0  0  0
  -29.8765  -23.6733   19.6813 H   0  0  0  0  0  0
  -29.4690  -23.8018   21.3568 H   0  0  0  0  0  0
  -27.1204  -24.6143   20.6774 H   0  0  0  0  0  0
  -27.6769  -24.6461   19.0307 H   0  0  0  0  0  0
  -31.0081  -21.9914   21.2831 H   0  0  0  0  0  0
  -28.8089  -15.6313   20.8181 H   0  0  0  0  0  0
  1 25  1  0  0  0
  1 30  2  0  0  0
  1 83  1  0  0  0
  2  3  1  0  0  0
  2 25  1  0  0  0
  2 84  1  0  0  0
  2 85  1  0  0  0
  3  4  1  0  0  0
  3 86  1  0  0  0
  3 87  1  0  0  0
  4  5  1  0  0  0
  4 88  1  0  0  0
  4 89  1  0  0  0
  5  6  1  0  0  0
  5 26  1  0  0  0
  5 90  1  0  0  0
  6 25  1  0  0  0
  6 91  1  0  0  0
  6 92  1  0  0  0
  7  8  2  0  0  0
  7 26  1  0  0  0
  7 29  1  0  0  0
  8  9  1  0  0  0
  8 22  1  0  0  0
  9 10  1  0  0  0
  9 27  2  0  0  0
 10 11  2  0  0  0
 10 15  1  0  0  0
 11 12  1  0  0  0
 11 93  1  0  0  0
 12 13  2  0  0  0
 12 94  1  0  0  0
 13 14  1  0  0  0
 13 31  1  0  0  0
 14 15  2  0  0  0
 14 95  1  0  0  0
 15 96  1  0  0  0
 16 17  2  0  0  0
 16 21  1  0  0  0
 16 31  1  0  0  0
 17 18  1  0  0  0
 17 97  1  0  0  0
 18 19  2  0  0  0
 18 98  1  0  0  0
 19 20  1  0  0  0
 19 24  1  0  0  0
 20 21  2  0  0  0
 20 99  1  0  0  0
 21 23  1  0  0  0
 22 28  1  0  0  0
 22 32  2  0  0  0
 26 27  1  0  0  0
 28100  1  0  0  0
 28101  1  0  0  0
 29102  1  0  0  0
 29103  1  0  0  0
 33 34  1  0  0  0
 33 66  1  0  0  0
 33 70  2  0  0  0
 34 36  1  0  0  0
 34 59  1  0  0  0
 34104  1  0  0  0
 35 44  2  0  0  0
 35 45  1  0  0  0
 35 68  1  0  0  0
 36 56  1  0  0  0
 36105  1  0  0  0
 37 39  1  0  0  0
 37 47  1  0  0  0
 37 66  1  0  0  0
 37106  1  0  0  0
 38 43  2  0  0  0
 38 46  1  0  0  0
 38 47  1  0  0  0
 39 64  1  0  0  0
 39 67  2  0  0  0
 40 52  1  0  0  0
 40 53  2  0  0  0
 40 58  1  0  0  0
 41107  1  0  0  0
 41108  1  0  0  0
 41109  1  0  0  0
 41 48  1  0  0  0
 42 43  1  0  0  0
 42 66  1  0  0  0
 42110  1  0  0  0
 42111  1  0  0  0
 43 44  1  0  0  0
 44112  1  0  0  0
 45 46  2  0  0  0
 45113  1  0  0  0
 46114  1  0  0  0
 47115  1  0  0  0
 47116  1  0  0  0
 48 56  1  0  0  0
 48 65  1  0  0  0
 48117  1  0  0  0
 49 50  1  0  0  0
 49 53  1  0  0  0
 49 64  1  0  0  0
 49118  1  0  0  0
 50 51  1  0  0  0
 50119  1  0  0  0
 50120  1  0  0  0
 51 52  1  0  0  0
 51121  1  0  0  0
 51122  1  0  0  0
 52123  1  0  0  0
 52124  1  0  0  0
 53 54  1  0  0  0
 54 55  2  0  0  0
 54125  1  0  0  0
 55 57  1  0  0  0
 55126  1  0  0  0
 56 69  2  0  0  0
 57 58  2  0  0  0
 57127  1  0  0  0
 58128  1  0  0  0
 59 60  1  0  0  0
 59 61  1  0  0  0
 59 62  1  0  0  0
 60129  1  0  0  0
 60130  1  0  0  0
 60131  1  0  0  0
 61132  1  0  0  0
 61133  1  0  0  0
 61134  1  0  0  0
 62135  1  0  0  0
 62136  1  0  0  0
 62137  1  0  0  0
 63 65  1  0  0  0
 63138  1  0  0  0
 63139  1  0  0  0
 63140  1  0  0  0
 64141  1  0  0  0
 65142  1  0  0  0
 68 81  1  0  0  0
 71 73  1  0  0  0
 71 75  1  0  0  0
 71143  1  0  0  0
 71144  1  0  0  0
 72 74  1  0  0  0
 72 75  1  0  0  0
 72145  1  0  0  0
 72146  1  0  0  0
 73 76  1  0  0  0
 73147  1  0  0  0
 73148  1  0  0  0
 74 76  1  0  0  0
 74149  1  0  0  0
 74150  1  0  0  0
 75 83  1  0  0  0
 75151  1  0  0  0
 76 79  1  0  0  0
 76 82  1  0  0  0
 77152  1  0  0  0
 77153  1  0  0  0
 77154  1  0  0  0
 77 82  1  0  0  0
 78 82  1  0  0  0
 78155  1  0  0  0
 78156  1  0  0  0
 78157  1  0  0  0
 79 80  1  0  0  0
 79158  1  0  0  0
 79159  1  0  0  0
 80 81  1  0  0  0
 80160  1  0  0  0
 80161  1  0  0  0
 81162  1  0  0  0
 81163  1  0  0  0
 82164  1  0  0  0
 83165  1  0  0  0
M  ISO  4   1 100  68 101  81 101  83 100
M  END
> <chiral flag>
0

> <version>
0

> <s_m_source_file>
/data/baiqing/PycharmProjects/Reinvent-master-3.2/result/LINK_invent/BTK/process_docking_weight1_custom_sum_contain_oxygen_bond_distance_aromatic_linkinvent_7_9_3/rearranged_h_0082.sdf

> <i_m_source_file_index>
37

> <r_mmod_Potential_Energy-OPLS-2005>
304.957977294922

> <r_mmod_Stretch_Energy-OPLS-2005>
159.449356079102

> <r_mmod_Bend_Energy-OPLS-2005>
218.062805175781

> <r_mmod_Torsional_Energy-OPLS-2005>
275.453491210938

> <r_mmod_Improper_Torsional_Energy-OPLS-2005>
4.36628770828247

> <r_mmod_Van_der_Waal_Energy-OPLS-2005>
133.411697387695

> <r_mmod_Electrostatic_Energy-OPLS-2005>
-397.747528076172

> <r_mmod_Solvation_Energy-OPLS-2005>
-193.608764648438

> <b_mmod_Minimization_Converged-OPLS-2005>
0

> <r_mmod_RMS_Derivative-OPLS-2005>
0.772689640522003

$$$$
37
                    3D
 Structure written by MMmdl.
166174  0  0  1  0            999 V2000
  -30.6231  -14.7027   20.4800 C   0  0  0  0  0  0
  -30.4227  -12.4328   19.4673 C   0  0  0  0  0  0
  -29.5064  -12.5205   18.2293 C   0  0  0  0  0  0
  -28.0293  -12.3546   18.6376 C   0  0  0  0  0  0
  -27.6419  -13.2342   19.8582 C   0  0  2  0  0  0
  -28.6838  -13.1443   20.9921 C   0  0  0  0  0  0
  -25.2504  -13.8217   20.5699 C   0  0  0  0  0  0
  -24.1810  -13.0455   20.9225 C   0  0  0  0  0  0
  -24.6408  -11.6931   20.8772 C   0  0  0  0  0  0
  -23.9098  -10.4307   21.0441 C   0  0  0  0  0  0
  -24.3650   -9.4211   21.9207 C   0  0  0  0  0  0
  -23.6315   -8.2248   22.0765 C   0  0  0  0  0  0
  -22.4290   -8.0299   21.3555 C   0  0  0  0  0  0
  -21.9939   -9.0277   20.4652 C   0  0  0  0  0  0
  -22.7281  -10.2150   20.3070 C   0  0  0  0  0  0
  -21.6850   -6.0759   22.5283 C   0  0  0  0  0  0
  -21.4019   -6.5659   23.8227 C   0  0  0  0  0  0
  -21.3657   -5.6802   24.9184 C   0  0  0  0  0  0
  -21.6045   -4.3064   24.7227 C   0  0  0  0  0  0
  -21.8815   -3.8161   23.4343 C   0  0  0  0  0  0
  -21.9194   -4.6985   22.3402 C   0  0  0  0  0  0
  -22.7825  -13.5221   21.1882 C   0  0  0  0  0  0
  -22.1653   -4.2173   21.0973 F   0  0  0  0  0  0
  -21.5634   -3.4542   25.7737 F   0  0  0  0  0  0
  -29.9857  -13.4881   20.4082 N   0  0  0  0  0  0
  -26.2943  -12.9426   20.3323 N   0  0  0  0  0  0
  -25.9339  -11.6562   20.5797 N   0  0  0  0  0  0
  -22.0465  -12.8206   22.0421 N   0  0  0  0  0  0
  -25.4154  -15.1949   20.4071 N   0  0  0  0  0  0
  -31.8118  -14.7938   20.1603 O   0  0  0  0  0  0
  -21.6642   -6.8900   21.4246 O   0  0  0  0  0  0
  -22.3502  -14.5526   20.6732 O   0  0  0  0  0  0
  -24.6300  -31.8564   23.2002 C   0  0  0  0  0  0
  -25.9131  -32.4756   23.8347 C   0  0  1  0  0  0
  -27.2232  -27.2837   20.1208 C   0  0  0  0  0  0
  -25.5933  -33.8558   24.2275 N   0  0  0  0  0  0
  -23.4245  -30.4797   21.5438 C   0  0  2  0  0  0
  -24.8714  -28.9295   20.1107 C   0  0  0  0  0  0
  -22.7492  -29.4610   22.4929 C   0  0  0  0  0  0
  -18.0290  -28.1380   22.8484 C   0  0  0  0  0  0
  -24.1488  -36.7283   23.2640 C   0  0  0  0  0  0
  -25.9690  -30.7763   21.3760 C   0  0  0  0  0  0
  -26.0426  -29.4005   20.7186 C   0  0  0  0  0  0
  -27.2199  -28.5884   20.7146 C   0  0  0  0  0  0
  -26.0316  -26.8799   19.4767 C   0  0  0  0  0  0
  -24.8707  -27.6761   19.4801 C   0  0  0  0  0  0
  -23.6403  -29.8129   20.1600 C   0  0  0  0  0  0
  -25.4117  -36.3073   24.0327 C   0  0  1  0  0  0
  -20.5897  -28.3692   23.1269 C   0  0  2  0  0  0
  -20.6779  -26.9410   22.5404 C   0  0  0  0  0  0
  -19.5754  -26.6381   21.5202 C   0  0  0  0  0  0
  -18.1934  -26.7924   22.1615 C   0  0  0  0  0  0
  -19.1546  -28.8854   23.2869 C   0  0  0  0  0  0
  -18.9458  -30.1458   23.8886 C   0  0  0  0  0  0
  -17.6462  -30.6578   24.0563 C   0  0  0  0  0  0
  -25.9055  -34.9436   23.5108 C   0  0  0  0  0  0
  -16.5354  -29.9076   23.6334 C   0  0  0  0  0  0
  -16.7281  -28.6494   23.0348 C   0  0  0  0  0  0
  -26.4504  -31.6571   25.0727 C   0  0  0  0  0  0
  -25.3730  -31.3687   26.1444 C   0  0  0  0  0  0
  -27.0359  -30.3009   24.6176 C   0  0  0  0  0  0
  -27.6066  -32.4306   25.7492 C   0  0  0  0  0  0
  -27.5578  -37.1799   24.8464 C   0  0  0  0  0  0
  -21.4199  -29.3048   22.3665 N   0  0  0  0  0  0
  -26.4292  -37.3771   23.9404 N   0  0  0  0  0  0
  -24.6935  -31.0545   22.0969 N   0  0  0  0  0  0
  -23.4199  -28.8146   23.3014 O   0  0  0  0  0  0
  -28.3272  -26.4062   20.1871 O   0  0  0  0  0  0
  -26.5617  -34.8910   22.4671 O   0  0  0  0  0  0
  -23.5455  -32.1372   23.7314 O   0  0  0  0  0  0
  -32.0287  -21.7791   22.5292 C   0  0  0  0  0  0
  -32.1911  -20.4043   22.7301 C   0  0  0  0  0  0
  -30.1498  -21.3921   21.1718 C   0  0  0  0  0  0
  -30.3521  -19.9277   21.3366 C   0  0  0  0  0  0
  -32.8099  -19.1346   24.8446 C   0  0  0  0  0  0
  -28.9413  -18.8443   19.4754 C   0  0  0  0  0  0
  -28.3904  -18.4158   21.8800 C   0  0  0  0  0  0
  -33.3157  -19.8419   23.5792 C   0  0  0  0  0  0
  -29.0431  -22.2679   20.4440 C   0  0  0  0  0  0
  -29.1972  -23.8950   20.5585 C   0  0  0  0  0  0
  -30.4423  -17.2549   20.8449 C   0  0  0  0  0  0
  -28.1145  -24.9351   19.9967 C   0  0  0  0  0  0
  -29.5367  -18.6271   20.8757 C   0  0  0  0  0  0
  -31.0280  -22.2478   21.7643 N   0  0  0  0  0  0
  -31.3670  -19.5171   22.1448 N   0  0  0  0  0  0
  -29.8806  -15.8432   20.7217 N   0  0  0  0  0  0
  -31.4673  -12.5425   19.1725 H   0  0  0  0  0  0
  -30.3451  -11.4506   19.9349 H   0  0  0  0  0  0
  -29.7824  -11.7616   17.4965 H   0  0  0  0  0  0
  -29.6479  -13.4848   17.7394 H   0  0  0  0  0  0
  -27.8713  -11.3020   18.8727 H   0  0  0  0  0  0
  -27.3783  -12.5776   17.7913 H   0  0  0  0  0  0
  -27.6432  -14.2657   19.5043 H   0  0  0  0  0  0
  -28.7084  -12.1408   21.4195 H   0  0  0  0  0  0
  -28.4278  -13.8192   21.8109 H   0  0  0  0  0  0
  -25.2800   -9.5688   22.4779 H   0  0  0  0  0  0
  -24.0018   -7.4643   22.7493 H   0  0  0  0  0  0
  -21.0875   -8.8809   19.8948 H   0  0  0  0  0  0
  -22.3756  -10.9699   19.6177 H   0  0  0  0  0  0
  -21.1995   -7.6166   23.9736 H   0  0  0  0  0  0
  -21.1487   -6.0534   25.9092 H   0  0  0  0  0  0
  -22.0588   -2.7629   23.2835 H   0  0  0  0  0  0
  -22.4051  -11.9833   22.4771 H   0  0  0  0  0  0
  -21.1085  -13.1249   22.2617 H   0  0  0  0  0  0
  -24.6404  -15.8416   20.5095 H   0  0  0  0  0  0
  -26.2492  -15.6353   20.0410 H   0  0  0  0  0  0
  -26.7201  -32.5415   23.1087 H   0  0  0  0  0  0
  -25.0100  -33.9699   25.0438 H   0  0  0  0  0  0
  -22.7216  -31.3024   21.3983 H   0  0  0  0  0  0
  -23.3751  -35.9614   23.3298 H   0  0  0  0  0  0
  -24.3586  -36.8911   22.2056 H   0  0  0  0  0  0
  -23.7235  -37.6483   23.6669 H   0  0  0  0  0  0
  -26.1020  -31.5365   20.6049 H   0  0  0  0  0  0
  -26.8493  -30.8275   22.0045 H   0  0  0  0  0  0
  -28.1154  -28.9425   21.2073 H   0  0  0  0  0  0
  -25.9698  -25.9275   18.9721 H   0  0  0  0  0  0
  -23.9755  -27.3106   18.9950 H   0  0  0  0  0  0
  -23.7600  -30.5879   19.4020 H   0  0  0  0  0  0
  -22.7594  -29.2432   19.8590 H   0  0  0  0  0  0
  -25.1293  -36.1926   25.0820 H   0  0  0  0  0  0
  -20.9990  -28.3268   24.1385 H   0  0  0  0  0  0
  -20.5670  -26.2301   23.3605 H   0  0  0  0  0  0
  -21.6647  -26.7428   22.1198 H   0  0  0  0  0  0
  -19.6919  -25.6289   21.1232 H   0  0  0  0  0  0
  -19.6696  -27.3190   20.6727 H   0  0  0  0  0  0
  -17.4205  -26.6678   21.4013 H   0  0  0  0  0  0
  -18.0338  -26.0056   22.9002 H   0  0  0  0  0  0
  -19.7936  -30.7278   24.2242 H   0  0  0  0  0  0
  -17.5011  -31.6252   24.5169 H   0  0  0  0  0  0
  -15.5356  -30.2967   23.7656 H   0  0  0  0  0  0
  -15.8681  -28.0808   22.7061 H   0  0  0  0  0  0
  -24.5931  -30.7005   25.7764 H   0  0  0  0  0  0
  -24.8877  -32.2834   26.4867 H   0  0  0  0  0  0
  -25.8055  -30.8873   27.0225 H   0  0  0  0  0  0
  -26.2940  -29.6745   24.1208 H   0  0  0  0  0  0
  -27.4086  -29.7268   25.4667 H   0  0  0  0  0  0
  -27.8791  -30.4316   23.9388 H   0  0  0  0  0  0
  -27.2698  -33.3626   26.2043 H   0  0  0  0  0  0
  -28.3885  -32.6830   25.0316 H   0  0  0  0  0  0
  -28.0721  -31.8440   26.5420 H   0  0  0  0  0  0
  -28.2585  -38.0103   24.7518 H   0  0  0  0  0  0
  -28.1082  -36.2634   24.6285 H   0  0  0  0  0  0
  -27.2296  -37.1443   25.8866 H   0  0  0  0  0  0
  -20.9384  -29.8790   21.6885 H   0  0  0  0  0  0
  -26.0168  -38.2845   24.1403 H   0  0  0  0  0  0
  -32.6888  -22.5067   22.9796 H   0  0  0  0  0  0
  -33.6426  -18.7403   25.4281 H   0  0  0  0  0  0
  -32.1595  -18.2956   24.5962 H   0  0  0  0  0  0
  -32.2443  -19.8173   25.4808 H   0  0  0  0  0  0
  -28.2572  -19.6921   19.4578 H   0  0  0  0  0  0
  -28.3807  -17.9700   19.1409 H   0  0  0  0  0  0
  -29.7232  -19.0299   18.7390 H   0  0  0  0  0  0
  -28.7771  -18.2534   22.8844 H   0  0  0  0  0  0
  -27.7714  -17.5565   21.6244 H   0  0  0  0  0  0
  -27.7381  -19.2880   21.9221 H   0  0  0  0  0  0
  -33.9910  -20.6516   23.8578 H   0  0  0  0  0  0
  -33.9005  -19.1497   22.9721 H   0  0  0  0  0  0
  -28.0717  -21.9767   20.8429 H   0  0  0  0  0  0
  -29.0348  -21.9861   19.3923 H   0  0  0  0  0  0
  -30.1544  -24.1675   20.1120 H   0  0  0  0  0  0
  -29.2956  -24.1426   21.6148 H   0  0  0  0  0  0
  -30.9778  -17.1655   21.7892 H   0  0  0  0  0  0
  -31.2163  -17.3815   20.0863 H   0  0  0  0  0  0
  -27.1643  -24.6596   20.4568 H   0  0  0  0  0  0
  -28.0009  -24.7582   18.9269 H   0  0  0  0  0  0
  -28.8981  -15.7179   20.9118 H   0  0  0  0  0  0
  1 25  1  0  0  0
  1 30  2  0  0  0
  1 86  1  0  0  0
  2  3  1  0  0  0
  2 25  1  0  0  0
  2 87  1  0  0  0
  2 88  1  0  0  0
  3  4  1  0  0  0
  3 89  1  0  0  0
  3 90  1  0  0  0
  4  5  1  0  0  0
  4 91  1  0  0  0
  4 92  1  0  0  0
  5  6  1  0  0  0
  5 26  1  0  0  0
  5 93  1  0  0  0
  6 25  1  0  0  0
  6 94  1  0  0  0
  6 95  1  0  0  0
  7  8  2  0  0  0
  7 26  1  0  0  0
  7 29  1  0  0  0
  8  9  1  0  0  0
  8 22  1  0  0  0
  9 10  1  0  0  0
  9 27  2  0  0  0
 10 11  2  0  0  0
 10 15  1  0  0  0
 11 12  1  0  0  0
 11 96  1  0  0  0
 12 13  2  0  0  0
 12 97  1  0  0  0
 13 14  1  0  0  0
 13 31  1  0  0  0
 14 15  2  0  0  0
 14 98  1  0  0  0
 15 99  1  0  0  0
 16 17  2  0  0  0
 16 21  1  0  0  0
 16 31  1  0  0  0
 17 18  1  0  0  0
 17100  1  0  0  0
 18 19  2  0  0  0
 18101  1  0  0  0
 19 20  1  0  0  0
 19 24  1  0  0  0
 20 21  2  0  0  0
 20102  1  0  0  0
 21 23  1  0  0  0
 22 28  1  0  0  0
 22 32  2  0  0  0
 26 27  1  0  0  0
 28103  1  0  0  0
 28104  1  0  0  0
 29105  1  0  0  0
 29106  1  0  0  0
 33 34  1  0  0  0
 33 66  1  0  0  0
 33 70  2  0  0  0
 34 36  1  0  0  0
 34 59  1  0  0  0
 34107  1  0  0  0
 35 44  2  0  0  0
 35 45  1  0  0  0
 35 68  1  0  0  0
 36 56  1  0  0  0
 36108  1  0  0  0
 37 39  1  0  0  0
 37 47  1  0  0  0
 37 66  1  0  0  0
 37109  1  0  0  0
 38 43  2  0  0  0
 38 46  1  0  0  0
 38 47  1  0  0  0
 39 64  1  0  0  0
 39 67  2  0  0  0
 40 52  1  0  0  0
 40 53  2  0  0  0
 40 58  1  0  0  0
 41110  1  0  0  0
 41111  1  0  0  0
 41112  1  0  0  0
 41 48  1  0  0  0
 42 43  1  0  0  0
 42 66  1  0  0  0
 42113  1  0  0  0
 42114  1  0  0  0
 43 44  1  0  0  0
 44115  1  0  0  0
 45 46  2  0  0  0
 45116  1  0  0  0
 46117  1  0  0  0
 47118  1  0  0  0
 47119  1  0  0  0
 48 56  1  0  0  0
 48 65  1  0  0  0
 48120  1  0  0  0
 49 50  1  0  0  0
 49 53  1  0  0  0
 49 64  1  0  0  0
 49121  1  0  0  0
 50 51  1  0  0  0
 50122  1  0  0  0
 50123  1  0  0  0
 51 52  1  0  0  0
 51124  1  0  0  0
 51125  1  0  0  0
 52126  1  0  0  0
 52127  1  0  0  0
 53 54  1  0  0  0
 54 55  2  0  0  0
 54128  1  0  0  0
 55 57  1  0  0  0
 55129  1  0  0  0
 56 69  2  0  0  0
 57 58  2  0  0  0
 57130  1  0  0  0
 58131  1  0  0  0
 59 60  1  0  0  0
 59 61  1  0  0  0
 59 62  1  0  0  0
 60132  1  0  0  0
 60133  1  0  0  0
 60134  1  0  0  0
 61135  1  0  0  0
 61136  1  0  0  0
 61137  1  0  0  0
 62138  1  0  0  0
 62139  1  0  0  0
 62140  1  0  0  0
 63 65  1  0  0  0
 63141  1  0  0  0
 63142  1  0  0  0
 63143  1  0  0  0
 64144  1  0  0  0
 65145  1  0  0  0
 68 82  1  0  0  0
 71 72  2  0  0  0
 71 84  1  0  0  0
 71146  1  0  0  0
 72 78  1  0  0  0
 72 85  1  0  0  0
 73 74  1  0  0  0
 73 79  1  0  0  0
 73 84  2  0  0  0
 74 83  1  0  0  0
 74 85  2  0  0  0
 75 78  1  0  0  0
 75147  1  0  0  0
 75148  1  0  0  0
 75149  1  0  0  0
 76150  1  0  0  0
 76151  1  0  0  0
 76152  1  0  0  0
 76 83  1  0  0  0
 77 83  1  0  0  0
 77153  1  0  0  0
 77154  1  0  0  0
 77155  1  0  0  0
 78156  1  0  0  0
 78157  1  0  0  0
 79 80  1  0  0  0
 79158  1  0  0  0
 79159  1  0  0  0
 80 82  1  0  0  0
 80160  1  0  0  0
 80161  1  0  0  0
 81 83  1  0  0  0
 81 86  1  0  0  0
 81162  1  0  0  0
 81163  1  0  0  0
 82164  1  0  0  0
 82165  1  0  0  0
 86166  1  0  0  0
M  ISO  4   1 100  68 101  82 101  86 100
M  END
> <chiral flag>
0

> <version>
0

> <s_m_source_file>
/data/baiqing/PycharmProjects/Reinvent-master-3.2/result/LINK_invent/BTK/process_docking_weight1_custom_sum_contain_oxygen_bond_distance_aromatic_linkinvent_7_9_3/rearranged_h_0082.sdf

> <i_m_source_file_index>
38

> <r_mmod_Potential_Energy-OPLS-2005>
191.440322875977

> <r_mmod_Stretch_Energy-OPLS-2005>
134.993850708008

> <r_mmod_Bend_Energy-OPLS-2005>
207.055709838867

> <r_mmod_Torsional_Energy-OPLS-2005>
209.852447509766

> <r_mmod_Improper_Torsional_Energy-OPLS-2005>
4.601646900177

> <r_mmod_Van_der_Waal_Energy-OPLS-2005>
154.60725402832

> <r_mmod_Electrostatic_Energy-OPLS-2005>
-373.009429931641

> <r_mmod_Solvation_Energy-OPLS-2005>
-216.886581420898

> <b_mmod_Minimization_Converged-OPLS-2005>
0

> <r_mmod_RMS_Derivative-OPLS-2005>
2.12543034553528

$$$$
39
                    3D
 Structure written by MMmdl.
172180  0  0  1  0            999 V2000
  -30.8152  -14.2875   20.7578 C   0  0  0  0  0  0
  -30.4125  -12.2897   19.3693 C   0  0  0  0  0  0
  -29.4734  -12.5446   18.1795 C   0  0  0  0  0  0
  -28.0028  -12.3866   18.6033 C   0  0  0  0  0  0
  -27.6665  -13.2031   19.8770 C   0  0  2  0  0  0
  -28.7036  -12.9388   20.9896 C   0  0  0  0  0  0
  -25.2608  -13.8161   20.5670 C   0  0  0  0  0  0
  -24.1848  -13.0441   20.9157 C   0  0  0  0  0  0
  -24.6393  -11.6905   20.8715 C   0  0  0  0  0  0
  -23.9058  -10.4294   21.0396 C   0  0  0  0  0  0
  -24.3608   -9.4211   21.9177 C   0  0  0  0  0  0
  -23.6287   -8.2248   22.0752 C   0  0  0  0  0  0
  -22.4270   -8.0282   21.3543 C   0  0  0  0  0  0
  -21.9901   -9.0252   20.4646 C   0  0  0  0  0  0
  -22.7229  -10.2135   20.3050 C   0  0  0  0  0  0
  -21.6855   -6.0735   22.5278 C   0  0  0  0  0  0
  -21.4014   -6.5638   23.8212 C   0  0  0  0  0  0
  -21.3658   -5.6791   24.9172 C   0  0  0  0  0  0
  -21.6046   -4.3055   24.7221 C   0  0  0  0  0  0
  -21.8819   -3.8146   23.4344 C   0  0  0  0  0  0
  -21.9191   -4.6963   22.3400 C   0  0  0  0  0  0
  -22.7871  -13.5242   21.1832 C   0  0  0  0  0  0
  -22.1660   -4.2149   21.0978 F   0  0  0  0  0  0
  -21.5628   -3.4539   25.7734 F   0  0  0  0  0  0
  -30.0557  -13.2061   20.4590 N   0  0  0  0  0  0
  -26.3047  -12.9326   20.3367 N   0  0  0  0  0  0
  -25.9319  -11.6485   20.5739 N   0  0  0  0  0  0
  -22.0513  -12.8236   22.0390 N   0  0  0  0  0  0
  -25.4346  -15.1878   20.4092 N   0  0  0  0  0  0
  -31.7465  -14.6913   20.0533 O   0  0  0  0  0  0
  -21.6638   -6.8878   21.4241 O   0  0  0  0  0  0
  -22.3555  -14.5554   20.6695 O   0  0  0  0  0  0
  -24.6132  -31.8704   23.2127 C   0  0  0  0  0  0
  -25.9038  -32.4834   23.8409 C   0  0  1  0  0  0
  -27.2309  -27.4563   20.0766 C   0  0  0  0  0  0
  -25.5905  -33.8634   24.2337 N   0  0  0  0  0  0
  -23.3981  -30.4970   21.5540 C   0  0  2  0  0  0
  -24.8408  -28.9676   20.1153 C   0  0  0  0  0  0
  -22.7400  -29.4677   22.5009 C   0  0  0  0  0  0
  -18.0274  -28.1373   22.8493 C   0  0  0  0  0  0
  -24.1484  -36.7311   23.2638 C   0  0  0  0  0  0
  -25.9270  -30.8395   21.3651 C   0  0  0  0  0  0
  -26.0018  -29.4775   20.7089 C   0  0  0  0  0  0
  -27.1986  -28.7290   20.6874 C   0  0  0  0  0  0
  -26.0468  -26.9582   19.4801 C   0  0  0  0  0  0
  -24.8568  -27.7057   19.5018 C   0  0  0  0  0  0
  -23.6034  -29.8329   20.1673 C   0  0  0  0  0  0
  -25.4107  -36.3117   24.0339 C   0  0  1  0  0  0
  -20.5862  -28.3655   23.1330 C   0  0  2  0  0  0
  -20.6767  -26.9395   22.5424 C   0  0  0  0  0  0
  -19.5748  -26.6382   21.5217 C   0  0  0  0  0  0
  -18.1921  -26.7922   22.1619 C   0  0  0  0  0  0
  -19.1522  -28.8831   23.2909 C   0  0  0  0  0  0
  -18.9455  -30.1443   23.8915 C   0  0  0  0  0  0
  -17.6457  -30.6581   24.0574 C   0  0  0  0  0  0
  -25.9037  -34.9483   23.5128 C   0  0  0  0  0  0
  -16.5348  -29.9086   23.6331 C   0  0  0  0  0  0
  -16.7262  -28.6504   23.0344 C   0  0  0  0  0  0
  -26.4473  -31.6612   25.0730 C   0  0  0  0  0  0
  -25.3743  -31.3720   26.1486 C   0  0  0  0  0  0
  -27.0302  -30.3056   24.6093 C   0  0  0  0  0  0
  -27.6050  -32.4336   25.7478 C   0  0  0  0  0  0
  -27.5587  -37.1807   24.8466 C   0  0  0  0  0  0
  -21.4131  -29.3033   22.3746 N   0  0  0  0  0  0
  -26.4293  -37.3801   23.9417 N   0  0  0  0  0  0
  -24.6642  -31.0828   22.1021 N   0  0  0  0  0  0
  -23.4190  -28.8217   23.3036 O   0  0  0  0  0  0
  -28.4142  -26.7478   20.0802 O   0  0  0  0  0  0
  -26.5596  -34.8933   22.4689 O   0  0  0  0  0  0
  -23.5332  -32.1450   23.7541 O   0  0  0  0  0  0
  -29.5549  -19.7627   23.3263 C   0  0  0  0  0  0
  -29.5856  -18.5817   22.5529 C   0  0  0  0  0  0
  -30.2810  -20.9839   21.5043 C   0  0  0  0  0  0
  -30.2959  -19.7951   20.7181 C   0  0  0  0  0  0
  -29.7551  -19.6361   16.8448 C   0  0  0  0  0  0
  -32.5845  -15.1996   23.3503 C   0  0  0  0  0  0
  -29.2187  -17.2423   23.1669 C   0  0  0  0  0  0
  -30.6351  -22.3688   20.9748 C   0  0  0  0  0  0
  -30.6523  -19.7603   19.2375 C   0  0  0  0  0  0
  -29.4070  -19.6773   18.3382 C   0  0  0  0  0  0
  -30.4342  -16.4836   23.7356 C   0  0  0  0  0  0
  -29.4065  -23.1146   20.4290 C   0  0  0  0  0  0
  -29.6020  -24.6383   20.3326 C   0  0  0  0  0  0
  -28.3187  -25.3395   19.8742 C   0  0  0  0  0  0
  -31.3387  -15.8088   22.6843 C   0  0  2  0  0  0
  -29.9005  -20.9617   22.8058 N   0  0  0  0  0  0
  -29.9541  -18.5943   21.2499 N   0  0  0  0  0  0
  -30.5878  -14.7696   21.9853 N   0  0  0  0  0  0
  -31.4538  -12.3997   19.0602 H   0  0  0  0  0  0
  -30.3145  -11.2600   19.7165 H   0  0  0  0  0  0
  -29.7035  -11.8589   17.3633 H   0  0  0  0  0  0
  -29.6380  -13.5509   17.7907 H   0  0  0  0  0  0
  -27.8151  -11.3267   18.7798 H   0  0  0  0  0  0
  -27.3434  -12.6799   17.7856 H   0  0  0  0  0  0
  -27.7275  -14.2585   19.6095 H   0  0  0  0  0  0
  -28.6515  -11.8998   21.3178 H   0  0  0  0  0  0
  -28.4461  -13.5363   21.8645 H   0  0  0  0  0  0
  -25.2757   -9.5689   22.4747 H   0  0  0  0  0  0
  -23.9998   -7.4640   22.7473 H   0  0  0  0  0  0
  -21.0832   -8.8769   19.8954 H   0  0  0  0  0  0
  -22.3687  -10.9668   19.6156 H   0  0  0  0  0  0
  -21.2012   -7.6148   23.9714 H   0  0  0  0  0  0
  -21.1480   -6.0523   25.9075 H   0  0  0  0  0  0
  -22.0601   -2.7608   23.2844 H   0  0  0  0  0  0
  -22.4124  -11.9886   22.4762 H   0  0  0  0  0  0
  -21.1137  -13.1268   22.2613 H   0  0  0  0  0  0
  -24.6727  -15.8480   20.5202 H   0  0  0  0  0  0
  -26.2981  -15.6248   20.1112 H   0  0  0  0  0  0
  -26.7107  -32.5543   23.1172 H   0  0  0  0  0  0
  -25.0088  -33.9811   25.0503 H   0  0  0  0  0  0
  -22.6852  -31.3133   21.4184 H   0  0  0  0  0  0
  -23.3750  -35.9640   23.3310 H   0  0  0  0  0  0
  -24.3574  -36.8913   22.2051 H   0  0  0  0  0  0
  -23.7233  -37.6518   23.6644 H   0  0  0  0  0  0
  -26.0419  -31.6080   20.5995 H   0  0  0  0  0  0
  -26.8150  -30.8869   21.9843 H   0  0  0  0  0  0
  -28.0960  -29.1213   21.1450 H   0  0  0  0  0  0
  -26.0199  -25.9993   18.9838 H   0  0  0  0  0  0
  -23.9644  -27.3075   19.0389 H   0  0  0  0  0  0
  -23.7122  -30.6098   19.4098 H   0  0  0  0  0  0
  -22.7265  -29.2551   19.8700 H   0  0  0  0  0  0
  -25.1277  -36.1979   25.0829 H   0  0  0  0  0  0
  -20.9955  -28.3214   24.1449 H   0  0  0  0  0  0
  -20.5676  -26.2259   23.3606 H   0  0  0  0  0  0
  -21.6640  -26.7442   22.1215 H   0  0  0  0  0  0
  -19.6914  -25.6298   21.1235 H   0  0  0  0  0  0
  -19.6694  -27.3211   20.6762 H   0  0  0  0  0  0
  -17.4199  -26.6691   21.4010 H   0  0  0  0  0  0
  -18.0303  -26.0045   22.8993 H   0  0  0  0  0  0
  -19.7936  -30.7258   24.2279 H   0  0  0  0  0  0
  -17.5016  -31.6262   24.5177 H   0  0  0  0  0  0
  -15.5356  -30.3001   23.7642 H   0  0  0  0  0  0
  -15.8657  -28.0844   22.7035 H   0  0  0  0  0  0
  -24.5914  -30.7061   25.7838 H   0  0  0  0  0  0
  -24.8941  -32.2883   26.4936 H   0  0  0  0  0  0
  -25.8104  -30.8901   27.0246 H   0  0  0  0  0  0
  -26.2842  -29.6817   24.1161 H   0  0  0  0  0  0
  -27.4106  -29.7288   25.4535 H   0  0  0  0  0  0
  -27.8656  -30.4384   23.9210 H   0  0  0  0  0  0
  -27.2668  -33.3626   26.2082 H   0  0  0  0  0  0
  -28.3837  -32.6923   25.0288 H   0  0  0  0  0  0
  -28.0746  -31.8453   26.5374 H   0  0  0  0  0  0
  -28.2607  -38.0106   24.7525 H   0  0  0  0  0  0
  -28.1085  -36.2641   24.6267 H   0  0  0  0  0  0
  -27.2316  -37.1426   25.8873 H   0  0  0  0  0  0
  -20.9283  -29.8754   21.6974 H   0  0  0  0  0  0
  -26.0184  -38.2877   24.1429 H   0  0  0  0  0  0
  -29.2614  -19.7452   24.3658 H   0  0  0  0  0  0
  -28.8522  -19.5759   16.2360 H   0  0  0  0  0  0
  -30.3726  -18.7697   16.6059 H   0  0  0  0  0  0
  -30.3000  -20.5301   16.5398 H   0  0  0  0  0  0
  -33.1695  -15.9651   23.8617 H   0  0  0  0  0  0
  -33.2410  -14.7292   22.6171 H   0  0  0  0  0  0
  -32.3155  -14.4433   24.0894 H   0  0  0  0  0  0
  -28.6802  -16.6355   22.4381 H   0  0  0  0  0  0
  -28.5090  -17.4275   23.9743 H   0  0  0  0  0  0
  -31.4299  -22.3285   20.2322 H   0  0  0  0  0  0
  -31.0588  -22.9384   21.8033 H   0  0  0  0  0  0
  -31.2869  -18.8909   19.0593 H   0  0  0  0  0  0
  -31.2578  -20.6191   18.9563 H   0  0  0  0  0  0
  -28.8313  -18.7873   18.5957 H   0  0  0  0  0  0
  -28.7550  -20.5288   18.5327 H   0  0  0  0  0  0
  -30.0698  -15.7168   24.4211 H   0  0  0  0  0  0
  -31.0208  -17.1671   24.3517 H   0  0  0  0  0  0
  -28.5626  -22.9261   21.0948 H   0  0  0  0  0  0
  -29.1233  -22.7036   19.4598 H   0  0  0  0  0  0
  -30.4211  -24.8787   19.6540 H   0  0  0  0  0  0
  -29.8853  -25.0240   21.3128 H   0  0  0  0  0  0
  -27.4831  -24.9388   20.4517 H   0  0  0  0  0  0
  -28.1318  -25.1220   18.8216 H   0  0  0  0  0  0
  -31.6689  -16.5594   21.9634 H   0  0  0  0  0  0
  -29.8485  -14.3136   22.4990 H   0  0  0  0  0  0
  1 25  1  0  0  0
  1 30  2  0  0  0
  1 88  1  0  0  0
  2  3  1  0  0  0
  2 25  1  0  0  0
  2 89  1  0  0  0
  2 90  1  0  0  0
  3  4  1  0  0  0
  3 91  1  0  0  0
  3 92  1  0  0  0
  4  5  1  0  0  0
  4 93  1  0  0  0
  4 94  1  0  0  0
  5  6  1  0  0  0
  5 26  1  0  0  0
  5 95  1  0  0  0
  6 25  1  0  0  0
  6 96  1  0  0  0
  6 97  1  0  0  0
  7  8  2  0  0  0
  7 26  1  0  0  0
  7 29  1  0  0  0
  8  9  1  0  0  0
  8 22  1  0  0  0
  9 10  1  0  0  0
  9 27  2  0  0  0
 10 11  2  0  0  0
 10 15  1  0  0  0
 11 12  1  0  0  0
 11 98  1  0  0  0
 12 13  2  0  0  0
 12 99  1  0  0  0
 13 14  1  0  0  0
 13 31  1  0  0  0
 14 15  2  0  0  0
 14100  1  0  0  0
 15101  1  0  0  0
 16 17  2  0  0  0
 16 21  1  0  0  0
 16 31  1  0  0  0
 17 18  1  0  0  0
 17102  1  0  0  0
 18 19  2  0  0  0
 18103  1  0  0  0
 19 20  1  0  0  0
 19 24  1  0  0  0
 20 21  2  0  0  0
 20104  1  0  0  0
 21 23  1  0  0  0
 22 28  1  0  0  0
 22 32  2  0  0  0
 26 27  1  0  0  0
 28105  1  0  0  0
 28106  1  0  0  0
 29107  1  0  0  0
 29108  1  0  0  0
 33 34  1  0  0  0
 33 66  1  0  0  0
 33 70  2  0  0  0
 34 36  1  0  0  0
 34 59  1  0  0  0
 34109  1  0  0  0
 35 44  2  0  0  0
 35 45  1  0  0  0
 35 68  1  0  0  0
 36 56  1  0  0  0
 36110  1  0  0  0
 37 39  1  0  0  0
 37 47  1  0  0  0
 37 66  1  0  0  0
 37111  1  0  0  0
 38 43  2  0  0  0
 38 46  1  0  0  0
 38 47  1  0  0  0
 39 64  1  0  0  0
 39 67  2  0  0  0
 40 52  1  0  0  0
 40 53  2  0  0  0
 40 58  1  0  0  0
 41112  1  0  0  0
 41113  1  0  0  0
 41114  1  0  0  0
 41 48  1  0  0  0
 42 43  1  0  0  0
 42 66  1  0  0  0
 42115  1  0  0  0
 42116  1  0  0  0
 43 44  1  0  0  0
 44117  1  0  0  0
 45 46  2  0  0  0
 45118  1  0  0  0
 46119  1  0  0  0
 47120  1  0  0  0
 47121  1  0  0  0
 48 56  1  0  0  0
 48 65  1  0  0  0
 48122  1  0  0  0
 49 50  1  0  0  0
 49 53  1  0  0  0
 49 64  1  0  0  0
 49123  1  0  0  0
 50 51  1  0  0  0
 50124  1  0  0  0
 50125  1  0  0  0
 51 52  1  0  0  0
 51126  1  0  0  0
 51127  1  0  0  0
 52128  1  0  0  0
 52129  1  0  0  0
 53 54  1  0  0  0
 54 55  2  0  0  0
 54130  1  0  0  0
 55 57  1  0  0  0
 55131  1  0  0  0
 56 69  2  0  0  0
 57 58  2  0  0  0
 57132  1  0  0  0
 58133  1  0  0  0
 59 60  1  0  0  0
 59 61  1  0  0  0
 59 62  1  0  0  0
 60134  1  0  0  0
 60135  1  0  0  0
 60136  1  0  0  0
 61137  1  0  0  0
 61138  1  0  0  0
 61139  1  0  0  0
 62140  1  0  0  0
 62141  1  0  0  0
 62142  1  0  0  0
 63 65  1  0  0  0
 63143  1  0  0  0
 63144  1  0  0  0
 63145  1  0  0  0
 64146  1  0  0  0
 65147  1  0  0  0
 68 84  1  0  0  0
 71 72  2  0  0  0
 71 86  1  0  0  0
 71148  1  0  0  0
 72 77  1  0  0  0
 72 87  1  0  0  0
 73 74  1  0  0  0
 73 78  1  0  0  0
 73 86  2  0  0  0
 74 79  1  0  0  0
 74 87  2  0  0  0
 75 80  1  0  0  0
 75149  1  0  0  0
 75150  1  0  0  0
 75151  1  0  0  0
 76152  1  0  0  0
 76153  1  0  0  0
 76154  1  0  0  0
 76 85  1  0  0  0
 77 81  1  0  0  0
 77155  1  0  0  0
 77156  1  0  0  0
 78 82  1  0  0  0
 78157  1  0  0  0
 78158  1  0  0  0
 79 80  1  0  0  0
 79159  1  0  0  0
 79160  1  0  0  0
 80161  1  0  0  0
 80162  1  0  0  0
 81 85  1  0  0  0
 81163  1  0  0  0
 81164  1  0  0  0
 82 83  1  0  0  0
 82165  1  0  0  0
 82166  1  0  0  0
 83 84  1  0  0  0
 83167  1  0  0  0
 83168  1  0  0  0
 84169  1  0  0  0
 84170  1  0  0  0
 85 88  1  0  0  0
 85171  1  0  0  0
 88172  1  0  0  0
M  ISO  4   1 100  68 101  84 101  88 100
M  END
> <chiral flag>
0

> <version>
0

> <s_m_source_file>
/data/baiqing/PycharmProjects/Reinvent-master-3.2/result/LINK_invent/BTK/process_docking_weight1_custom_sum_contain_oxygen_bond_distance_aromatic_linkinvent_7_9_3/rearranged_h_0082.sdf

> <i_m_source_file_index>
39

> <r_mmod_Potential_Energy-OPLS-2005>
-45.6485328674316

> <r_mmod_Stretch_Energy-OPLS-2005>
34.0704383850098

> <r_mmod_Bend_Energy-OPLS-2005>
92.7069778442383

> <r_mmod_Torsional_Energy-OPLS-2005>
181.160202026367

> <r_mmod_Improper_Torsional_Energy-OPLS-2005>
3.60340213775635

> <r_mmod_Van_der_Waal_Energy-OPLS-2005>
153.639038085938

> <r_mmod_Electrostatic_Energy-OPLS-2005>
-308.050018310547

> <r_mmod_Solvation_Energy-OPLS-2005>
-212.225708007812

> <b_mmod_Minimization_Converged-OPLS-2005>
0

> <r_mmod_RMS_Derivative-OPLS-2005>
0.850172162055969

$$$$
40
                    3D
 Structure written by MMmdl.
169177  0  0  1  0            999 V2000
  -30.6182  -14.7458   20.4531 C   0  0  0  0  0  0
  -30.4318  -12.4563   19.4728 C   0  0  0  0  0  0
  -29.5093  -12.5063   18.2350 C   0  0  0  0  0  0
  -28.0359  -12.3302   18.6507 C   0  0  0  0  0  0
  -27.6414  -13.2340   19.8497 C   0  0  2  0  0  0
  -28.6873  -13.1719   20.9849 C   0  0  0  0  0  0
  -25.2510  -13.8201   20.5707 C   0  0  0  0  0  0
  -24.1804  -13.0437   20.9218 C   0  0  0  0  0  0
  -24.6400  -11.6919   20.8753 C   0  0  0  0  0  0
  -23.9082  -10.4286   21.0413 C   0  0  0  0  0  0
  -24.3627   -9.4198   21.9188 C   0  0  0  0  0  0
  -23.6298   -8.2232   22.0757 C   0  0  0  0  0  0
  -22.4279   -8.0273   21.3551 C   0  0  0  0  0  0
  -21.9917   -9.0249   20.4651 C   0  0  0  0  0  0
  -22.7251  -10.2128   20.3059 C   0  0  0  0  0  0
  -21.6850   -6.0735   22.5285 C   0  0  0  0  0  0
  -21.4012   -6.5645   23.8218 C   0  0  0  0  0  0
  -21.3659   -5.6800   24.9184 C   0  0  0  0  0  0
  -21.6039   -4.3061   24.7233 C   0  0  0  0  0  0
  -21.8819   -3.8149   23.4357 C   0  0  0  0  0  0
  -21.9196   -4.6966   22.3412 C   0  0  0  0  0  0
  -22.7819  -13.5208   21.1882 C   0  0  0  0  0  0
  -22.1658   -4.2148   21.0986 F   0  0  0  0  0  0
  -21.5637   -3.4547   25.7750 F   0  0  0  0  0  0
  -29.9880  -13.5217   20.4024 N   0  0  0  0  0  0
  -26.2937  -12.9416   20.3288 N   0  0  0  0  0  0
  -25.9328  -11.6557   20.5758 N   0  0  0  0  0  0
  -22.0480  -12.8175   22.0434 N   0  0  0  0  0  0
  -25.4197  -15.1923   20.4125 N   0  0  0  0  0  0
  -31.8043  -14.8367   20.1269 O   0  0  0  0  0  0
  -21.6637   -6.8876   21.4246 O   0  0  0  0  0  0
  -22.3489  -14.5510   20.6748 O   0  0  0  0  0  0
  -24.6320  -31.8538   23.1969 C   0  0  0  0  0  0
  -25.9145  -32.4739   23.8316 C   0  0  1  0  0  0
  -27.2200  -27.2564   20.1275 C   0  0  0  0  0  0
  -25.5941  -33.8542   24.2235 N   0  0  0  0  0  0
  -23.4280  -30.4758   21.5415 C   0  0  2  0  0  0
  -24.8755  -28.9230   20.1097 C   0  0  0  0  0  0
  -22.7502  -29.4589   22.4920 C   0  0  0  0  0  0
  -18.0295  -28.1374   22.8487 C   0  0  0  0  0  0
  -24.1498  -36.7277   23.2637 C   0  0  0  0  0  0
  -25.9754  -30.7652   21.3788 C   0  0  0  0  0  0
  -26.0484  -29.3889   20.7175 C   0  0  0  0  0  0
  -27.2237  -28.5691   20.7131 C   0  0  0  0  0  0
  -26.0217  -26.8615   19.4906 C   0  0  0  0  0  0
  -24.8680  -27.6678   19.4848 C   0  0  0  0  0  0
  -23.6447  -29.8068   20.1591 C   0  0  0  0  0  0
  -25.4124  -36.3050   24.0318 C   0  0  1  0  0  0
  -20.5898  -28.3678   23.1276 C   0  0  2  0  0  0
  -20.6782  -26.9397   22.5409 C   0  0  0  0  0  0
  -19.5758  -26.6372   21.5213 C   0  0  0  0  0  0
  -18.1936  -26.7920   22.1621 C   0  0  0  0  0  0
  -19.1547  -28.8848   23.2872 C   0  0  0  0  0  0
  -18.9462  -30.1456   23.8876 C   0  0  0  0  0  0
  -17.6458  -30.6574   24.0555 C   0  0  0  0  0  0
  -25.9065  -34.9426   23.5075 C   0  0  0  0  0  0
  -16.5352  -29.9060   23.6340 C   0  0  0  0  0  0
  -16.7282  -28.6481   23.0358 C   0  0  0  0  0  0
  -26.4509  -31.6571   25.0715 C   0  0  0  0  0  0
  -25.3727  -31.3731   26.1429 C   0  0  0  0  0  0
  -27.0363  -30.2980   24.6230 C   0  0  0  0  0  0
  -27.6045  -32.4326   25.7500 C   0  0  0  0  0  0
  -27.5584  -37.1790   24.8459 C   0  0  0  0  0  0
  -21.4211  -29.3023   22.3660 N   0  0  0  0  0  0
  -26.4295  -37.3753   23.9403 N   0  0  0  0  0  0
  -24.6973  -31.0500   22.0945 N   0  0  0  0  0  0
  -23.4204  -28.8140   23.3025 O   0  0  0  0  0  0
  -28.3129  -26.3561   20.1871 O   0  0  0  0  0  0
  -26.5631  -34.8904   22.4644 O   0  0  0  0  0  0
  -23.5472  -32.1365   23.7268 O   0  0  0  0  0  0
  -29.0046  -21.6589   18.2866 C   0  0  0  0  0  0
  -29.0419  -20.6498   17.3740 C   0  0  0  0  0  0
  -29.0317  -19.4341   18.1380 C   0  0  0  0  0  0
  -29.1735  -19.7347   19.4818 C   0  0  0  0  0  0
  -28.8617  -18.0376   17.5746 C   0  0  0  0  0  0
  -30.1215  -21.9512   15.5214 C   0  0  0  0  0  0
  -27.6550  -21.4933   15.4668 C   0  0  0  0  0  0
  -29.3002  -19.6753   14.9905 C   0  0  0  0  0  0
  -29.2899  -18.6182   20.5928 C   0  0  0  0  0  0
  -29.1894  -23.7797   20.4569 C   0  0  0  0  0  0
  -28.9000  -22.1833   20.7046 C   0  0  0  0  0  0
  -30.2910  -17.3425   20.3765 C   0  0  0  0  0  0
  -28.0481  -24.8718   20.1102 C   0  0  0  0  0  0
  -29.0272  -20.9165   15.8610 C   0  0  0  0  0  0
  -29.0476  -21.1823   19.5780 N   0  0  0  0  0  0
  -29.8629  -15.8939   20.6479 N   0  0  0  0  0  0
  -31.4736  -12.5754   19.1706 H   0  0  0  0  0  0
  -30.3753  -11.4816   19.9590 H   0  0  0  0  0  0
  -29.7899  -11.7296   17.5220 H   0  0  0  0  0  0
  -29.6350  -13.4585   17.7171 H   0  0  0  0  0  0
  -27.8934  -11.2825   18.9186 H   0  0  0  0  0  0
  -27.3779  -12.5179   17.8016 H   0  0  0  0  0  0
  -27.6339  -14.2539   19.4632 H   0  0  0  0  0  0
  -28.7239  -12.1741   21.4262 H   0  0  0  0  0  0
  -28.4244  -13.8538   21.7951 H   0  0  0  0  0  0
  -25.2772   -9.5672   22.4762 H   0  0  0  0  0  0
  -24.0020   -7.4616   22.7464 H   0  0  0  0  0  0
  -21.0859   -8.8763   19.8941 H   0  0  0  0  0  0
  -22.3718  -10.9665   19.6168 H   0  0  0  0  0  0
  -21.1991   -7.6154   23.9721 H   0  0  0  0  0  0
  -21.1486   -6.0533   25.9086 H   0  0  0  0  0  0
  -22.0597   -2.7615   23.2860 H   0  0  0  0  0  0
  -22.4115  -11.9844   22.4817 H   0  0  0  0  0  0
  -21.1093  -13.1174   22.2650 H   0  0  0  0  0  0
  -24.6498  -15.8436   20.5215 H   0  0  0  0  0  0
  -26.2621  -15.6317   20.0649 H   0  0  0  0  0  0
  -26.7207  -32.5381   23.1053 H   0  0  0  0  0  0
  -25.0099  -33.9672   25.0385 H   0  0  0  0  0  0
  -22.7237  -31.2972   21.3939 H   0  0  0  0  0  0
  -23.3757  -35.9612   23.3283 H   0  0  0  0  0  0
  -24.3588  -36.8921   22.2054 H   0  0  0  0  0  0
  -23.7258  -37.6473   23.6681 H   0  0  0  0  0  0
  -26.1196  -31.5281   20.6127 H   0  0  0  0  0  0
  -26.8506  -30.8083   22.0159 H   0  0  0  0  0  0
  -28.1206  -28.9196   21.2048 H   0  0  0  0  0  0
  -25.9424  -25.9031   19.0014 H   0  0  0  0  0  0
  -23.9701  -27.3040   19.0040 H   0  0  0  0  0  0
  -23.7598  -30.5785   19.3977 H   0  0  0  0  0  0
  -22.7652  -29.2326   19.8622 H   0  0  0  0  0  0
  -25.1311  -36.1886   25.0810 H   0  0  0  0  0  0
  -20.9995  -28.3252   24.1396 H   0  0  0  0  0  0
  -20.5691  -26.2280   23.3605 H   0  0  0  0  0  0
  -21.6647  -26.7420   22.1196 H   0  0  0  0  0  0
  -19.6915  -25.6281   21.1238 H   0  0  0  0  0  0
  -19.6703  -27.3188   20.6747 H   0  0  0  0  0  0
  -17.4213  -26.6683   21.4015 H   0  0  0  0  0  0
  -18.0324  -26.0057   22.9010 H   0  0  0  0  0  0
  -19.7935  -30.7289   24.2226 H   0  0  0  0  0  0
  -17.5004  -31.6258   24.5150 H   0  0  0  0  0  0
  -15.5347  -30.2945   23.7678 H   0  0  0  0  0  0
  -15.8688  -28.0793   22.7079 H   0  0  0  0  0  0
  -24.5905  -30.7077   25.7757 H   0  0  0  0  0  0
  -24.8923  -32.2907   26.4832 H   0  0  0  0  0  0
  -25.8044  -30.8922   27.0214 H   0  0  0  0  0  0
  -26.2959  -29.6712   24.1245 H   0  0  0  0  0  0
  -27.4011  -29.7260   25.4770 H   0  0  0  0  0  0
  -27.8849  -30.4228   23.9501 H   0  0  0  0  0  0
  -27.2626  -33.3621   26.2063 H   0  0  0  0  0  0
  -28.3870  -32.6897   25.0348 H   0  0  0  0  0  0
  -28.0699  -31.8466   26.5433 H   0  0  0  0  0  0
  -28.2579  -38.0108   24.7513 H   0  0  0  0  0  0
  -28.1103  -36.2634   24.6276 H   0  0  0  0  0  0
  -27.2299  -37.1425   25.8860 H   0  0  0  0  0  0
  -20.9398  -29.8723   21.6842 H   0  0  0  0  0  0
  -26.0166  -38.2823   24.1402 H   0  0  0  0  0  0
  -28.9269  -22.7198   18.0998 H   0  0  0  0  0  0
  -29.7714  -17.6973   17.0791 H   0  0  0  0  0  0
  -28.0345  -18.0093   16.8688 H   0  0  0  0  0  0
  -28.5955  -17.3113   18.3392 H   0  0  0  0  0  0
  -29.9641  -22.9051   16.0250 H   0  0  0  0  0  0
  -30.1521  -22.1641   14.4525 H   0  0  0  0  0  0
  -31.1094  -21.5881   15.8083 H   0  0  0  0  0  0
  -27.4376  -22.4198   15.9993 H   0  0  0  0  0  0
  -26.8503  -20.7924   15.6928 H   0  0  0  0  0  0
  -27.6074  -21.7165   14.4004 H   0  0  0  0  0  0
  -30.2235  -19.1730   15.2786 H   0  0  0  0  0  0
  -29.4033  -19.9515   13.9407 H   0  0  0  0  0  0
  -28.4845  -18.9567   15.0230 H   0  0  0  0  0  0
  -28.2876  -18.2241   20.7640 H   0  0  0  0  0  0
  -29.5534  -19.0970   21.5368 H   0  0  0  0  0  0
  -30.0120  -23.8902   19.7496 H   0  0  0  0  0  0
  -29.6143  -24.1313   21.3972 H   0  0  0  0  0  0
  -27.9012  -22.0666   21.1251 H   0  0  0  0  0  0
  -29.5794  -21.8484   21.4890 H   0  0  0  0  0  0
  -31.1757  -17.5269   20.9871 H   0  0  0  0  0  0
  -30.6847  -17.3657   19.3615 H   0  0  0  0  0  0
  -27.2062  -24.6644   20.7719 H   0  0  0  0  0  0
  -27.7017  -24.6438   19.1025 H   0  0  0  0  0  0
  -28.8966  -15.7505   20.8982 H   0  0  0  0  0  0
  1 25  1  0  0  0
  1 30  2  0  0  0
  1 86  1  0  0  0
  2  3  1  0  0  0
  2 25  1  0  0  0
  2 87  1  0  0  0
  2 88  1  0  0  0
  3  4  1  0  0  0
  3 89  1  0  0  0
  3 90  1  0  0  0
  4  5  1  0  0  0
  4 91  1  0  0  0
  4 92  1  0  0  0
  5  6  1  0  0  0
  5 26  1  0  0  0
  5 93  1  0  0  0
  6 25  1  0  0  0
  6 94  1  0  0  0
  6 95  1  0  0  0
  7  8  2  0  0  0
  7 26  1  0  0  0
  7 29  1  0  0  0
  8  9  1  0  0  0
  8 22  1  0  0  0
  9 10  1  0  0  0
  9 27  2  0  0  0
 10 11  2  0  0  0
 10 15  1  0  0  0
 11 12  1  0  0  0
 11 96  1  0  0  0
 12 13  2  0  0  0
 12 97  1  0  0  0
 13 14  1  0  0  0
 13 31  1  0  0  0
 14 15  2  0  0  0
 14 98  1  0  0  0
 15 99  1  0  0  0
 16 17  2  0  0  0
 16 21  1  0  0  0
 16 31  1  0  0  0
 17 18  1  0  0  0
 17100  1  0  0  0
 18 19  2  0  0  0
 18101  1  0  0  0
 19 20  1  0  0  0
 19 24  1  0  0  0
 20 21  2  0  0  0
 20102  1  0  0  0
 21 23  1  0  0  0
 22 28  1  0  0  0
 22 32  2  0  0  0
 26 27  1  0  0  0
 28103  1  0  0  0
 28104  1  0  0  0
 29105  1  0  0  0
 29106  1  0  0  0
 33 34  1  0  0  0
 33 66  1  0  0  0
 33 70  2  0  0  0
 34 36  1  0  0  0
 34 59  1  0  0  0
 34107  1  0  0  0
 35 44  2  0  0  0
 35 45  1  0  0  0
 35 68  1  0  0  0
 36 56  1  0  0  0
 36108  1  0  0  0
 37 39  1  0  0  0
 37 47  1  0  0  0
 37 66  1  0  0  0
 37109  1  0  0  0
 38 43  2  0  0  0
 38 46  1  0  0  0
 38 47  1  0  0  0
 39 64  1  0  0  0
 39 67  2  0  0  0
 40 52  1  0  0  0
 40 53  2  0  0  0
 40 58  1  0  0  0
 41110  1  0  0  0
 41111  1  0  0  0
 41112  1  0  0  0
 41 48  1  0  0  0
 42 43  1  0  0  0
 42 66  1  0  0  0
 42113  1  0  0  0
 42114  1  0  0  0
 43 44  1  0  0  0
 44115  1  0  0  0
 45 46  2  0  0  0
 45116  1  0  0  0
 46117  1  0  0  0
 47118  1  0  0  0
 47119  1  0  0  0
 48 56  1  0  0  0
 48 65  1  0  0  0
 48120  1  0  0  0
 49 50  1  0  0  0
 49 53  1  0  0  0
 49 64  1  0  0  0
 49121  1  0  0  0
 50 51  1  0  0  0
 50122  1  0  0  0
 50123  1  0  0  0
 51 52  1  0  0  0
 51124  1  0  0  0
 51125  1  0  0  0
 52126  1  0  0  0
 52127  1  0  0  0
 53 54  1  0  0  0
 54 55  2  0  0  0
 54128  1  0  0  0
 55 57  1  0  0  0
 55129  1  0  0  0
 56 69  2  0  0  0
 57 58  2  0  0  0
 57130  1  0  0  0
 58131  1  0  0  0
 59 60  1  0  0  0
 59 61  1  0  0  0
 59 62  1  0  0  0
 60132  1  0  0  0
 60133  1  0  0  0
 60134  1  0  0  0
 61135  1  0  0  0
 61136  1  0  0  0
 61137  1  0  0  0
 62138  1  0  0  0
 62139  1  0  0  0
 62140  1  0  0  0
 63 65  1  0  0  0
 63141  1  0  0  0
 63142  1  0  0  0
 63143  1  0  0  0
 64144  1  0  0  0
 65145  1  0  0  0
 68 83  1  0  0  0
 71 72  2  0  0  0
 71 85  1  0  0  0
 71146  1  0  0  0
 72 73  1  0  0  0
 72 84  1  0  0  0
 73 74  2  0  0  0
 73 75  1  0  0  0
 74 79  1  0  0  0
 74 85  1  0  0  0
 75147  1  0  0  0
 75148  1  0  0  0
 75149  1  0  0  0
 76150  1  0  0  0
 76151  1  0  0  0
 76152  1  0  0  0
 76 84  1  0  0  0
 77 84  1  0  0  0
 77153  1  0  0  0
 77154  1  0  0  0
 77155  1  0  0  0
 78 84  1  0  0  0
 78156  1  0  0  0
 78157  1  0  0  0
 78158  1  0  0  0
 79 82  1  0  0  0
 79159  1  0  0  0
 79160  1  0  0  0
 80 81  1  0  0  0
 80 83  1  0  0  0
 80161  1  0  0  0
 80162  1  0  0  0
 81 85  1  0  0  0
 81163  1  0  0  0
 81164  1  0  0  0
 82 86  1  0  0  0
 82165  1  0  0  0
 82166  1  0  0  0
 83167  1  0  0  0
 83168  1  0  0  0
 86169  1  0  0  0
M  ISO  4   1 100  68 101  83 101  86 100
M  END
> <chiral flag>
0

> <version>
0

> <s_m_source_file>
/data/baiqing/PycharmProjects/Reinvent-master-3.2/result/LINK_invent/BTK/process_docking_weight1_custom_sum_contain_oxygen_bond_distance_aromatic_linkinvent_7_9_3/rearranged_h_0082.sdf

> <i_m_source_file_index>
40

> <r_mmod_Potential_Energy-OPLS-2005>
148.936553955078

> <r_mmod_Stretch_Energy-OPLS-2005>
138.936492919922

> <r_mmod_Bend_Energy-OPLS-2005>
207.215850830078

> <r_mmod_Torsional_Energy-OPLS-2005>
248.115859985352

> <r_mmod_Improper_Torsional_Energy-OPLS-2005>
5.78858327865601

> <r_mmod_Van_der_Waal_Energy-OPLS-2005>
126.515296936035

> <r_mmod_Electrostatic_Energy-OPLS-2005>
-455.332550048828

> <r_mmod_Solvation_Energy-OPLS-2005>
-209.699798583984

> <b_mmod_Minimization_Converged-OPLS-2005>
0

> <r_mmod_RMS_Derivative-OPLS-2005>
1.26758658885956

$$$$
41
                    3D
 Structure written by MMmdl.
165173  0  0  1  0            999 V2000
  -30.7289  -14.4206   20.5833 C   0  0  0  0  0  0
  -30.4100  -12.2783   19.4215 C   0  0  0  0  0  0
  -29.4873  -12.4986   18.2055 C   0  0  0  0  0  0
  -28.0093  -12.3678   18.6199 C   0  0  0  0  0  0
  -27.6622  -13.2067   19.8796 C   0  0  2  0  0  0
  -28.7010  -12.9793   21.0016 C   0  0  0  0  0  0
  -25.2576  -13.8166   20.5681 C   0  0  0  0  0  0
  -24.1822  -13.0442   20.9175 C   0  0  0  0  0  0
  -24.6376  -11.6908   20.8730 C   0  0  0  0  0  0
  -23.9047  -10.4292   21.0402 C   0  0  0  0  0  0
  -24.3603   -9.4213   21.9178 C   0  0  0  0  0  0
  -23.6280   -8.2245   22.0754 C   0  0  0  0  0  0
  -22.4266   -8.0279   21.3541 C   0  0  0  0  0  0
  -21.9898   -9.0251   20.4642 C   0  0  0  0  0  0
  -22.7221  -10.2130   20.3047 C   0  0  0  0  0  0
  -21.6850   -6.0729   22.5275 C   0  0  0  0  0  0
  -21.4012   -6.5637   23.8208 C   0  0  0  0  0  0
  -21.3661   -5.6789   24.9172 C   0  0  0  0  0  0
  -21.6044   -4.3053   24.7226 C   0  0  0  0  0  0
  -21.8820   -3.8142   23.4344 C   0  0  0  0  0  0
  -21.9193   -4.6956   22.3399 C   0  0  0  0  0  0
  -22.7845  -13.5233   21.1839 C   0  0  0  0  0  0
  -22.1660   -4.2144   21.0972 F   0  0  0  0  0  0
  -21.5634   -3.4537   25.7740 F   0  0  0  0  0  0
  -30.0368  -13.2603   20.4511 N   0  0  0  0  0  0
  -26.3022  -12.9346   20.3399 N   0  0  0  0  0  0
  -25.9307  -11.6504   20.5776 N   0  0  0  0  0  0
  -22.0493  -12.8222   22.0401 N   0  0  0  0  0  0
  -25.4311  -15.1884   20.4101 N   0  0  0  0  0  0
  -31.8448  -14.5932   20.0851 O   0  0  0  0  0  0
  -21.6634   -6.8870   21.4232 O   0  0  0  0  0  0
  -22.3534  -14.5550   20.6703 O   0  0  0  0  0  0
  -24.6097  -31.8718   23.2113 C   0  0  0  0  0  0
  -25.9009  -32.4847   23.8404 C   0  0  1  0  0  0
  -27.2285  -27.4590   20.0991 C   0  0  0  0  0  0
  -25.5870  -33.8636   24.2341 N   0  0  0  0  0  0
  -23.3970  -30.4944   21.5548 C   0  0  2  0  0  0
  -24.8438  -28.9629   20.1173 C   0  0  0  0  0  0
  -22.7390  -29.4675   22.5036 C   0  0  0  0  0  0
  -18.0259  -28.1355   22.8502 C   0  0  0  0  0  0
  -24.1489  -36.7328   23.2635 C   0  0  0  0  0  0
  -25.9231  -30.8438   21.3617 C   0  0  0  0  0  0
  -26.0014  -29.4778   20.7153 C   0  0  0  0  0  0
  -27.1990  -28.7295   20.7104 C   0  0  0  0  0  0
  -26.0641  -26.9600   19.4804 C   0  0  0  0  0  0
  -24.8670  -27.6993   19.5003 C   0  0  0  0  0  0
  -23.6028  -29.8259   20.1697 C   0  0  0  0  0  0
  -25.4110  -36.3135   24.0338 C   0  0  1  0  0  0
  -20.5852  -28.3641   23.1338 C   0  0  2  0  0  0
  -20.6762  -26.9384   22.5425 C   0  0  0  0  0  0
  -19.5748  -26.6380   21.5213 C   0  0  0  0  0  0
  -18.1912  -26.7900   22.1617 C   0  0  0  0  0  0
  -19.1510  -28.8813   23.2909 C   0  0  0  0  0  0
  -18.9447  -30.1416   23.8918 C   0  0  0  0  0  0
  -17.6456  -30.6569   24.0559 C   0  0  0  0  0  0
  -25.9039  -34.9491   23.5140 C   0  0  0  0  0  0
  -16.5346  -29.9076   23.6320 C   0  0  0  0  0  0
  -16.7253  -28.6488   23.0356 C   0  0  0  0  0  0
  -26.4442  -31.6600   25.0709 C   0  0  0  0  0  0
  -25.3697  -31.3647   26.1444 C   0  0  0  0  0  0
  -27.0261  -30.3061   24.6014 C   0  0  0  0  0  0
  -27.6050  -32.4286   25.7452 C   0  0  0  0  0  0
  -27.5594  -37.1809   24.8460 C   0  0  0  0  0  0
  -21.4123  -29.3019   22.3762 N   0  0  0  0  0  0
  -26.4302  -37.3816   23.9405 N   0  0  0  0  0  0
  -24.6614  -31.0831   22.1018 N   0  0  0  0  0  0
  -23.4172  -28.8226   23.3065 O   0  0  0  0  0  0
  -28.3889  -26.7272   20.0910 O   0  0  0  0  0  0
  -26.5628  -34.8930   22.4717 O   0  0  0  0  0  0
  -23.5305  -32.1489   23.7527 O   0  0  0  0  0  0
  -29.2376  -19.9732   21.4362 C   0  0  0  0  0  0
  -27.9996  -20.5344   21.2877 C   0  0  0  0  0  0
  -27.1291  -19.5881   21.9033 C   0  0  0  0  0  0
  -25.6385  -19.6663   22.0614 C   0  0  0  0  0  0
  -29.8524  -16.9210   23.5722 C   0  0  0  0  0  0
  -29.9974  -17.4108   19.6697 C   0  0  0  0  0  0
  -27.6386  -21.8133   20.5760 C   0  0  0  0  0  0
  -28.1539  -23.0834   21.2762 C   0  0  0  0  0  0
  -27.9233  -24.3320   20.4052 C   0  0  0  0  0  0
  -28.4183  -25.6487   21.0310 C   0  0  0  0  0  0
  -30.1105  -17.7274   22.2830 C   0  0  1  0  0  0
  -30.4714  -16.8539   21.0316 C   0  0  1  0  0  0
  -27.7764  -18.5124   22.3316 N   0  0  0  0  0  0
  -29.0783  -18.7396   22.0349 N   0  0  0  0  0  0
  -30.0600  -15.4438   21.1415 N   0  0  0  0  0  0
  -31.4570  -12.3546   19.1225 H   0  0  0  0  0  0
  -30.2896  -11.2670   19.8128 H   0  0  0  0  0  0
  -29.7198  -11.7756   17.4219 H   0  0  0  0  0  0
  -29.6655  -13.4860   17.7749 H   0  0  0  0  0  0
  -27.8159  -11.3123   18.8156 H   0  0  0  0  0  0
  -27.3585  -12.6460   17.7906 H   0  0  0  0  0  0
  -27.7108  -14.2556   19.5871 H   0  0  0  0  0  0
  -28.6638  -11.9457   21.3487 H   0  0  0  0  0  0
  -28.4711  -13.5885   21.8770 H   0  0  0  0  0  0
  -25.2746   -9.5696   22.4758 H   0  0  0  0  0  0
  -23.9996   -7.4639   22.7480 H   0  0  0  0  0  0
  -21.0835   -8.8752   19.8949 H   0  0  0  0  0  0
  -22.3670  -10.9662   19.6158 H   0  0  0  0  0  0
  -21.1998   -7.6147   23.9707 H   0  0  0  0  0  0
  -21.1486   -6.0522   25.9074 H   0  0  0  0  0  0
  -22.0600   -2.7606   23.2843 H   0  0  0  0  0  0
  -22.4102  -11.9868   22.4767 H   0  0  0  0  0  0
  -21.1112  -13.1244   22.2613 H   0  0  0  0  0  0
  -24.6734  -15.8495   20.5388 H   0  0  0  0  0  0
  -26.2996  -15.6314   20.1371 H   0  0  0  0  0  0
  -26.7089  -32.5590   23.1184 H   0  0  0  0  0  0
  -24.9943  -33.9806   25.0427 H   0  0  0  0  0  0
  -22.6831  -31.3095   21.4162 H   0  0  0  0  0  0
  -23.3756  -35.9659   23.3305 H   0  0  0  0  0  0
  -24.3583  -36.8945   22.2048 H   0  0  0  0  0  0
  -23.7247  -37.6527   23.6656 H   0  0  0  0  0  0
  -26.0239  -31.6056   20.5878 H   0  0  0  0  0  0
  -26.8157  -30.9053   21.9718 H   0  0  0  0  0  0
  -28.0934  -29.1179   21.1768 H   0  0  0  0  0  0
  -26.0825  -26.0080   18.9721 H   0  0  0  0  0  0
  -23.9788  -27.2974   19.0313 H   0  0  0  0  0  0
  -23.7039  -30.6017   19.4097 H   0  0  0  0  0  0
  -22.7268  -29.2426   19.8818 H   0  0  0  0  0  0
  -25.1282  -36.2014   25.0839 H   0  0  0  0  0  0
  -20.9920  -28.3212   24.1470 H   0  0  0  0  0  0
  -20.5688  -26.2242   23.3599 H   0  0  0  0  0  0
  -21.6637  -26.7459   22.1203 H   0  0  0  0  0  0
  -19.6924  -25.6302   21.1207 H   0  0  0  0  0  0
  -19.6691  -27.3230   20.6764 H   0  0  0  0  0  0
  -17.4194  -26.6671   21.4000 H   0  0  0  0  0  0
  -18.0290  -26.0028   22.8994 H   0  0  0  0  0  0
  -19.7942  -30.7201   24.2324 H   0  0  0  0  0  0
  -17.5028  -31.6265   24.5145 H   0  0  0  0  0  0
  -15.5345  -30.2987   23.7635 H   0  0  0  0  0  0
  -15.8650  -28.0807   22.7067 H   0  0  0  0  0  0
  -24.5940  -30.6932   25.7752 H   0  0  0  0  0  0
  -24.8776  -32.2751   26.4877 H   0  0  0  0  0  0
  -25.8041  -30.8839   27.0219 H   0  0  0  0  0  0
  -26.2785  -29.6828   24.1095 H   0  0  0  0  0  0
  -27.4114  -29.7278   25.4416 H   0  0  0  0  0  0
  -27.8578  -30.4412   23.9089 H   0  0  0  0  0  0
  -27.2743  -33.3601   26.2052 H   0  0  0  0  0  0
  -28.3839  -32.6816   25.0248 H   0  0  0  0  0  0
  -28.0739  -31.8378   26.5334 H   0  0  0  0  0  0
  -28.2598  -38.0117   24.7539 H   0  0  0  0  0  0
  -28.1102  -36.2650   24.6258 H   0  0  0  0  0  0
  -27.2300  -37.1423   25.8857 H   0  0  0  0  0  0
  -20.9283  -29.8716   21.6969 H   0  0  0  0  0  0
  -26.0201  -38.2902   24.1402 H   0  0  0  0  0  0
  -30.2088  -20.3236   21.1156 H   0  0  0  0  0  0
  -25.3361  -20.6580   22.3980 H   0  0  0  0  0  0
  -25.2678  -18.9484   22.7940 H   0  0  0  0  0  0
  -25.1344  -19.4675   21.1155 H   0  0  0  0  0  0
  -30.6771  -16.2388   23.7819 H   0  0  0  0  0  0
  -28.9379  -16.3323   23.5092 H   0  0  0  0  0  0
  -29.7547  -17.5878   24.4291 H   0  0  0  0  0  0
  -30.3941  -18.4091   19.4859 H   0  0  0  0  0  0
  -28.9093  -17.4627   19.6105 H   0  0  0  0  0  0
  -30.3379  -16.7867   18.8425 H   0  0  0  0  0  0
  -26.5589  -21.8907   20.4419 H   0  0  0  0  0  0
  -28.0449  -21.7852   19.5638 H   0  0  0  0  0  0
  -29.2192  -22.9883   21.4858 H   0  0  0  0  0  0
  -27.6567  -23.2004   22.2399 H   0  0  0  0  0  0
  -26.8583  -24.4009   20.1908 H   0  0  0  0  0  0
  -28.4255  -24.1943   19.4473 H   0  0  0  0  0  0
  -29.4515  -25.5326   21.3567 H   0  0  0  0  0  0
  -27.8450  -25.8872   21.9297 H   0  0  0  0  0  0
  -31.0095  -18.3106   22.4945 H   0  0  0  0  0  0
  -31.5625  -16.8651   20.9983 H   0  0  0  0  0  0
  -29.1477  -15.2530   21.5269 H   0  0  0  0  0  0
  1 25  1  0  0  0
  1 30  2  0  0  0
  1 85  1  0  0  0
  2  3  1  0  0  0
  2 25  1  0  0  0
  2 86  1  0  0  0
  2 87  1  0  0  0
  3  4  1  0  0  0
  3 88  1  0  0  0
  3 89  1  0  0  0
  4  5  1  0  0  0
  4 90  1  0  0  0
  4 91  1  0  0  0
  5  6  1  0  0  0
  5 26  1  0  0  0
  5 92  1  0  0  0
  6 25  1  0  0  0
  6 93  1  0  0  0
  6 94  1  0  0  0
  7  8  2  0  0  0
  7 26  1  0  0  0
  7 29  1  0  0  0
  8  9  1  0  0  0
  8 22  1  0  0  0
  9 10  1  0  0  0
  9 27  2  0  0  0
 10 11  2  0  0  0
 10 15  1  0  0  0
 11 12  1  0  0  0
 11 95  1  0  0  0
 12 13  2  0  0  0
 12 96  1  0  0  0
 13 14  1  0  0  0
 13 31  1  0  0  0
 14 15  2  0  0  0
 14 97  1  0  0  0
 15 98  1  0  0  0
 16 17  2  0  0  0
 16 21  1  0  0  0
 16 31  1  0  0  0
 17 18  1  0  0  0
 17 99  1  0  0  0
 18 19  2  0  0  0
 18100  1  0  0  0
 19 20  1  0  0  0
 19 24  1  0  0  0
 20 21  2  0  0  0
 20101  1  0  0  0
 21 23  1  0  0  0
 22 28  1  0  0  0
 22 32  2  0  0  0
 26 27  1  0  0  0
 28102  1  0  0  0
 28103  1  0  0  0
 29104  1  0  0  0
 29105  1  0  0  0
 33 34  1  0  0  0
 33 66  1  0  0  0
 33 70  2  0  0  0
 34 36  1  0  0  0
 34 59  1  0  0  0
 34106  1  0  0  0
 35 44  2  0  0  0
 35 45  1  0  0  0
 35 68  1  0  0  0
 36 56  1  0  0  0
 36107  1  0  0  0
 37 39  1  0  0  0
 37 47  1  0  0  0
 37 66  1  0  0  0
 37108  1  0  0  0
 38 43  2  0  0  0
 38 46  1  0  0  0
 38 47  1  0  0  0
 39 64  1  0  0  0
 39 67  2  0  0  0
 40 52  1  0  0  0
 40 53  2  0  0  0
 40 58  1  0  0  0
 41109  1  0  0  0
 41110  1  0  0  0
 41111  1  0  0  0
 41 48  1  0  0  0
 42 43  1  0  0  0
 42 66  1  0  0  0
 42112  1  0  0  0
 42113  1  0  0  0
 43 44  1  0  0  0
 44114  1  0  0  0
 45 46  2  0  0  0
 45115  1  0  0  0
 46116  1  0  0  0
 47117  1  0  0  0
 47118  1  0  0  0
 48 56  1  0  0  0
 48 65  1  0  0  0
 48119  1  0  0  0
 49 50  1  0  0  0
 49 53  1  0  0  0
 49 64  1  0  0  0
 49120  1  0  0  0
 50 51  1  0  0  0
 50121  1  0  0  0
 50122  1  0  0  0
 51 52  1  0  0  0
 51123  1  0  0  0
 51124  1  0  0  0
 52125  1  0  0  0
 52126  1  0  0  0
 53 54  1  0  0  0
 54 55  2  0  0  0
 54127  1  0  0  0
 55 57  1  0  0  0
 55128  1  0  0  0
 56 69  2  0  0  0
 57 58  2  0  0  0
 57129  1  0  0  0
 58130  1  0  0  0
 59 60  1  0  0  0
 59 61  1  0  0  0
 59 62  1  0  0  0
 60131  1  0  0  0
 60132  1  0  0  0
 60133  1  0  0  0
 61134  1  0  0  0
 61135  1  0  0  0
 61136  1  0  0  0
 62137  1  0  0  0
 62138  1  0  0  0
 62139  1  0  0  0
 63 65  1  0  0  0
 63140  1  0  0  0
 63141  1  0  0  0
 63142  1  0  0  0
 64143  1  0  0  0
 65144  1  0  0  0
 68 80  1  0  0  0
 71 72  2  0  0  0
 71 84  1  0  0  0
 71145  1  0  0  0
 72 73  1  0  0  0
 72 77  1  0  0  0
 73 74  1  0  0  0
 73 83  2  0  0  0
 74146  1  0  0  0
 74147  1  0  0  0
 74148  1  0  0  0
 75149  1  0  0  0
 75150  1  0  0  0
 75151  1  0  0  0
 75 81  1  0  0  0
 76152  1  0  0  0
 76153  1  0  0  0
 76154  1  0  0  0
 76 82  1  0  0  0
 77 78  1  0  0  0
 77155  1  0  0  0
 77156  1  0  0  0
 78 79  1  0  0  0
 78157  1  0  0  0
 78158  1  0  0  0
 79 80  1  0  0  0
 79159  1  0  0  0
 79160  1  0  0  0
 80161  1  0  0  0
 80162  1  0  0  0
 81 82  1  0  0  0
 81 84  1  0  0  0
 81163  1  0  0  0
 82 85  1  0  0  0
 82164  1  0  0  0
 83 84  1  0  0  0
 85165  1  0  0  0
M  ISO  4   1 100  68 101  80 101  85 100
M  END
> <chiral flag>
0

> <version>
0

> <s_m_source_file>
/data/baiqing/PycharmProjects/Reinvent-master-3.2/result/LINK_invent/BTK/process_docking_weight1_custom_sum_contain_oxygen_bond_distance_aromatic_linkinvent_7_9_3/rearranged_h_0082.sdf

> <i_m_source_file_index>
41

> <r_mmod_Potential_Energy-OPLS-2005>
-96.2067947387695

> <r_mmod_Stretch_Energy-OPLS-2005>
33.3789291381836

> <r_mmod_Bend_Energy-OPLS-2005>
95.0304870605469

> <r_mmod_Torsional_Energy-OPLS-2005>
245.534072875977

> <r_mmod_Improper_Torsional_Energy-OPLS-2005>
4.2515721321106

> <r_mmod_Van_der_Waal_Energy-OPLS-2005>
129.269378662109

> <r_mmod_Electrostatic_Energy-OPLS-2005>
-413.439117431641

> <r_mmod_Solvation_Energy-OPLS-2005>
-199.8984375

> <b_mmod_Minimization_Converged-OPLS-2005>
0

> <r_mmod_RMS_Derivative-OPLS-2005>
2.04252099990845

$$$$
42
                    3D
 Structure written by MMmdl.
157165  0  0  1  0            999 V2000
  -30.5474  -14.9705   20.4060 C   0  0  0  0  0  0
  -30.4308  -12.5990   19.5071 C   0  0  0  0  0  0
  -29.5186  -12.5363   18.2605 C   0  0  0  0  0  0
  -28.0514  -12.3201   18.6746 C   0  0  0  0  0  0
  -27.6231  -13.2570   19.8349 C   0  0  2  0  0  0
  -28.6649  -13.3022   20.9734 C   0  0  0  0  0  0
  -25.2410  -13.8235   20.5730 C   0  0  0  0  0  0
  -24.1738  -13.0444   20.9237 C   0  0  0  0  0  0
  -24.6373  -11.6930   20.8747 C   0  0  0  0  0  0
  -23.9069  -10.4294   21.0398 C   0  0  0  0  0  0
  -24.3618   -9.4209   21.9176 C   0  0  0  0  0  0
  -23.6295   -8.2243   22.0744 C   0  0  0  0  0  0
  -22.4272   -8.0275   21.3539 C   0  0  0  0  0  0
  -21.9912   -9.0248   20.4634 C   0  0  0  0  0  0
  -22.7240  -10.2127   20.3047 C   0  0  0  0  0  0
  -21.6853   -6.0729   22.5282 C   0  0  0  0  0  0
  -21.4016   -6.5635   23.8215 C   0  0  0  0  0  0
  -21.3663   -5.6791   24.9177 C   0  0  0  0  0  0
  -21.6048   -4.3054   24.7228 C   0  0  0  0  0  0
  -21.8815   -3.8139   23.4350 C   0  0  0  0  0  0
  -21.9193   -4.6957   22.3404 C   0  0  0  0  0  0
  -22.7756  -13.5189   21.1915 C   0  0  0  0  0  0
  -22.1655   -4.2144   21.0984 F   0  0  0  0  0  0
  -21.5633   -3.4533   25.7741 F   0  0  0  0  0  0
  -29.9399  -13.7126   20.3723 N   0  0  0  0  0  0
  -26.2843  -12.9492   20.3234 N   0  0  0  0  0  0
  -25.9307  -11.6612   20.5727 N   0  0  0  0  0  0
  -22.0419  -12.8164   22.0468 N   0  0  0  0  0  0
  -25.4061  -15.1971   20.4183 N   0  0  0  0  0  0
  -31.7562  -15.0011   20.1524 O   0  0  0  0  0  0
  -21.6635   -6.8871   21.4240 O   0  0  0  0  0  0
  -22.3426  -14.5497   20.6769 O   0  0  0  0  0  0
  -24.6441  -31.8419   23.1891 C   0  0  0  0  0  0
  -25.9203  -32.4698   23.8265 C   0  0  1  0  0  0
  -27.2198  -27.1189   20.1565 C   0  0  0  0  0  0
  -25.5943  -33.8500   24.2176 N   0  0  0  0  0  0
  -23.4496  -30.4612   21.5340 C   0  0  2  0  0  0
  -24.9011  -28.8837   20.1144 C   0  0  0  0  0  0
  -22.7588  -29.4515   22.4843 C   0  0  0  0  0  0
  -18.0298  -28.1385   22.8460 C   0  0  0  0  0  0
  -24.1497  -36.7252   23.2638 C   0  0  0  0  0  0
  -26.0072  -30.7111   21.3902 C   0  0  0  0  0  0
  -26.0796  -29.3200   20.7332 C   0  0  0  0  0  0
  -27.2410  -28.4550   20.7345 C   0  0  0  0  0  0
  -26.0134  -26.7906   19.4994 C   0  0  0  0  0  0
  -24.8826  -27.6341   19.4806 C   0  0  0  0  0  0
  -23.6791  -29.7887   20.1544 C   0  0  0  0  0  0
  -25.4139  -36.3030   24.0306 C   0  0  1  0  0  0
  -20.5920  -28.3719   23.1224 C   0  0  2  0  0  0
  -20.6786  -26.9418   22.5392 C   0  0  0  0  0  0
  -19.5763  -26.6367   21.5198 C   0  0  0  0  0  0
  -18.1942  -26.7921   22.1600 C   0  0  0  0  0  0
  -19.1557  -28.8869   23.2832 C   0  0  0  0  0  0
  -18.9471  -30.1456   23.8872 C   0  0  0  0  0  0
  -17.6472  -30.6589   24.0546 C   0  0  0  0  0  0
  -25.9080  -34.9407   23.5049 C   0  0  0  0  0  0
  -16.5362  -29.9081   23.6325 C   0  0  0  0  0  0
  -16.7280  -28.6489   23.0357 C   0  0  0  0  0  0
  -26.4526  -31.6570   25.0711 C   0  0  0  0  0  0
  -25.3696  -31.3757   26.1394 C   0  0  0  0  0  0
  -27.0398  -30.2970   24.6297 C   0  0  0  0  0  0
  -27.6061  -32.4338   25.7490 C   0  0  0  0  0  0
  -27.5588  -37.1788   24.8462 C   0  0  0  0  0  0
  -21.4277  -29.3046   22.3602 N   0  0  0  0  0  0
  -26.4302  -37.3751   23.9407 N   0  0  0  0  0  0
  -24.7197  -31.0272   22.0922 N   0  0  0  0  0  0
  -23.4224  -28.8044   23.2981 O   0  0  0  0  0  0
  -28.2681  -26.1231   20.2214 O   0  0  0  0  0  0
  -26.5672  -34.8903   22.4631 O   0  0  0  0  0  0
  -23.5554  -32.1257   23.7120 O   0  0  0  0  0  0
  -29.6109  -20.4818   20.2828 C   0  0  0  0  0  0
  -28.6871  -21.6345   20.4911 C   0  0  0  0  0  0
  -29.2476  -19.0482   20.4667 C   0  0  0  0  0  0
  -27.4184  -21.1406   20.9128 C   0  0  0  0  0  0
  -26.2762  -22.0567   21.3003 C   0  0  0  0  0  0
  -30.1639  -23.4741   19.3595 C   0  0  0  0  0  0
  -30.6370  -17.7840   18.7284 C   0  0  0  0  0  0
  -27.9679  -24.5835   20.1793 C   0  0  0  0  0  0
  -29.0418  -23.2747   20.3881 C   0  0  1  0  0  0
  -30.1845  -17.7034   20.1989 C   0  0  2  0  0  0
  -27.9695  -18.8043   20.8309 N   0  0  0  0  0  0
  -27.1104  -19.8140   21.0520 N   0  0  0  0  0  0
  -29.7977  -16.1846   20.4928 N   0  0  0  0  0  0
  -31.4669  -12.7442   19.1998 H   0  0  0  0  0  0
  -30.4135  -11.6520   20.0497 H   0  0  0  0  0  0
  -29.8424  -11.7417   17.5873 H   0  0  0  0  0  0
  -29.6055  -13.4680   17.6999 H   0  0  0  0  0  0
  -27.9479  -11.2796   18.9843 H   0  0  0  0  0  0
  -27.3911  -12.4509   17.8162 H   0  0  0  0  0  0
  -27.5794  -14.2560   19.3993 H   0  0  0  0  0  0
  -28.7531  -12.3313   21.4635 H   0  0  0  0  0  0
  -28.3628  -14.0157   21.7419 H   0  0  0  0  0  0
  -25.2752   -9.5691   22.4753 H   0  0  0  0  0  0
  -24.0004   -7.4632   22.7456 H   0  0  0  0  0  0
  -21.0851   -8.8762   19.8932 H   0  0  0  0  0  0
  -22.3692  -10.9666   19.6152 H   0  0  0  0  0  0
  -21.2004   -7.6141   23.9722 H   0  0  0  0  0  0
  -21.1494   -6.0515   25.9086 H   0  0  0  0  0  0
  -22.0591   -2.7602   23.2853 H   0  0  0  0  0  0
  -22.4047  -11.9820   22.4844 H   0  0  0  0  0  0
  -21.1030  -13.1165   22.2685 H   0  0  0  0  0  0
  -24.6399  -15.8499   20.5427 H   0  0  0  0  0  0
  -26.2574  -15.6478   20.1101 H   0  0  0  0  0  0
  -26.7268  -32.5303   23.0983 H   0  0  0  0  0  0
  -25.0091  -33.9606   25.0331 H   0  0  0  0  0  0
  -22.7500  -31.2856   21.3780 H   0  0  0  0  0  0
  -23.3767  -35.9574   23.3285 H   0  0  0  0  0  0
  -24.3560  -36.8903   22.2052 H   0  0  0  0  0  0
  -23.7242  -37.6439   23.6689 H   0  0  0  0  0  0
  -26.1667  -31.4633   20.6161 H   0  0  0  0  0  0
  -26.8754  -30.7652   22.0341 H   0  0  0  0  0  0
  -28.1410  -28.7817   21.2360 H   0  0  0  0  0  0
  -25.9041  -25.8381   19.0070 H   0  0  0  0  0  0
  -23.9847  -27.2956   18.9820 H   0  0  0  0  0  0
  -23.8243  -30.5599   19.3973 H   0  0  0  0  0  0
  -22.7921  -29.2346   19.8411 H   0  0  0  0  0  0
  -25.1328  -36.1854   25.0799 H   0  0  0  0  0  0
  -21.0005  -28.3313   24.1350 H   0  0  0  0  0  0
  -20.5675  -26.2333   23.3613 H   0  0  0  0  0  0
  -21.6662  -26.7418   22.1204 H   0  0  0  0  0  0
  -19.6936  -25.6271   21.1247 H   0  0  0  0  0  0
  -19.6719  -27.3164   20.6720 H   0  0  0  0  0  0
  -17.4219  -26.6648   21.4003 H   0  0  0  0  0  0
  -18.0350  -26.0067   22.8998 H   0  0  0  0  0  0
  -19.7954  -30.7255   24.2260 H   0  0  0  0  0  0
  -17.5034  -31.6279   24.5145 H   0  0  0  0  0  0
  -15.5367  -30.2982   23.7679 H   0  0  0  0  0  0
  -15.8666  -28.0802   22.7115 H   0  0  0  0  0  0
  -24.5908  -30.7071   25.7700 H   0  0  0  0  0  0
  -24.8841  -32.2937   26.4721 H   0  0  0  0  0  0
  -25.7963  -30.8992   27.0232 H   0  0  0  0  0  0
  -26.3014  -29.6687   24.1305 H   0  0  0  0  0  0
  -27.4014  -29.7279   25.4870 H   0  0  0  0  0  0
  -27.8920  -30.4200   23.9612 H   0  0  0  0  0  0
  -27.2677  -33.3682   26.1981 H   0  0  0  0  0  0
  -28.3927  -32.6828   25.0351 H   0  0  0  0  0  0
  -28.0669  -31.8512   26.5475 H   0  0  0  0  0  0
  -28.2594  -38.0098   24.7536 H   0  0  0  0  0  0
  -28.1098  -36.2630   24.6271 H   0  0  0  0  0  0
  -27.2289  -37.1410   25.8857 H   0  0  0  0  0  0
  -20.9482  -29.8758   21.6780 H   0  0  0  0  0  0
  -26.0156  -38.2809   24.1439 H   0  0  0  0  0  0
  -30.6285  -20.6879   19.9856 H   0  0  0  0  0  0
  -26.5771  -22.7097   22.1189 H   0  0  0  0  0  0
  -25.4109  -21.4932   21.6499 H   0  0  0  0  0  0
  -25.9466  -22.6481   20.4476 H   0  0  0  0  0  0
  -31.0492  -22.8914   19.6120 H   0  0  0  0  0  0
  -30.4740  -24.5193   19.3119 H   0  0  0  0  0  0
  -29.8386  -23.1812   18.3609 H   0  0  0  0  0  0
  -31.0821  -18.7540   18.5054 H   0  0  0  0  0  0
  -29.7916  -17.6525   18.0529 H   0  0  0  0  0  0
  -31.3863  -17.0335   18.4813 H   0  0  0  0  0  0
  -27.4820  -24.3932   19.2232 H   0  0  0  0  0  0
  -27.1903  -24.4808   20.9308 H   0  0  0  0  0  0
  -29.4992  -23.4709   21.3587 H   0  0  0  0  0  0
  -31.0720  -17.8759   20.8096 H   0  0  0  0  0  0
  -28.8174  -16.0554   20.6957 H   0  0  0  0  0  0
  1 25  1  0  0  0
  1 30  2  0  0  0
  1 83  1  0  0  0
  2  3  1  0  0  0
  2 25  1  0  0  0
  2 84  1  0  0  0
  2 85  1  0  0  0
  3  4  1  0  0  0
  3 86  1  0  0  0
  3 87  1  0  0  0
  4  5  1  0  0  0
  4 88  1  0  0  0
  4 89  1  0  0  0
  5  6  1  0  0  0
  5 26  1  0  0  0
  5 90  1  0  0  0
  6 25  1  0  0  0
  6 91  1  0  0  0
  6 92  1  0  0  0
  7  8  2  0  0  0
  7 26  1  0  0  0
  7 29  1  0  0  0
  8  9  1  0  0  0
  8 22  1  0  0  0
  9 10  1  0  0  0
  9 27  2  0  0  0
 10 11  2  0  0  0
 10 15  1  0  0  0
 11 12  1  0  0  0
 11 93  1  0  0  0
 12 13  2  0  0  0
 12 94  1  0  0  0
 13 14  1  0  0  0
 13 31  1  0  0  0
 14 15  2  0  0  0
 14 95  1  0  0  0
 15 96  1  0  0  0
 16 17  2  0  0  0
 16 21  1  0  0  0
 16 31  1  0  0  0
 17 18  1  0  0  0
 17 97  1  0  0  0
 18 19  2  0  0  0
 18 98  1  0  0  0
 19 20  1  0  0  0
 19 24  1  0  0  0
 20 21  2  0  0  0
 20 99  1  0  0  0
 21 23  1  0  0  0
 22 28  1  0  0  0
 22 32  2  0  0  0
 26 27  1  0  0  0
 28100  1  0  0  0
 28101  1  0  0  0
 29102  1  0  0  0
 29103  1  0  0  0
 33 34  1  0  0  0
 33 66  1  0  0  0
 33 70  2  0  0  0
 34 36  1  0  0  0
 34 59  1  0  0  0
 34104  1  0  0  0
 35 44  2  0  0  0
 35 45  1  0  0  0
 35 68  1  0  0  0
 36 56  1  0  0  0
 36105  1  0  0  0
 37 39  1  0  0  0
 37 47  1  0  0  0
 37 66  1  0  0  0
 37106  1  0  0  0
 38 43  2  0  0  0
 38 46  1  0  0  0
 38 47  1  0  0  0
 39 64  1  0  0  0
 39 67  2  0  0  0
 40 52  1  0  0  0
 40 53  2  0  0  0
 40 58  1  0  0  0
 41107  1  0  0  0
 41108  1  0  0  0
 41109  1  0  0  0
 41 48  1  0  0  0
 42 43  1  0  0  0
 42 66  1  0  0  0
 42110  1  0  0  0
 42111  1  0  0  0
 43 44  1  0  0  0
 44112  1  0  0  0
 45 46  2  0  0  0
 45113  1  0  0  0
 46114  1  0  0  0
 47115  1  0  0  0
 47116  1  0  0  0
 48 56  1  0  0  0
 48 65  1  0  0  0
 48117  1  0  0  0
 49 50  1  0  0  0
 49 53  1  0  0  0
 49 64  1  0  0  0
 49118  1  0  0  0
 50 51  1  0  0  0
 50119  1  0  0  0
 50120  1  0  0  0
 51 52  1  0  0  0
 51121  1  0  0  0
 51122  1  0  0  0
 52123  1  0  0  0
 52124  1  0  0  0
 53 54  1  0  0  0
 54 55  2  0  0  0
 54125  1  0  0  0
 55 57  1  0  0  0
 55126  1  0  0  0
 56 69  2  0  0  0
 57 58  2  0  0  0
 57127  1  0  0  0
 58128  1  0  0  0
 59 60  1  0  0  0
 59 61  1  0  0  0
 59 62  1  0  0  0
 60129  1  0  0  0
 60130  1  0  0  0
 60131  1  0  0  0
 61132  1  0  0  0
 61133  1  0  0  0
 61134  1  0  0  0
 62135  1  0  0  0
 62136  1  0  0  0
 62137  1  0  0  0
 63 65  1  0  0  0
 63138  1  0  0  0
 63139  1  0  0  0
 63140  1  0  0  0
 64141  1  0  0  0
 65142  1  0  0  0
 68 78  1  0  0  0
 71 72  2  0  0  0
 71 73  1  0  0  0
 71143  1  0  0  0
 72 74  1  0  0  0
 72 79  1  0  0  0
 73 80  1  0  0  0
 73 81  2  0  0  0
 74 75  1  0  0  0
 74 82  2  0  0  0
 75144  1  0  0  0
 75145  1  0  0  0
 75146  1  0  0  0
 76147  1  0  0  0
 76148  1  0  0  0
 76149  1  0  0  0
 76 79  1  0  0  0
 77150  1  0  0  0
 77151  1  0  0  0
 77152  1  0  0  0
 77 80  1  0  0  0
 78 79  1  0  0  0
 78153  1  0  0  0
 78154  1  0  0  0
 79155  1  0  0  0
 80 83  1  0  0  0
 80156  1  0  0  0
 81 82  1  0  0  0
 83157  1  0  0  0
M  ISO  4   1 100  68 101  78 101  83 100
M  END
> <chiral flag>
0

> <version>
0

> <s_m_source_file>
/data/baiqing/PycharmProjects/Reinvent-master-3.2/result/LINK_invent/BTK/process_docking_weight1_custom_sum_contain_oxygen_bond_distance_aromatic_linkinvent_7_9_3/rearranged_h_0082.sdf

> <i_m_source_file_index>
42

> <r_mmod_Potential_Energy-OPLS-2005>
461.709350585938

> <r_mmod_Stretch_Energy-OPLS-2005>
288.933776855469

> <r_mmod_Bend_Energy-OPLS-2005>
265.240844726562

> <r_mmod_Torsional_Energy-OPLS-2005>
203.188507080078

> <r_mmod_Improper_Torsional_Energy-OPLS-2005>
5.23973035812378

> <r_mmod_Van_der_Waal_Energy-OPLS-2005>
133.58512878418

> <r_mmod_Electrostatic_Energy-OPLS-2005>
-420.243225097656

> <r_mmod_Solvation_Energy-OPLS-2005>
-221.879364013672

> <b_mmod_Minimization_Converged-OPLS-2005>
0

> <r_mmod_RMS_Derivative-OPLS-2005>
1.91868567466736

$$$$
43
                    3D
 Structure written by MMmdl.
161169  0  0  1  0            999 V2000
  -30.1941  -14.3164   19.1299 C   0  0  0  0  0  0
  -30.7478  -12.2699   19.8276 C   0  0  0  0  0  0
  -29.6745  -11.5218   19.1003 C   0  0  0  0  0  0
  -28.4413  -11.7804   20.0447 C   0  0  0  0  0  0
  -27.8784  -13.3378   20.3472 C   0  0  2  0  0  0
  -29.0620  -13.7455   21.2021 C   0  0  0  0  0  0
  -25.4232  -15.0443   20.0685 C   0  0  0  0  0  0
  -24.1278  -14.5070   20.2005 C   0  0  0  0  0  0
  -24.7298  -13.3070   20.1352 C   0  0  0  0  0  0
  -24.2950  -10.6890   21.3336 C   0  0  0  0  0  0
  -24.3508   -9.8430   22.5210 C   0  0  0  0  0  0
  -23.6169   -8.5455   22.6969 C   0  0  0  0  0  0
  -22.5862   -8.1481   21.7580 C   0  0  0  0  0  0
  -22.3968   -8.9718   20.6900 C   0  0  0  0  0  0
  -23.6305   -9.5755   20.5304 C   0  0  0  0  0  0
  -21.7291   -6.1024   22.6407 C   0  0  0  0  0  0
  -21.4060   -6.5484   23.9301 C   0  0  0  0  0  0
  -21.3537   -5.6324   24.9885 C   0  0  0  0  0  0
  -21.5942   -4.2708   24.7472 C   0  0  0  0  0  0
  -21.8622   -3.8100   23.4420 C   0  0  0  0  0  0
  -21.9219   -4.7262   22.3785 C   0  0  0  0  0  0
  -22.6628  -14.9152   20.6256 C   0  0  0  0  0  0
  -22.1676   -4.2772   21.1242 F   0  0  0  0  0  0
  -21.5536   -3.3939   25.7826 F   0  0  0  0  0  0
  -30.1428  -13.5497   20.1952 N   0  0  0  0  0  0
  -26.4816  -14.0814   19.9449 N   0  0  0  0  0  0
  -25.5666  -13.6419   19.1935 N   0  0  0  0  0  0
  -21.8380  -14.4364   21.6051 N   0  0  0  0  0  0
  -25.7297  -16.3151   19.8554 N   0  0  0  0  0  0
  -31.1943  -15.0575   19.1925 O   0  0  0  0  0  0
  -21.8269   -6.9974   21.6363 O   0  0  0  0  0  0
  -22.0872  -15.6295   19.8898 O   0  0  0  0  0  0
  -24.7477  -31.6832   23.1021 C   0  0  0  0  0  0
  -25.9747  -32.3847   23.7750 C   0  0  1  0  0  0
  -26.4615  -25.4340   20.7659 C   0  0  0  0  0  0
  -25.6011  -33.7773   24.1439 N   0  0  0  0  0  0
  -23.5814  -30.2790   21.4705 C   0  0  2  0  0  0
  -24.9311  -28.3659   20.1870 C   0  0  0  0  0  0
  -22.7839  -29.3762   22.4485 C   0  0  0  0  0  0
  -18.0322  -28.1433   22.8435 C   0  0  0  0  0  0
  -24.1479  -36.6874   23.2679 C   0  0  0  0  0  0
  -26.1338  -29.9708   21.5914 C   0  0  0  0  0  0
  -26.0385  -28.4044   21.0286 C   0  0  0  0  0  0
  -26.7772  -27.0034   21.2504 C   0  0  0  0  0  0
  -25.5950  -25.9101   19.6879 C   0  0  0  0  0  0
  -24.8562  -27.1556   19.4524 C   0  0  0  0  0  0
  -23.8755  -29.5222   20.1242 C   0  0  0  0  0  0
  -25.4175  -36.2548   24.0209 C   0  0  1  0  0  0
  -20.5939  -28.3767   23.1045 C   0  0  2  0  0  0
  -20.6712  -26.9361   22.5453 C   0  0  0  0  0  0
  -19.5729  -26.6300   21.5229 C   0  0  0  0  0  0
  -18.1900  -26.7954   22.1605 C   0  0  0  0  0  0
  -19.1601  -28.8945   23.2701 C   0  0  0  0  0  0
  -18.9529  -30.1509   23.8771 C   0  0  0  0  0  0
  -17.6526  -30.6608   24.0530 C   0  0  0  0  0  0
  -25.9219  -34.8955   23.4744 C   0  0  0  0  0  0
  -16.5394  -29.9084   23.6363 C   0  0  0  0  0  0
  -16.7305  -28.6502   23.0376 C   0  0  0  0  0  0
  -26.4692  -31.6423   25.0794 C   0  0  0  0  0  0
  -25.3546  -31.4055   26.1271 C   0  0  0  0  0  0
  -27.0831  -30.2686   24.7544 C   0  0  0  0  0  0
  -27.5944  -32.4609   25.7565 C   0  0  0  0  0  0
  -27.5510  -37.1595   24.8469 C   0  0  0  0  0  0
  -21.4450  -29.2892   22.3274 N   0  0  0  0  0  0
  -26.4210  -37.3420   23.9408 N   0  0  0  0  0  0
  -24.8665  -30.7194   22.0973 N   0  0  0  0  0  0
  -23.3923  -28.7508   23.3209 O   0  0  0  0  0  0
  -26.7979  -23.6085   21.0466 O   0  0  0  0  0  0
  -26.6007  -34.8710   22.4459 O   0  0  0  0  0  0
  -23.6404  -32.0579   23.5341 O   0  0  0  0  0  0
  -26.0970  -12.1819   21.5587 C   0  0  0  0  0  0
  -22.8100  -12.1742   20.5419 C   0  0  0  0  0  0
  -25.7709  -11.3582   19.6974 C   0  0  0  0  0  0
  -23.9334  -11.4821   19.1671 C   0  0  0  0  0  0
  -25.1754  -13.6372   22.3780 C   0  0  0  0  0  0
  -23.4197  -11.1742   17.7736 C   0  0  0  0  0  0
  -28.0519  -12.8623   15.9516 C   0  0  0  0  0  0
  -26.7888  -11.6703   18.1726 C   0  0  0  0  0  0
  -25.5325  -16.1365   22.4801 C   0  0  0  0  0  0
  -26.0794  -18.6767   21.7133 C   0  0  0  0  0  0
  -26.1471  -21.3570   21.5114 C   0  0  0  0  0  0
  -27.8773  -13.0932   17.4617 C   0  0  1  0  0  0
  -23.6083  -12.8628   22.1010 N   0  0  0  0  0  0
  -29.2718  -14.0138   17.9879 N   0  0  0  0  0  0
  -31.6615  -12.3529   19.2234 H   0  0  0  0  0  0
  -31.0494  -11.7406   20.7343 H   0  0  0  0  0  0
  -29.9234  -10.4604   19.1709 H   0  0  0  0  0  0
  -29.6408  -11.6696   18.0352 H   0  0  0  0  0  0
  -28.8179  -11.4738   21.0284 H   0  0  0  0  0  0
  -27.8958  -10.8547   20.0715 H   0  0  0  0  0  0
  -28.0438  -13.1963   19.4859 H   0  0  0  0  0  0
  -29.6299  -14.6256   21.5284 H   0  0  0  0  0  0
  -28.4577  -14.6429   21.3694 H   0  0  0  0  0  0
  -24.9408  -10.1921   23.3551 H   0  0  0  0  0  0
  -23.8084   -7.9412   23.5687 H   0  0  0  0  0  0
  -21.8589   -8.5349   19.8584 H   0  0  0  0  0  0
  -24.0199   -9.3056   19.5548 H   0  0  0  0  0  0
  -21.2300   -7.5941   24.1150 H   0  0  0  0  0  0
  -21.1428   -5.9790   25.9885 H   0  0  0  0  0  0
  -22.0312   -2.7596   23.2623 H   0  0  0  0  0  0
  -22.2874  -13.7507   22.2150 H   0  0  0  0  0  0
  -20.8793  -14.7400   21.6832 H   0  0  0  0  0  0
  -24.9488  -16.8688   19.5376 H   0  0  0  0  0  0
  -26.5868  -16.6307   19.4241 H   0  0  0  0  0  0
  -26.7868  -32.4042   23.0471 H   0  0  0  0  0  0
  -24.9879  -33.8716   24.9402 H   0  0  0  0  0  0
  -22.9671  -31.1525   21.2390 H   0  0  0  0  0  0
  -23.3790  -35.9145   23.3235 H   0  0  0  0  0  0
  -24.3505  -36.8705   22.2115 H   0  0  0  0  0  0
  -23.7214  -37.5963   23.6923 H   0  0  0  0  0  0
  -26.5120  -30.5654   20.7595 H   0  0  0  0  0  0
  -26.9527  -30.0048   22.2914 H   0  0  0  0  0  0
  -27.5535  -27.0714   22.0023 H   0  0  0  0  0  0
  -25.2734  -25.1040   19.0410 H   0  0  0  0  0  0
  -24.0998  -27.1099   18.6792 H   0  0  0  0  0  0
  -24.2250  -30.2499   19.3904 H   0  0  0  0  0  0
  -22.9391  -29.1327   19.7192 H   0  0  0  0  0  0
  -25.1437  -36.1160   25.0691 H   0  0  0  0  0  0
  -21.0011  -28.3453   24.1169 H   0  0  0  0  0  0
  -20.5443  -26.2414   23.3765 H   0  0  0  0  0  0
  -21.6571  -26.7157   22.1355 H   0  0  0  0  0  0
  -19.6838  -25.6161   21.1347 H   0  0  0  0  0  0
  -19.6709  -27.3035   20.6696 H   0  0  0  0  0  0
  -17.4170  -26.6720   21.3983 H   0  0  0  0  0  0
  -18.0234  -26.0108   22.9013 H   0  0  0  0  0  0
  -19.8003  -30.7340   24.2070 H   0  0  0  0  0  0
  -17.5077  -31.6286   24.5153 H   0  0  0  0  0  0
  -15.5380  -30.2968   23.7760 H   0  0  0  0  0  0
  -15.8686  -28.0790   22.7170 H   0  0  0  0  0  0
  -24.5794  -30.7316   25.7623 H   0  0  0  0  0  0
  -24.8681  -32.3369   26.4152 H   0  0  0  0  0  0
  -25.7536  -30.9608   27.0394 H   0  0  0  0  0  0
  -26.3541  -29.5743   24.3368 H   0  0  0  0  0  0
  -27.4565  -29.7889   25.6597 H   0  0  0  0  0  0
  -27.9456  -30.3580   24.0953 H   0  0  0  0  0  0
  -27.2330  -33.4106   26.1516 H   0  0  0  0  0  0
  -28.3996  -32.6862   25.0569 H   0  0  0  0  0  0
  -28.0344  -31.9246   26.5977 H   0  0  0  0  0  0
  -28.2451  -37.9953   24.7497 H   0  0  0  0  0  0
  -28.1081  -36.2461   24.6323 H   0  0  0  0  0  0
  -27.2225  -37.1230   25.8871 H   0  0  0  0  0  0
  -20.9870  -29.8429   21.6160 H   0  0  0  0  0  0
  -25.9939  -38.2407   24.1456 H   0  0  0  0  0  0
  -27.0294  -11.9883   22.0636 H   0  0  0  0  0  0
  -21.7357  -12.0734   20.4738 H   0  0  0  0  0  0
  -22.4620  -10.6601   17.8300 H   0  0  0  0  0  0
  -24.1182  -10.5582   17.2161 H   0  0  0  0  0  0
  -23.3093  -12.1099   17.2059 H   0  0  0  0  0  0
  -28.6988  -12.0098   15.7486 H   0  0  0  0  0  0
  -28.4743  -13.7477   15.4861 H   0  0  0  0  0  0
  -27.0867  -12.6785   15.4746 H   0  0  0  0  0  0
  -25.9975  -11.6802   17.4287 H   0  0  0  0  0  0
  -27.2860  -10.7303   17.9296 H   0  0  0  0  0  0
  -26.3238  -16.0727   23.2328 H   0  0  0  0  0  0
  -24.6490  -16.3593   23.0791 H   0  0  0  0  0  0
  -25.7866  -18.5996   20.6732 H   0  0  0  0  0  0
  -27.1608  -18.5347   21.6874 H   0  0  0  0  0  0
  -25.9524  -21.5413   22.5623 H   0  0  0  0  0  0
  -25.1863  -21.4449   21.0104 H   0  0  0  0  0  0
  -27.1822  -13.9309   17.4102 H   0  0  0  0  0  0
  -29.5557  -14.6299   17.2436 H   0  0  0  0  0  0
  1 25  1  0  0  0
  1 30  2  0  0  0
  1 84  1  0  0  0
  2  3  1  0  0  0
  2 25  1  0  0  0
  2 85  1  0  0  0
  2 86  1  0  0  0
  3  4  1  0  0  0
  3 87  1  0  0  0
  3 88  1  0  0  0
  4  5  1  0  0  0
  4 89  1  0  0  0
  4 90  1  0  0  0
  5  6  1  0  0  0
  5 26  1  0  0  0
  5 91  1  0  0  0
  6 25  1  0  0  0
  6 92  1  0  0  0
  6 93  1  0  0  0
  7  8  2  0  0  0
  7 26  1  0  0  0
  7 29  1  0  0  0
  8  9  1  0  0  0
  8 22  1  0  0  0
  9 10  1  0  0  0
  9 27  2  0  0  0
 10 11  2  0  0  0
 10 15  1  0  0  0
 11 12  1  0  0  0
 11 94  1  0  0  0
 12 13  2  0  0  0
 12 95  1  0  0  0
 13 14  1  0  0  0
 13 31  1  0  0  0
 14 15  2  0  0  0
 14 96  1  0  0  0
 15 97  1  0  0  0
 16 17  2  0  0  0
 16 21  1  0  0  0
 16 31  1  0  0  0
 17 18  1  0  0  0
 17 98  1  0  0  0
 18 19  2  0  0  0
 18 99  1  0  0  0
 19 20  1  0  0  0
 19 24  1  0  0  0
 20 21  2  0  0  0
 20100  1  0  0  0
 21 23  1  0  0  0
 22 28  1  0  0  0
 22 32  2  0  0  0
 26 27  1  0  0  0
 28101  1  0  0  0
 28102  1  0  0  0
 29103  1  0  0  0
 29104  1  0  0  0
 33 34  1  0  0  0
 33 66  1  0  0  0
 33 70  2  0  0  0
 34 36  1  0  0  0
 34 59  1  0  0  0
 34105  1  0  0  0
 35 44  2  0  0  0
 35 45  1  0  0  0
 35 68  1  0  0  0
 36 56  1  0  0  0
 36106  1  0  0  0
 37 39  1  0  0  0
 37 47  1  0  0  0
 37 66  1  0  0  0
 37107  1  0  0  0
 38 43  2  0  0  0
 38 46  1  0  0  0
 38 47  1  0  0  0
 39 64  1  0  0  0
 39 67  2  0  0  0
 40 52  1  0  0  0
 40 53  2  0  0  0
 40 58  1  0  0  0
 41108  1  0  0  0
 41109  1  0  0  0
 41110  1  0  0  0
 41 48  1  0  0  0
 42 43  1  0  0  0
 42 66  1  0  0  0
 42111  1  0  0  0
 42112  1  0  0  0
 43 44  1  0  0  0
 44113  1  0  0  0
 45 46  2  0  0  0
 45114  1  0  0  0
 46115  1  0  0  0
 47116  1  0  0  0
 47117  1  0  0  0
 48 56  1  0  0  0
 48 65  1  0  0  0
 48118  1  0  0  0
 49 50  1  0  0  0
 49 53  1  0  0  0
 49 64  1  0  0  0
 49119  1  0  0  0
 50 51  1  0  0  0
 50120  1  0  0  0
 50121  1  0  0  0
 51 52  1  0  0  0
 51122  1  0  0  0
 51123  1  0  0  0
 52124  1  0  0  0
 52125  1  0  0  0
 53 54  1  0  0  0
 54 55  2  0  0  0
 54126  1  0  0  0
 55 57  1  0  0  0
 55127  1  0  0  0
 56 69  2  0  0  0
 57 58  2  0  0  0
 57128  1  0  0  0
 58129  1  0  0  0
 59 60  1  0  0  0
 59 61  1  0  0  0
 59 62  1  0  0  0
 60130  1  0  0  0
 60131  1  0  0  0
 60132  1  0  0  0
 61133  1  0  0  0
 61134  1  0  0  0
 61135  1  0  0  0
 62136  1  0  0  0
 62137  1  0  0  0
 62138  1  0  0  0
 63 65  1  0  0  0
 63139  1  0  0  0
 63140  1  0  0  0
 63141  1  0  0  0
 64142  1  0  0  0
 65143  1  0  0  0
 68 81  1  0  0  0
 71 73  2  0  0  0
 71 75  1  0  0  0
 71144  1  0  0  0
 72 74  2  0  0  0
 72 83  1  0  0  0
 72145  1  0  0  0
 73 74  1  0  0  0
 73 78  1  0  0  0
 74 76  1  0  0  0
 75 79  1  0  0  0
 75 83  2  0  0  0
 76146  1  0  0  0
 76147  1  0  0  0
 76148  1  0  0  0
 77149  1  0  0  0
 77150  1  0  0  0
 77151  1  0  0  0
 77 82  1  0  0  0
 78 82  1  0  0  0
 78152  1  0  0  0
 78153  1  0  0  0
 79 80  1  0  0  0
 79154  1  0  0  0
 79155  1  0  0  0
 80 81  1  0  0  0
 80156  1  0  0  0
 80157  1  0  0  0
 81158  1  0  0  0
 81159  1  0  0  0
 82 84  1  0  0  0
 82160  1  0  0  0
 84161  1  0  0  0
M  ISO  4   1 100  68 101  81 101  84 100
M  END
> <chiral flag>
0

> <version>
0

> <s_m_source_file>
/data/baiqing/PycharmProjects/Reinvent-master-3.2/result/LINK_invent/BTK/process_docking_weight1_custom_sum_contain_oxygen_bond_distance_aromatic_linkinvent_7_9_3/rearranged_h_0082.sdf

> <i_m_source_file_index>
43

> <r_mmod_Potential_Energy-OPLS-2005>
26883.208984375

> <r_mmod_Stretch_Energy-OPLS-2005>
13637.6689453125

> <r_mmod_Bend_Energy-OPLS-2005>
2689.0234375

> <r_mmod_Torsional_Energy-OPLS-2005>
1038.58947753906

> <r_mmod_Improper_Torsional_Energy-OPLS-2005>
54.384449005127

> <r_mmod_Van_der_Waal_Energy-OPLS-2005>
3796.345703125

> <r_mmod_Electrostatic_Energy-OPLS-2005>
-546.395935058594

> <r_mmod_Solvation_Energy-OPLS-2005>
-206.825759887695

> <b_mmod_Minimization_Converged-OPLS-2005>
0

> <r_mmod_RMS_Derivative-OPLS-2005>
26.7554988861084

$$$$
44
                    3D
 Structure written by MMmdl.
158166  0  0  1  0            999 V2000
  -30.6153  -14.7510   20.4617 C   0  0  0  0  0  0
  -30.4290  -12.4630   19.4663 C   0  0  0  0  0  0
  -29.5033  -12.5041   18.2318 C   0  0  0  0  0  0
  -28.0306  -12.3320   18.6490 C   0  0  0  0  0  0
  -27.6368  -13.2360   19.8462 C   0  0  2  0  0  0
  -28.6828  -13.1797   20.9788 C   0  0  0  0  0  0
  -25.2485  -13.8214   20.5728 C   0  0  0  0  0  0
  -24.1788  -13.0440   20.9229 C   0  0  0  0  0  0
  -24.6391  -11.6918   20.8765 C   0  0  0  0  0  0
  -23.9079  -10.4293   21.0417 C   0  0  0  0  0  0
  -24.3632   -9.4206   21.9191 C   0  0  0  0  0  0
  -23.6307   -8.2239   22.0748 C   0  0  0  0  0  0
  -22.4285   -8.0284   21.3536 C   0  0  0  0  0  0
  -21.9931   -9.0262   20.4642 C   0  0  0  0  0  0
  -22.7261  -10.2138   20.3061 C   0  0  0  0  0  0
  -21.6852   -6.0741   22.5284 C   0  0  0  0  0  0
  -21.4012   -6.5646   23.8219 C   0  0  0  0  0  0
  -21.3658   -5.6801   24.9182 C   0  0  0  0  0  0
  -21.6047   -4.3061   24.7238 C   0  0  0  0  0  0
  -21.8815   -3.8152   23.4359 C   0  0  0  0  0  0
  -21.9192   -4.6969   22.3410 C   0  0  0  0  0  0
  -22.7810  -13.5205   21.1906 C   0  0  0  0  0  0
  -22.1660   -4.2152   21.0989 F   0  0  0  0  0  0
  -21.5633   -3.4547   25.7750 F   0  0  0  0  0  0
  -29.9814  -13.5296   20.3905 N   0  0  0  0  0  0
  -26.2913  -12.9428   20.3284 N   0  0  0  0  0  0
  -25.9321  -11.6568   20.5757 N   0  0  0  0  0  0
  -22.0478  -12.8161   22.0453 N   0  0  0  0  0  0
  -25.4149  -15.1950   20.4168 N   0  0  0  0  0  0
  -31.8107  -14.8357   20.1707 O   0  0  0  0  0  0
  -21.6638   -6.8885   21.4240 O   0  0  0  0  0  0
  -22.3482  -14.5513   20.6769 O   0  0  0  0  0  0
  -24.6321  -31.8543   23.1994 C   0  0  0  0  0  0
  -25.9141  -32.4731   23.8341 C   0  0  1  0  0  0
  -27.2120  -27.2552   20.1244 C   0  0  0  0  0  0
  -25.5934  -33.8542   24.2262 N   0  0  0  0  0  0
  -23.4281  -30.4783   21.5449 C   0  0  2  0  0  0
  -24.8725  -28.9297   20.1059 C   0  0  0  0  0  0
  -22.7508  -29.4591   22.4928 C   0  0  0  0  0  0
  -18.0295  -28.1360   22.8463 C   0  0  0  0  0  0
  -24.1493  -36.7295   23.2636 C   0  0  0  0  0  0
  -25.9755  -30.7635   21.3812 C   0  0  0  0  0  0
  -26.0453  -29.3874   20.7211 C   0  0  0  0  0  0
  -27.2174  -28.5621   20.7203 C   0  0  0  0  0  0
  -26.0181  -26.8718   19.4714 C   0  0  0  0  0  0
  -24.8651  -27.6806   19.4706 C   0  0  0  0  0  0
  -23.6442  -29.8174   20.1590 C   0  0  0  0  0  0
  -25.4115  -36.3064   24.0313 C   0  0  1  0  0  0
  -20.5902  -28.3669   23.1256 C   0  0  2  0  0  0
  -20.6785  -26.9379   22.5410 C   0  0  0  0  0  0
  -19.5763  -26.6357   21.5204 C   0  0  0  0  0  0
  -18.1934  -26.7905   22.1604 C   0  0  0  0  0  0
  -19.1555  -28.8832   23.2845 C   0  0  0  0  0  0
  -18.9475  -30.1443   23.8834 C   0  0  0  0  0  0
  -17.6476  -30.6553   24.0557 C   0  0  0  0  0  0
  -25.9045  -34.9418   23.5096 C   0  0  0  0  0  0
  -16.5364  -29.9050   23.6323 C   0  0  0  0  0  0
  -16.7285  -28.6488   23.0302 C   0  0  0  0  0  0
  -26.4502  -31.6540   25.0715 C   0  0  0  0  0  0
  -25.3721  -31.3687   26.1433 C   0  0  0  0  0  0
  -27.0366  -30.2940   24.6230 C   0  0  0  0  0  0
  -27.6088  -32.4272   25.7450 C   0  0  0  0  0  0
  -27.5578  -37.1783   24.8449 C   0  0  0  0  0  0
  -21.4224  -29.3023   22.3647 N   0  0  0  0  0  0
  -26.4292  -37.3760   23.9401 N   0  0  0  0  0  0
  -24.6983  -31.0498   22.0977 N   0  0  0  0  0  0
  -23.4200  -28.8109   23.3009 O   0  0  0  0  0  0
  -28.2963  -26.3462   20.1993 O   0  0  0  0  0  0
  -26.5637  -34.8892   22.4669 O   0  0  0  0  0  0
  -23.5464  -32.1402   23.7270 O   0  0  0  0  0  0
  -27.5428  -21.5904   22.0447 C   0  0  0  0  0  0
  -26.9029  -20.7557   22.9687 C   0  0  0  0  0  0
  -28.4492  -21.0691   21.0897 C   0  0  0  0  0  0
  -27.1562  -19.3843   22.9184 C   0  0  0  0  0  0
  -28.6825  -19.6092   21.1423 C   0  0  0  0  0  0
  -26.4362  -18.4256   23.8442 C   0  0  0  0  0  0
  -28.9945  -22.1608   20.0794 C   0  0  0  0  0  0
  -29.5078  -18.6398   20.2029 C   0  0  0  0  0  0
  -29.0853  -23.7433   20.4984 C   0  0  0  0  0  0
  -30.3098  -17.3560   20.8288 C   0  0  0  0  0  0
  -28.0542  -24.8740   19.9750 C   0  0  0  0  0  0
  -28.0132  -18.8436   22.0358 N   0  0  0  0  0  0
  -29.8559  -15.8956   20.6663 N   0  0  0  0  0  0
  -31.4668  -12.5924   19.1559 H   0  0  0  0  0  0
  -30.3817  -11.4886   19.9567 H   0  0  0  0  0  0
  -29.7829  -11.7252   17.5214 H   0  0  0  0  0  0
  -29.6269  -13.4542   17.7091 H   0  0  0  0  0  0
  -27.8865  -11.2843   18.9170 H   0  0  0  0  0  0
  -27.3712  -12.5208   17.8005 H   0  0  0  0  0  0
  -27.6259  -14.2555   19.4597 H   0  0  0  0  0  0
  -28.7178  -12.1872   21.4303 H   0  0  0  0  0  0
  -28.4178  -13.8724   21.7796 H   0  0  0  0  0  0
  -25.2773   -9.5680   22.4768 H   0  0  0  0  0  0
  -24.0022   -7.4623   22.7458 H   0  0  0  0  0  0
  -21.0870   -8.8790   19.8942 H   0  0  0  0  0  0
  -22.3731  -10.9685   19.6175 H   0  0  0  0  0  0
  -21.1992   -7.6150   23.9727 H   0  0  0  0  0  0
  -21.1485   -6.0527   25.9087 H   0  0  0  0  0  0
  -22.0590   -2.7615   23.2862 H   0  0  0  0  0  0
  -22.4119  -11.9812   22.4804 H   0  0  0  0  0  0
  -21.1089  -13.1144   22.2687 H   0  0  0  0  0  0
  -24.6473  -15.8466   20.5408 H   0  0  0  0  0  0
  -26.2643  -15.6432   20.0994 H   0  0  0  0  0  0
  -26.7204  -32.5378   23.1075 H   0  0  0  0  0  0
  -25.0060  -33.9668   25.0392 H   0  0  0  0  0  0
  -22.7246  -31.3011   21.4011 H   0  0  0  0  0  0
  -23.3742  -35.9636   23.3278 H   0  0  0  0  0  0
  -24.3619  -36.8961   22.2065 H   0  0  0  0  0  0
  -23.7254  -37.6489   23.6690 H   0  0  0  0  0  0
  -26.1150  -31.5227   20.6104 H   0  0  0  0  0  0
  -26.8548  -30.8148   22.0122 H   0  0  0  0  0  0
  -28.1139  -28.9024   21.2199 H   0  0  0  0  0  0
  -25.9420  -25.9197   18.9676 H   0  0  0  0  0  0
  -23.9689  -27.3260   18.9787 H   0  0  0  0  0  0
  -23.7631  -30.5984   19.4067 H   0  0  0  0  0  0
  -22.7611  -29.2528   19.8560 H   0  0  0  0  0  0
  -25.1290  -36.1927   25.0806 H   0  0  0  0  0  0
  -20.9989  -28.3254   24.1377 H   0  0  0  0  0  0
  -20.5674  -26.2272   23.3615 H   0  0  0  0  0  0
  -21.6651  -26.7397   22.1202 H   0  0  0  0  0  0
  -19.6935  -25.6271   21.1220 H   0  0  0  0  0  0
  -19.6707  -27.3170   20.6732 H   0  0  0  0  0  0
  -17.4218  -26.6637   21.3989 H   0  0  0  0  0  0
  -18.0330  -26.0037   22.8986 H   0  0  0  0  0  0
  -19.7949  -30.7292   24.2144 H   0  0  0  0  0  0
  -17.5022  -31.6215   24.5190 H   0  0  0  0  0  0
  -15.5362  -30.2932   23.7690 H   0  0  0  0  0  0
  -15.8680  -28.0837   22.6972 H   0  0  0  0  0  0
  -24.5943  -30.6957   25.7789 H   0  0  0  0  0  0
  -24.8811  -32.2837   26.4771 H   0  0  0  0  0  0
  -25.8023  -30.8962   27.0268 H   0  0  0  0  0  0
  -26.2965  -29.6631   24.1288 H   0  0  0  0  0  0
  -27.4082  -29.7249   25.4765 H   0  0  0  0  0  0
  -27.8814  -30.4200   23.9461 H   0  0  0  0  0  0
  -27.2768  -33.3651   26.1924 H   0  0  0  0  0  0
  -28.3924  -32.6706   25.0256 H   0  0  0  0  0  0
  -28.0712  -31.8441   26.5432 H   0  0  0  0  0  0
  -28.2565  -38.0107   24.7548 H   0  0  0  0  0  0
  -28.1121  -36.2643   24.6230 H   0  0  0  0  0  0
  -27.2314  -37.1387   25.8856 H   0  0  0  0  0  0
  -20.9398  -29.8786   21.6899 H   0  0  0  0  0  0
  -26.0169  -38.2827   24.1429 H   0  0  0  0  0  0
  -27.2929  -22.6408   22.0641 H   0  0  0  0  0  0
  -26.1981  -21.1641   23.6818 H   0  0  0  0  0  0
  -25.3659  -18.4435   23.6379 H   0  0  0  0  0  0
  -26.5864  -18.7070   24.8863 H   0  0  0  0  0  0
  -26.7894  -17.4015   23.7139 H   0  0  0  0  0  0
  -28.4293  -22.0781   19.1503 H   0  0  0  0  0  0
  -30.0016  -21.8335   19.8226 H   0  0  0  0  0  0
  -30.2464  -19.2776   19.7149 H   0  0  0  0  0  0
  -28.8549  -18.3016   19.3995 H   0  0  0  0  0  0
  -30.0521  -24.0742   20.1154 H   0  0  0  0  0  0
  -29.2010  -23.8294   21.5793 H   0  0  0  0  0  0
  -30.4769  -17.5365   21.8906 H   0  0  0  0  0  0
  -31.3124  -17.4012   20.4002 H   0  0  0  0  0  0
  -27.0885  -24.6180   20.4120 H   0  0  0  0  0  0
  -27.9447  -24.7387   18.8973 H   0  0  0  0  0  0
  -28.8708  -15.7357   20.8131 H   0  0  0  0  0  0
  1 25  1  0  0  0
  1 30  2  0  0  0
  1 83  1  0  0  0
  2  3  1  0  0  0
  2 25  1  0  0  0
  2 84  1  0  0  0
  2 85  1  0  0  0
  3  4  1  0  0  0
  3 86  1  0  0  0
  3 87  1  0  0  0
  4  5  1  0  0  0
  4 88  1  0  0  0
  4 89  1  0  0  0
  5  6  1  0  0  0
  5 26  1  0  0  0
  5 90  1  0  0  0
  6 25  1  0  0  0
  6 91  1  0  0  0
  6 92  1  0  0  0
  7  8  2  0  0  0
  7 26  1  0  0  0
  7 29  1  0  0  0
  8  9  1  0  0  0
  8 22  1  0  0  0
  9 10  1  0  0  0
  9 27  2  0  0  0
 10 11  2  0  0  0
 10 15  1  0  0  0
 11 12  1  0  0  0
 11 93  1  0  0  0
 12 13  2  0  0  0
 12 94  1  0  0  0
 13 14  1  0  0  0
 13 31  1  0  0  0
 14 15  2  0  0  0
 14 95  1  0  0  0
 15 96  1  0  0  0
 16 17  2  0  0  0
 16 21  1  0  0  0
 16 31  1  0  0  0
 17 18  1  0  0  0
 17 97  1  0  0  0
 18 19  2  0  0  0
 18 98  1  0  0  0
 19 20  1  0  0  0
 19 24  1  0  0  0
 20 21  2  0  0  0
 20 99  1  0  0  0
 21 23  1  0  0  0
 22 28  1  0  0  0
 22 32  2  0  0  0
 26 27  1  0  0  0
 28100  1  0  0  0
 28101  1  0  0  0
 29102  1  0  0  0
 29103  1  0  0  0
 33 34  1  0  0  0
 33 66  1  0  0  0
 33 70  2  0  0  0
 34 36  1  0  0  0
 34 59  1  0  0  0
 34104  1  0  0  0
 35 44  2  0  0  0
 35 45  1  0  0  0
 35 68  1  0  0  0
 36 56  1  0  0  0
 36105  1  0  0  0
 37 39  1  0  0  0
 37 47  1  0  0  0
 37 66  1  0  0  0
 37106  1  0  0  0
 38 43  2  0  0  0
 38 46  1  0  0  0
 38 47  1  0  0  0
 39 64  1  0  0  0
 39 67  2  0  0  0
 40 52  1  0  0  0
 40 53  2  0  0  0
 40 58  1  0  0  0
 41107  1  0  0  0
 41108  1  0  0  0
 41109  1  0  0  0
 41 48  1  0  0  0
 42 43  1  0  0  0
 42 66  1  0  0  0
 42110  1  0  0  0
 42111  1  0  0  0
 43 44  1  0  0  0
 44112  1  0  0  0
 45 46  2  0  0  0
 45113  1  0  0  0
 46114  1  0  0  0
 47115  1  0  0  0
 47116  1  0  0  0
 48 56  1  0  0  0
 48 65  1  0  0  0
 48117  1  0  0  0
 49 50  1  0  0  0
 49 53  1  0  0  0
 49 64  1  0  0  0
 49118  1  0  0  0
 50 51  1  0  0  0
 50119  1  0  0  0
 50120  1  0  0  0
 51 52  1  0  0  0
 51121  1  0  0  0
 51122  1  0  0  0
 52123  1  0  0  0
 52124  1  0  0  0
 53 54  1  0  0  0
 54 55  2  0  0  0
 54125  1  0  0  0
 55 57  1  0  0  0
 55126  1  0  0  0
 56 69  2  0  0  0
 57 58  2  0  0  0
 57127  1  0  0  0
 58128  1  0  0  0
 59 60  1  0  0  0
 59 61  1  0  0  0
 59 62  1  0  0  0
 60129  1  0  0  0
 60130  1  0  0  0
 60131  1  0  0  0
 61132  1  0  0  0
 61133  1  0  0  0
 61134  1  0  0  0
 62135  1  0  0  0
 62136  1  0  0  0
 62137  1  0  0  0
 63 65  1  0  0  0
 63138  1  0  0  0
 63139  1  0  0  0
 63140  1  0  0  0
 64141  1  0  0  0
 65142  1  0  0  0
 68 81  1  0  0  0
 71 72  2  0  0  0
 71 73  1  0  0  0
 71143  1  0  0  0
 72 74  1  0  0  0
 72144  1  0  0  0
 73 75  2  0  0  0
 73 77  1  0  0  0
 74 76  1  0  0  0
 74 82  2  0  0  0
 75 78  1  0  0  0
 75 82  1  0  0  0
 76145  1  0  0  0
 76146  1  0  0  0
 76147  1  0  0  0
 77 79  1  0  0  0
 77148  1  0  0  0
 77149  1  0  0  0
 78 80  1  0  0  0
 78150  1  0  0  0
 78151  1  0  0  0
 79 81  1  0  0  0
 79152  1  0  0  0
 79153  1  0  0  0
 80 83  1  0  0  0
 80154  1  0  0  0
 80155  1  0  0  0
 81156  1  0  0  0
 81157  1  0  0  0
 83158  1  0  0  0
M  ISO  4   1 100  68 101  81 101  83 100
M  END
> <chiral flag>
0

> <version>
0

> <s_m_source_file>
/data/baiqing/PycharmProjects/Reinvent-master-3.2/result/LINK_invent/BTK/process_docking_weight1_custom_sum_contain_oxygen_bond_distance_aromatic_linkinvent_7_9_3/rearranged_h_0082.sdf

> <i_m_source_file_index>
44

> <r_mmod_Potential_Energy-OPLS-2005>
77.5093078613281

> <r_mmod_Stretch_Energy-OPLS-2005>
136.613754272461

> <r_mmod_Bend_Energy-OPLS-2005>
201.696365356445

> <r_mmod_Torsional_Energy-OPLS-2005>
226.928344726562

> <r_mmod_Improper_Torsional_Energy-OPLS-2005>
4.72605848312378

> <r_mmod_Van_der_Waal_Energy-OPLS-2005>
139.937454223633

> <r_mmod_Electrostatic_Energy-OPLS-2005>
-506.928771972656

> <r_mmod_Solvation_Energy-OPLS-2005>
-217.014007568359

> <b_mmod_Minimization_Converged-OPLS-2005>
0

> <r_mmod_RMS_Derivative-OPLS-2005>
2.45884037017822

$$$$
45
                    3D
 Structure written by MMmdl.
170178  0  0  1  0            999 V2000
  -30.6974  -14.4666   20.5481 C   0  0  0  0  0  0
  -30.4291  -12.3023   19.4039 C   0  0  0  0  0  0
  -29.4775  -12.4936   18.1989 C   0  0  0  0  0  0
  -28.0033  -12.3656   18.6286 C   0  0  0  0  0  0
  -27.6692  -13.2008   19.8895 C   0  0  2  0  0  0
  -28.7199  -12.9675   21.0008 C   0  0  0  0  0  0
  -25.2633  -13.8200   20.5719 C   0  0  0  0  0  0
  -24.1905  -13.0462   20.9245 C   0  0  0  0  0  0
  -24.6440  -11.6927   20.8800 C   0  0  0  0  0  0
  -23.9129  -10.4306   21.0419 C   0  0  0  0  0  0
  -24.3671   -9.4211   21.9174 C   0  0  0  0  0  0
  -23.6347   -8.2260   22.0733 C   0  0  0  0  0  0
  -22.4302   -8.0309   21.3552 C   0  0  0  0  0  0
  -21.9976   -9.0301   20.4639 C   0  0  0  0  0  0
  -22.7331  -10.2165   20.3054 C   0  0  0  0  0  0
  -21.6865   -6.0754   22.5265 C   0  0  0  0  0  0
  -21.3992   -6.5656   23.8195 C   0  0  0  0  0  0
  -21.3655   -5.6793   24.9147 C   0  0  0  0  0  0
  -21.6054   -4.3073   24.7192 C   0  0  0  0  0  0
  -21.8847   -3.8184   23.4318 C   0  0  0  0  0  0
  -21.9215   -4.7003   22.3384 C   0  0  0  0  0  0
  -22.7925  -13.5184   21.1896 C   0  0  0  0  0  0
  -22.1691   -4.2186   21.0960 F   0  0  0  0  0  0
  -21.5651   -3.4552   25.7713 F   0  0  0  0  0  0
  -30.0485  -13.2754   20.4375 N   0  0  0  0  0  0
  -26.3082  -12.9344   20.3505 N   0  0  0  0  0  0
  -25.9367  -11.6516   20.5917 N   0  0  0  0  0  0
  -22.0622  -12.8129   22.0435 N   0  0  0  0  0  0
  -25.4366  -15.1904   20.3974 N   0  0  0  0  0  0
  -31.8274  -14.6710   20.1052 O   0  0  0  0  0  0
  -21.6675   -6.8917   21.4232 O   0  0  0  0  0  0
  -22.3554  -14.5462   20.6728 O   0  0  0  0  0  0
  -24.6113  -31.8633   23.2062 C   0  0  0  0  0  0
  -25.9045  -32.4792   23.8330 C   0  0  1  0  0  0
  -27.2388  -27.4271   20.1140 C   0  0  0  0  0  0
  -25.5890  -33.8584   24.2285 N   0  0  0  0  0  0
  -23.3994  -30.4858   21.5475 C   0  0  2  0  0  0
  -24.8523  -28.9390   20.1238 C   0  0  0  0  0  0
  -22.7366  -29.4660   22.4987 C   0  0  0  0  0  0
  -18.0325  -28.1369   22.8483 C   0  0  0  0  0  0
  -24.1490  -36.7338   23.2634 C   0  0  0  0  0  0
  -25.9260  -30.8299   21.3562 C   0  0  0  0  0  0
  -26.0083  -29.4550   20.7259 C   0  0  0  0  0  0
  -27.2056  -28.6985   20.7283 C   0  0  0  0  0  0
  -26.0748  -26.9247   19.5046 C   0  0  0  0  0  0
  -24.8778  -27.6695   19.5188 C   0  0  0  0  0  0
  -23.6103  -29.8003   20.1691 C   0  0  0  0  0  0
  -25.4093  -36.3101   24.0336 C   0  0  1  0  0  0
  -20.5912  -28.3615   23.1299 C   0  0  2  0  0  0
  -20.6767  -26.9412   22.5270 C   0  0  0  0  0  0
  -19.5735  -26.6584   21.4970 C   0  0  0  0  0  0
  -18.1995  -26.7955   22.1568 C   0  0  0  0  0  0
  -19.1590  -28.8798   23.2946 C   0  0  0  0  0  0
  -18.9543  -30.1354   23.9070 C   0  0  0  0  0  0
  -17.6574  -30.6527   24.0722 C   0  0  0  0  0  0
  -25.9009  -34.9451   23.5123 C   0  0  0  0  0  0
  -16.5456  -29.9088   23.6344 C   0  0  0  0  0  0
  -16.7336  -28.6549   23.0334 C   0  0  0  0  0  0
  -26.4459  -31.6581   25.0663 C   0  0  0  0  0  0
  -25.3717  -31.3712   26.1426 C   0  0  0  0  0  0
  -27.0330  -30.3033   24.6062 C   0  0  0  0  0  0
  -27.6019  -32.4278   25.7481 C   0  0  0  0  0  0
  -27.5571  -37.1814   24.8451 C   0  0  0  0  0  0
  -21.4102  -29.3049   22.3746 N   0  0  0  0  0  0
  -26.4273  -37.3775   23.9403 N   0  0  0  0  0  0
  -24.6646  -31.0736   22.0949 N   0  0  0  0  0  0
  -23.4168  -28.8196   23.3034 O   0  0  0  0  0  0
  -28.3982  -26.6887   20.0437 O   0  0  0  0  0  0
  -26.5564  -34.8918   22.4678 O   0  0  0  0  0  0
  -23.5305  -32.1399   23.7455 O   0  0  0  0  0  0
  -29.8417  -19.9375   21.1104 C   0  0  0  0  0  0
  -28.7613  -19.1525   21.5530 C   0  0  0  0  0  0
  -27.6170  -19.8305   22.0798 C   0  0  0  0  0  0
  -27.6720  -21.2478   22.1973 C   0  0  0  0  0  0
  -28.8468  -21.9256   21.7772 C   0  0  0  0  0  0
  -26.4840  -22.0220   22.7716 C   0  0  0  0  0  0
  -25.2294  -19.1291   20.2311 C   0  0  0  0  0  0
  -29.9113  -17.2272   19.2228 C   0  0  0  0  0  0
  -28.8650  -17.6125   21.5291 C   0  0  0  0  0  0
  -26.3791  -19.0650   22.5939 C   0  0  0  0  0  0
  -29.0939  -23.4252   21.9809 C   0  0  0  0  0  0
  -25.0782  -19.1907   21.7552 C   0  0  0  0  0  0
  -28.5942  -24.3292   20.8275 C   0  0  0  0  0  0
  -28.6831  -25.8413   21.1681 C   0  0  0  0  0  0
  -30.0149  -16.9231   20.7339 C   0  0  1  0  0  0
  -29.8798  -21.2788   21.2089 N   0  0  0  0  0  0
  -29.9101  -15.4717   20.9752 N   0  0  0  0  0  0
  -31.4607  -12.4268   19.0727 H   0  0  0  0  0  0
  -30.3571  -11.2881   19.8053 H   0  0  0  0  0  0
  -29.6973  -11.7599   17.4240 H   0  0  0  0  0  0
  -29.6361  -13.4751   17.7443 H   0  0  0  0  0  0
  -27.8023  -11.3129   18.8327 H   0  0  0  0  0  0
  -27.3425  -12.6497   17.8106 H   0  0  0  0  0  0
  -27.7187  -14.2484   19.5926 H   0  0  0  0  0  0
  -28.6976  -11.9334   21.3508 H   0  0  0  0  0  0
  -28.4976  -13.5675   21.8819 H   0  0  0  0  0  0
  -25.2812   -9.5681   22.4722 H   0  0  0  0  0  0
  -24.0088   -7.4616   22.7396 H   0  0  0  0  0  0
  -21.0937   -8.8865   19.8878 H   0  0  0  0  0  0
  -22.3858  -10.9720   19.6171 H   0  0  0  0  0  0
  -21.1959   -7.6143   23.9705 H   0  0  0  0  0  0
  -21.1425   -6.0507   25.9040 H   0  0  0  0  0  0
  -22.0627   -2.7641   23.2804 H   0  0  0  0  0  0
  -22.4294  -11.9803   22.4835 H   0  0  0  0  0  0
  -21.1198  -13.1060   22.2553 H   0  0  0  0  0  0
  -24.6766  -15.8520   20.4917 H   0  0  0  0  0  0
  -26.2872  -15.6210   20.0632 H   0  0  0  0  0  0
  -26.7142  -32.5563   23.1113 H   0  0  0  0  0  0
  -25.0045  -33.9715   25.0439 H   0  0  0  0  0  0
  -22.6875  -31.3016   21.3987 H   0  0  0  0  0  0
  -23.3710  -35.9709   23.3294 H   0  0  0  0  0  0
  -24.3580  -36.8946   22.2042 H   0  0  0  0  0  0
  -23.7305  -37.6571   23.6647 H   0  0  0  0  0  0
  -26.0210  -31.5708   20.5608 H   0  0  0  0  0  0
  -26.8214  -30.9060   21.9618 H   0  0  0  0  0  0
  -28.1049  -29.0854   21.1963 H   0  0  0  0  0  0
  -26.0949  -25.9556   19.0216 H   0  0  0  0  0  0
  -23.9906  -27.2581   19.0567 H   0  0  0  0  0  0
  -23.7119  -30.5599   19.3920 H   0  0  0  0  0  0
  -22.7385  -29.2071   19.8843 H   0  0  0  0  0  0
  -25.1293  -36.1933   25.0819 H   0  0  0  0  0  0
  -21.0002  -28.3163   24.1443 H   0  0  0  0  0  0
  -20.5513  -26.2181   23.3320 H   0  0  0  0  0  0
  -21.6687  -26.7444   22.1197 H   0  0  0  0  0  0
  -19.6947  -25.6665   21.0616 H   0  0  0  0  0  0
  -19.6581  -27.3692   20.6740 H   0  0  0  0  0  0
  -17.4118  -26.6688   21.4136 H   0  0  0  0  0  0
  -18.0623  -26.0113   22.9060 H   0  0  0  0  0  0
  -19.8032  -30.7104   24.2567 H   0  0  0  0  0  0
  -17.5133  -31.6174   24.5338 H   0  0  0  0  0  0
  -15.5439  -30.3038   23.7567 H   0  0  0  0  0  0
  -15.8706  -28.0945   22.6939 H   0  0  0  0  0  0
  -24.5850  -30.7120   25.7754 H   0  0  0  0  0  0
  -24.8970  -32.2900   26.4888 H   0  0  0  0  0  0
  -25.8039  -30.8843   27.0186 H   0  0  0  0  0  0
  -26.2905  -29.6768   24.1108 H   0  0  0  0  0  0
  -27.4125  -29.7301   25.4543 H   0  0  0  0  0  0
  -27.8713  -30.4391   23.9216 H   0  0  0  0  0  0
  -27.2635  -33.3537   26.2143 H   0  0  0  0  0  0
  -28.3830  -32.6890   25.0330 H   0  0  0  0  0  0
  -28.0705  -31.8341   26.5347 H   0  0  0  0  0  0
  -28.2596  -38.0097   24.7487 H   0  0  0  0  0  0
  -28.1066  -36.2643   24.6297 H   0  0  0  0  0  0
  -27.2295  -37.1500   25.8850 H   0  0  0  0  0  0
  -20.9179  -29.8751   21.6982 H   0  0  0  0  0  0
  -26.0173  -38.2859   24.1343 H   0  0  0  0  0  0
  -30.7396  -19.4967   20.7031 H   0  0  0  0  0  0
  -25.6855  -22.0922   22.0309 H   0  0  0  0  0  0
  -26.7429  -23.0270   23.0946 H   0  0  0  0  0  0
  -26.0714  -21.5381   23.6550 H   0  0  0  0  0  0
  -26.0489  -18.4706   19.9365 H   0  0  0  0  0  0
  -25.4097  -20.1244   19.8155 H   0  0  0  0  0  0
  -24.3113  -18.7523   19.7749 H   0  0  0  0  0  0
  -28.9239  -16.9734   18.8366 H   0  0  0  0  0  0
  -30.6496  -16.6556   18.6596 H   0  0  0  0  0  0
  -30.1036  -18.2698   18.9728 H   0  0  0  0  0  0
  -27.9178  -17.2127   21.1671 H   0  0  0  0  0  0
  -28.9668  -17.2913   22.5667 H   0  0  0  0  0  0
  -26.1657  -19.3888   23.6154 H   0  0  0  0  0  0
  -26.6062  -18.0106   22.7272 H   0  0  0  0  0  0
  -30.1698  -23.5747   22.0826 H   0  0  0  0  0  0
  -28.7111  -23.7476   22.9447 H   0  0  0  0  0  0
  -24.3732  -18.4248   22.0784 H   0  0  0  0  0  0
  -24.5705  -20.1294   21.9822 H   0  0  0  0  0  0
  -27.5683  -24.0573   20.5793 H   0  0  0  0  0  0
  -29.1815  -24.1074   19.9383 H   0  0  0  0  0  0
  -29.7039  -26.0673   21.4824 H   0  0  0  0  0  0
  -28.0449  -26.0722   22.0256 H   0  0  0  0  0  0
  -30.9912  -17.2536   21.0960 H   0  0  0  0  0  0
  -29.0387  -15.1679   21.3771 H   0  0  0  0  0  0
  1 25  1  0  0  0
  1 30  2  0  0  0
  1 87  1  0  0  0
  2  3  1  0  0  0
  2 25  1  0  0  0
  2 88  1  0  0  0
  2 89  1  0  0  0
  3  4  1  0  0  0
  3 90  1  0  0  0
  3 91  1  0  0  0
  4  5  1  0  0  0
  4 92  1  0  0  0
  4 93  1  0  0  0
  5  6  1  0  0  0
  5 26  1  0  0  0
  5 94  1  0  0  0
  6 25  1  0  0  0
  6 95  1  0  0  0
  6 96  1  0  0  0
  7  8  2  0  0  0
  7 26  1  0  0  0
  7 29  1  0  0  0
  8  9  1  0  0  0
  8 22  1  0  0  0
  9 10  1  0  0  0
  9 27  2  0  0  0
 10 11  2  0  0  0
 10 15  1  0  0  0
 11 12  1  0  0  0
 11 97  1  0  0  0
 12 13  2  0  0  0
 12 98  1  0  0  0
 13 14  1  0  0  0
 13 31  1  0  0  0
 14 15  2  0  0  0
 14 99  1  0  0  0
 15100  1  0  0  0
 16 17  2  0  0  0
 16 21  1  0  0  0
 16 31  1  0  0  0
 17 18  1  0  0  0
 17101  1  0  0  0
 18 19  2  0  0  0
 18102  1  0  0  0
 19 20  1  0  0  0
 19 24  1  0  0  0
 20 21  2  0  0  0
 20103  1  0  0  0
 21 23  1  0  0  0
 22 28  1  0  0  0
 22 32  2  0  0  0
 26 27  1  0  0  0
 28104  1  0  0  0
 28105  1  0  0  0
 29106  1  0  0  0
 29107  1  0  0  0
 33 34  1  0  0  0
 33 66  1  0  0  0
 33 70  2  0  0  0
 34 36  1  0  0  0
 34 59  1  0  0  0
 34108  1  0  0  0
 35 44  2  0  0  0
 35 45  1  0  0  0
 35 68  1  0  0  0
 36 56  1  0  0  0
 36109  1  0  0  0
 37 39  1  0  0  0
 37 47  1  0  0  0
 37 66  1  0  0  0
 37110  1  0  0  0
 38 43  2  0  0  0
 38 46  1  0  0  0
 38 47  1  0  0  0
 39 64  1  0  0  0
 39 67  2  0  0  0
 40 52  1  0  0  0
 40 53  2  0  0  0
 40 58  1  0  0  0
 41111  1  0  0  0
 41112  1  0  0  0
 41113  1  0  0  0
 41 48  1  0  0  0
 42 43  1  0  0  0
 42 66  1  0  0  0
 42114  1  0  0  0
 42115  1  0  0  0
 43 44  1  0  0  0
 44116  1  0  0  0
 45 46  2  0  0  0
 45117  1  0  0  0
 46118  1  0  0  0
 47119  1  0  0  0
 47120  1  0  0  0
 48 56  1  0  0  0
 48 65  1  0  0  0
 48121  1  0  0  0
 49 50  1  0  0  0
 49 53  1  0  0  0
 49 64  1  0  0  0
 49122  1  0  0  0
 50 51  1  0  0  0
 50123  1  0  0  0
 50124  1  0  0  0
 51 52  1  0  0  0
 51125  1  0  0  0
 51126  1  0  0  0
 52127  1  0  0  0
 52128  1  0  0  0
 53 54  1  0  0  0
 54 55  2  0  0  0
 54129  1  0  0  0
 55 57  1  0  0  0
 55130  1  0  0  0
 56 69  2  0  0  0
 57 58  2  0  0  0
 57131  1  0  0  0
 58132  1  0  0  0
 59 60  1  0  0  0
 59 61  1  0  0  0
 59 62  1  0  0  0
 60133  1  0  0  0
 60134  1  0  0  0
 60135  1  0  0  0
 61136  1  0  0  0
 61137  1  0  0  0
 61138  1  0  0  0
 62139  1  0  0  0
 62140  1  0  0  0
 62141  1  0  0  0
 63 65  1  0  0  0
 63142  1  0  0  0
 63143  1  0  0  0
 63144  1  0  0  0
 64145  1  0  0  0
 65146  1  0  0  0
 68 84  1  0  0  0
 71 72  2  0  0  0
 71 86  1  0  0  0
 71147  1  0  0  0
 72 73  1  0  0  0
 72 79  1  0  0  0
 73 74  2  0  0  0
 73 80  1  0  0  0
 74 75  1  0  0  0
 74 76  1  0  0  0
 75 81  1  0  0  0
 75 86  2  0  0  0
 76148  1  0  0  0
 76149  1  0  0  0
 76150  1  0  0  0
 77 82  1  0  0  0
 77151  1  0  0  0
 77152  1  0  0  0
 77153  1  0  0  0
 78154  1  0  0  0
 78155  1  0  0  0
 78156  1  0  0  0
 78 85  1  0  0  0
 79 85  1  0  0  0
 79157  1  0  0  0
 79158  1  0  0  0
 80 82  1  0  0  0
 80159  1  0  0  0
 80160  1  0  0  0
 81 83  1  0  0  0
 81161  1  0  0  0
 81162  1  0  0  0
 82163  1  0  0  0
 82164  1  0  0  0
 83 84  1  0  0  0
 83165  1  0  0  0
 83166  1  0  0  0
 84167  1  0  0  0
 84168  1  0  0  0
 85 87  1  0  0  0
 85169  1  0  0  0
 87170  1  0  0  0
M  ISO  4   1 100  68 101  84 101  87 100
M  END
> <chiral flag>
0

> <version>
0

> <s_m_source_file>
/data/baiqing/PycharmProjects/Reinvent-master-3.2/result/LINK_invent/BTK/process_docking_weight1_custom_sum_contain_oxygen_bond_distance_aromatic_linkinvent_7_9_3/rearranged_h_0082.sdf

> <i_m_source_file_index>
45

> <r_mmod_Potential_Energy-OPLS-2005>
-234.153549194336

> <r_mmod_Stretch_Energy-OPLS-2005>
42.84814453125

> <r_mmod_Bend_Energy-OPLS-2005>
110.121253967285

> <r_mmod_Torsional_Energy-OPLS-2005>
233.539093017578

> <r_mmod_Improper_Torsional_Energy-OPLS-2005>
6.04674434661865

> <r_mmod_Van_der_Waal_Energy-OPLS-2005>
149.852630615234

> <r_mmod_Electrostatic_Energy-OPLS-2005>
-569.260864257812

> <r_mmod_Solvation_Energy-OPLS-2005>
-219.541717529297

> <b_mmod_Minimization_Converged-OPLS-2005>
0

> <r_mmod_RMS_Derivative-OPLS-2005>
8.7335844039917

$$$$
46
                    3D
 Structure written by MMmdl.
154162  0  0  1  0            999 V2000
  -30.6154  -14.6915   20.4836 C   0  0  0  0  0  0
  -30.4369  -12.4253   19.4589 C   0  0  0  0  0  0
  -29.5079  -12.5020   18.2274 C   0  0  0  0  0  0
  -28.0323  -12.3345   18.6415 C   0  0  0  0  0  0
  -27.6465  -13.2228   19.8546 C   0  0  2  0  0  0
  -28.6921  -13.1202   20.9861 C   0  0  0  0  0  0
  -25.2540  -13.8182   20.5690 C   0  0  0  0  0  0
  -24.1819  -13.0442   20.9207 C   0  0  0  0  0  0
  -24.6395  -11.6914   20.8748 C   0  0  0  0  0  0
  -23.9067  -10.4295   21.0407 C   0  0  0  0  0  0
  -24.3617   -9.4210   21.9184 C   0  0  0  0  0  0
  -23.6292   -8.2244   22.0752 C   0  0  0  0  0  0
  -22.4274   -8.0280   21.3543 C   0  0  0  0  0  0
  -21.9911   -9.0255   20.4645 C   0  0  0  0  0  0
  -22.7240  -10.2135   20.3053 C   0  0  0  0  0  0
  -21.6854   -6.0734   22.5278 C   0  0  0  0  0  0
  -21.4013   -6.5639   23.8210 C   0  0  0  0  0  0
  -21.3657   -5.6792   24.9173 C   0  0  0  0  0  0
  -21.6046   -4.3055   24.7225 C   0  0  0  0  0  0
  -21.8819   -3.8146   23.4346 C   0  0  0  0  0  0
  -21.9195   -4.6962   22.3400 C   0  0  0  0  0  0
  -22.7841  -13.5229   21.1864 C   0  0  0  0  0  0
  -22.1663   -4.2148   21.0977 F   0  0  0  0  0  0
  -21.5628   -3.4538   25.7737 F   0  0  0  0  0  0
  -29.9966  -13.4687   20.4079 N   0  0  0  0  0  0
  -26.2961  -12.9370   20.3293 N   0  0  0  0  0  0
  -25.9323  -11.6524   20.5754 N   0  0  0  0  0  0
  -22.0488  -12.8212   22.0417 N   0  0  0  0  0  0
  -25.4254  -15.1900   20.4085 N   0  0  0  0  0  0
  -31.7993  -14.8205   20.1609 O   0  0  0  0  0  0
  -21.6641   -6.8875   21.4237 O   0  0  0  0  0  0
  -22.3526  -14.5540   20.6720 O   0  0  0  0  0  0
  -24.6284  -31.8576   23.1999 C   0  0  0  0  0  0
  -25.9116  -32.4774   23.8339 C   0  0  1  0  0  0
  -27.2230  -27.2933   20.1341 C   0  0  0  0  0  0
  -25.5924  -33.8577   24.2270 N   0  0  0  0  0  0
  -23.4240  -30.4788   21.5426 C   0  0  2  0  0  0
  -24.8718  -28.9256   20.1140 C   0  0  0  0  0  0
  -22.7489  -29.4606   22.4930 C   0  0  0  0  0  0
  -18.0289  -28.1394   22.8487 C   0  0  0  0  0  0
  -24.1484  -36.7295   23.2642 C   0  0  0  0  0  0
  -25.9659  -30.7815   21.3725 C   0  0  0  0  0  0
  -26.0410  -29.4045   20.7194 C   0  0  0  0  0  0
  -27.2224  -28.6016   20.7146 C   0  0  0  0  0  0
  -26.0349  -26.8691   19.5040 C   0  0  0  0  0  0
  -24.8715  -27.6647   19.4951 C   0  0  0  0  0  0
  -23.6411  -29.8098   20.1592 C   0  0  0  0  0  0
  -25.4111  -36.3087   24.0330 C   0  0  1  0  0  0
  -20.5890  -28.3695   23.1286 C   0  0  2  0  0  0
  -20.6780  -26.9417   22.5412 C   0  0  0  0  0  0
  -19.5752  -26.6386   21.5221 C   0  0  0  0  0  0
  -18.1929  -26.7937   22.1626 C   0  0  0  0  0  0
  -19.1542  -28.8861   23.2881 C   0  0  0  0  0  0
  -18.9464  -30.1463   23.8897 C   0  0  0  0  0  0
  -17.6464  -30.6594   24.0563 C   0  0  0  0  0  0
  -25.9049  -34.9454   23.5102 C   0  0  0  0  0  0
  -16.5355  -29.9091   23.6333 C   0  0  0  0  0  0
  -16.7275  -28.6510   23.0352 C   0  0  0  0  0  0
  -26.4492  -31.6601   25.0723 C   0  0  0  0  0  0
  -25.3721  -31.3747   26.1449 C   0  0  0  0  0  0
  -27.0347  -30.3032   24.6184 C   0  0  0  0  0  0
  -27.6044  -32.4341   25.7499 C   0  0  0  0  0  0
  -27.5575  -37.1801   24.8465 C   0  0  0  0  0  0
  -21.4200  -29.3048   22.3679 N   0  0  0  0  0  0
  -26.4288  -37.3783   23.9409 N   0  0  0  0  0  0
  -24.6918  -31.0562   22.0958 N   0  0  0  0  0  0
  -23.4202  -28.8146   23.3016 O   0  0  0  0  0  0
  -28.3322  -26.4302   20.1393 O   0  0  0  0  0  0
  -26.5616  -34.8924   22.4668 O   0  0  0  0  0  0
  -23.5438  -32.1385   23.7308 O   0  0  0  0  0  0
  -29.0916  -21.0837   20.0636 C   0  0  0  0  0  0
  -29.0651  -22.3259   22.1125 C   0  0  0  0  0  0
  -28.9917  -22.3809   20.7054 C   0  0  0  0  0  0
  -29.2358  -19.8713   20.8505 C   0  0  0  0  0  0
  -29.0520  -18.2863   18.7978 C   0  0  0  0  0  0
  -28.8878  -23.7852   19.9647 C   0  0  0  0  0  0
  -30.1866  -17.2635   20.8640 C   0  0  0  0  0  0
  -28.1578  -25.0423   20.6632 C   0  0  0  0  0  0
  -29.1378  -18.3658   20.3308 C   0  0  1  0  0  0
  -29.1990  -21.1695   22.8126 N   0  0  0  0  0  0
  -29.2651  -19.9787   22.2023 N   0  0  0  0  0  0
  -29.8230  -15.7897   20.7375 N   0  0  0  0  0  0
  -31.4764  -12.5566   19.1540 H   0  0  0  0  0  0
  -30.3841  -11.4401   19.9254 H   0  0  0  0  0  0
  -29.7810  -11.7346   17.5022 H   0  0  0  0  0  0
  -29.6412  -13.4609   17.7235 H   0  0  0  0  0  0
  -27.8794  -11.2841   18.8919 H   0  0  0  0  0  0
  -27.3754  -12.5425   17.7958 H   0  0  0  0  0  0
  -27.6519  -14.2503   19.4910 H   0  0  0  0  0  0
  -28.7185  -12.1115   21.4009 H   0  0  0  0  0  0
  -28.4354  -13.7806   21.8159 H   0  0  0  0  0  0
  -25.2762   -9.5685   22.4761 H   0  0  0  0  0  0
  -24.0004   -7.4633   22.7469 H   0  0  0  0  0  0
  -21.0846   -8.8769   19.8946 H   0  0  0  0  0  0
  -22.3697  -10.9673   19.6159 H   0  0  0  0  0  0
  -21.2001   -7.6146   23.9711 H   0  0  0  0  0  0
  -21.1480   -6.0523   25.9075 H   0  0  0  0  0  0
  -22.0601   -2.7610   23.2846 H   0  0  0  0  0  0
  -22.4112  -11.9865   22.4782 H   0  0  0  0  0  0
  -21.1104  -13.1225   22.2627 H   0  0  0  0  0  0
  -24.6577  -15.8441   20.5158 H   0  0  0  0  0  0
  -26.2634  -15.6231   20.0432 H   0  0  0  0  0  0
  -26.7182  -32.5438   23.1082 H   0  0  0  0  0  0
  -25.0089  -33.9723   25.0426 H   0  0  0  0  0  0
  -22.7195  -31.2999   21.3958 H   0  0  0  0  0  0
  -23.3751  -35.9624   23.3310 H   0  0  0  0  0  0
  -24.3575  -36.8913   22.2056 H   0  0  0  0  0  0
  -23.7229  -37.6494   23.6664 H   0  0  0  0  0  0
  -26.0943  -31.5402   20.5994 H   0  0  0  0  0  0
  -26.8482  -30.8364   21.9989 H   0  0  0  0  0  0
  -28.1217  -28.9661   21.1903 H   0  0  0  0  0  0
  -25.9995  -25.9023   19.0217 H   0  0  0  0  0  0
  -23.9762  -27.2941   19.0151 H   0  0  0  0  0  0
  -23.7639  -30.5858   19.4025 H   0  0  0  0  0  0
  -22.7607  -29.2410   19.8544 H   0  0  0  0  0  0
  -25.1286  -36.1942   25.0822 H   0  0  0  0  0  0
  -20.9974  -28.3269   24.1410 H   0  0  0  0  0  0
  -20.5698  -26.2302   23.3612 H   0  0  0  0  0  0
  -21.6644  -26.7455   22.1191 H   0  0  0  0  0  0
  -19.6919  -25.6296   21.1253 H   0  0  0  0  0  0
  -19.6698  -27.3194   20.6751 H   0  0  0  0  0  0
  -17.4202  -26.6693   21.4022 H   0  0  0  0  0  0
  -18.0318  -26.0078   22.9020 H   0  0  0  0  0  0
  -19.7941  -30.7279   24.2263 H   0  0  0  0  0  0
  -17.5021  -31.6275   24.5164 H   0  0  0  0  0  0
  -15.5356  -30.2993   23.7667 H   0  0  0  0  0  0
  -15.8673  -28.0832   22.7068 H   0  0  0  0  0  0
  -24.5890  -30.7100   25.7782 H   0  0  0  0  0  0
  -24.8916  -32.2919   26.4868 H   0  0  0  0  0  0
  -25.8036  -30.8930   27.0234 H   0  0  0  0  0  0
  -26.2935  -29.6779   24.1197 H   0  0  0  0  0  0
  -27.4048  -29.7285   25.4685 H   0  0  0  0  0  0
  -27.8792  -30.4336   23.9413 H   0  0  0  0  0  0
  -27.2653  -33.3647   26.2062 H   0  0  0  0  0  0
  -28.3863  -32.6897   25.0336 H   0  0  0  0  0  0
  -28.0705  -31.8481   26.5431 H   0  0  0  0  0  0
  -28.2590  -38.0100   24.7509 H   0  0  0  0  0  0
  -28.1068  -36.2628   24.6290 H   0  0  0  0  0  0
  -27.2293  -37.1446   25.8869 H   0  0  0  0  0  0
  -20.9385  -29.8780   21.6893 H   0  0  0  0  0  0
  -26.0173  -38.2859   24.1412 H   0  0  0  0  0  0
  -29.0378  -21.0213   18.9871 H   0  0  0  0  0  0
  -29.0308  -23.2234   22.7101 H   0  0  0  0  0  0
  -28.2038  -18.8544   18.4162 H   0  0  0  0  0  0
  -28.9254  -17.2566   18.4630 H   0  0  0  0  0  0
  -29.9577  -18.6770   18.3328 H   0  0  0  0  0  0
  -28.4204  -23.6161   18.9947 H   0  0  0  0  0  0
  -29.9128  -24.0843   19.7438 H   0  0  0  0  0  0
  -30.3382  -17.4318   21.9304 H   0  0  0  0  0  0
  -31.1595  -17.4417   20.4039 H   0  0  0  0  0  0
  -28.5266  -25.1123   21.6851 H   0  0  0  0  0  0
  -27.1007  -24.7986   20.7719 H   0  0  0  0  0  0
  -28.1647  -18.0416   20.7021 H   0  0  0  0  0  0
  -28.8579  -15.5662   20.9270 H   0  0  0  0  0  0
  1 25  1  0  0  0
  1 30  2  0  0  0
  1 82  1  0  0  0
  2  3  1  0  0  0
  2 25  1  0  0  0
  2 83  1  0  0  0
  2 84  1  0  0  0
  3  4  1  0  0  0
  3 85  1  0  0  0
  3 86  1  0  0  0
  4  5  1  0  0  0
  4 87  1  0  0  0
  4 88  1  0  0  0
  5  6  1  0  0  0
  5 26  1  0  0  0
  5 89  1  0  0  0
  6 25  1  0  0  0
  6 90  1  0  0  0
  6 91  1  0  0  0
  7  8  2  0  0  0
  7 26  1  0  0  0
  7 29  1  0  0  0
  8  9  1  0  0  0
  8 22  1  0  0  0
  9 10  1  0  0  0
  9 27  2  0  0  0
 10 11  2  0  0  0
 10 15  1  0  0  0
 11 12  1  0  0  0
 11 92  1  0  0  0
 12 13  2  0  0  0
 12 93  1  0  0  0
 13 14  1  0  0  0
 13 31  1  0  0  0
 14 15  2  0  0  0
 14 94  1  0  0  0
 15 95  1  0  0  0
 16 17  2  0  0  0
 16 21  1  0  0  0
 16 31  1  0  0  0
 17 18  1  0  0  0
 17 96  1  0  0  0
 18 19  2  0  0  0
 18 97  1  0  0  0
 19 20  1  0  0  0
 19 24  1  0  0  0
 20 21  2  0  0  0
 20 98  1  0  0  0
 21 23  1  0  0  0
 22 28  1  0  0  0
 22 32  2  0  0  0
 26 27  1  0  0  0
 28 99  1  0  0  0
 28100  1  0  0  0
 29101  1  0  0  0
 29102  1  0  0  0
 33 34  1  0  0  0
 33 66  1  0  0  0
 33 70  2  0  0  0
 34 36  1  0  0  0
 34 59  1  0  0  0
 34103  1  0  0  0
 35 44  2  0  0  0
 35 45  1  0  0  0
 35 68  1  0  0  0
 36 56  1  0  0  0
 36104  1  0  0  0
 37 39  1  0  0  0
 37 47  1  0  0  0
 37 66  1  0  0  0
 37105  1  0  0  0
 38 43  2  0  0  0
 38 46  1  0  0  0
 38 47  1  0  0  0
 39 64  1  0  0  0
 39 67  2  0  0  0
 40 52  1  0  0  0
 40 53  2  0  0  0
 40 58  1  0  0  0
 41106  1  0  0  0
 41107  1  0  0  0
 41108  1  0  0  0
 41 48  1  0  0  0
 42 43  1  0  0  0
 42 66  1  0  0  0
 42109  1  0  0  0
 42110  1  0  0  0
 43 44  1  0  0  0
 44111  1  0  0  0
 45 46  2  0  0  0
 45112  1  0  0  0
 46113  1  0  0  0
 47114  1  0  0  0
 47115  1  0  0  0
 48 56  1  0  0  0
 48 65  1  0  0  0
 48116  1  0  0  0
 49 50  1  0  0  0
 49 53  1  0  0  0
 49 64  1  0  0  0
 49117  1  0  0  0
 50 51  1  0  0  0
 50118  1  0  0  0
 50119  1  0  0  0
 51 52  1  0  0  0
 51120  1  0  0  0
 51121  1  0  0  0
 52122  1  0  0  0
 52123  1  0  0  0
 53 54  1  0  0  0
 54 55  2  0  0  0
 54124  1  0  0  0
 55 57  1  0  0  0
 55125  1  0  0  0
 56 69  2  0  0  0
 57 58  2  0  0  0
 57126  1  0  0  0
 58127  1  0  0  0
 59 60  1  0  0  0
 59 61  1  0  0  0
 59 62  1  0  0  0
 60128  1  0  0  0
 60129  1  0  0  0
 60130  1  0  0  0
 61131  1  0  0  0
 61132  1  0  0  0
 61133  1  0  0  0
 62134  1  0  0  0
 62135  1  0  0  0
 62136  1  0  0  0
 63 65  1  0  0  0
 63137  1  0  0  0
 63138  1  0  0  0
 63139  1  0  0  0
 64140  1  0  0  0
 65141  1  0  0  0
 68 78  1  0  0  0
 71 73  2  0  0  0
 71 74  1  0  0  0
 71142  1  0  0  0
 72 73  1  0  0  0
 72 80  2  0  0  0
 72143  1  0  0  0
 73 76  1  0  0  0
 74 79  1  0  0  0
 74 81  2  0  0  0
 75144  1  0  0  0
 75145  1  0  0  0
 75146  1  0  0  0
 75 79  1  0  0  0
 76 78  1  0  0  0
 76147  1  0  0  0
 76148  1  0  0  0
 77 79  1  0  0  0
 77 82  1  0  0  0
 77149  1  0  0  0
 77150  1  0  0  0
 78151  1  0  0  0
 78152  1  0  0  0
 79153  1  0  0  0
 80 81  1  0  0  0
 82154  1  0  0  0
M  ISO  4   1 100  68 101  78 101  82 100
M  END
> <chiral flag>
0

> <version>
0

> <s_m_source_file>
/data/baiqing/PycharmProjects/Reinvent-master-3.2/result/LINK_invent/BTK/process_docking_weight1_custom_sum_contain_oxygen_bond_distance_aromatic_linkinvent_7_9_3/rearranged_h_0082.sdf

> <i_m_source_file_index>
46

> <r_mmod_Potential_Energy-OPLS-2005>
113.649215698242

> <r_mmod_Stretch_Energy-OPLS-2005>
106.415283203125

> <r_mmod_Bend_Energy-OPLS-2005>
151.171859741211

> <r_mmod_Torsional_Energy-OPLS-2005>
222.645202636719

> <r_mmod_Improper_Torsional_Energy-OPLS-2005>
5.26478862762451

> <r_mmod_Van_der_Waal_Energy-OPLS-2005>
137.67529296875

> <r_mmod_Electrostatic_Energy-OPLS-2005>
-340.1005859375

> <r_mmod_Solvation_Energy-OPLS-2005>
-233.458435058594

> <b_mmod_Minimization_Converged-OPLS-2005>
0

> <r_mmod_RMS_Derivative-OPLS-2005>
0.815748333930969

$$$$
47
                    3D
 Structure written by MMmdl.
167175  0  0  1  0            999 V2000
  -30.6064  -14.7172   20.4534 C   0  0  0  0  0  0
  -30.4344  -12.4323   19.4732 C   0  0  0  0  0  0
  -29.5096  -12.4985   18.2371 C   0  0  0  0  0  0
  -28.0360  -12.3283   18.6524 C   0  0  0  0  0  0
  -27.6467  -13.2259   19.8576 C   0  0  2  0  0  0
  -28.6902  -13.1445   20.9949 C   0  0  0  0  0  0
  -25.2528  -13.8193   20.5686 C   0  0  0  0  0  0
  -24.1812  -13.0455   20.9207 C   0  0  0  0  0  0
  -24.6392  -11.6926   20.8755 C   0  0  0  0  0  0
  -23.9068  -10.4303   21.0410 C   0  0  0  0  0  0
  -24.3619   -9.4216   21.9186 C   0  0  0  0  0  0
  -23.6295   -8.2252   22.0766 C   0  0  0  0  0  0
  -22.4280   -8.0284   21.3553 C   0  0  0  0  0  0
  -21.9909   -9.0258   20.4659 C   0  0  0  0  0  0
  -22.7240  -10.2138   20.3062 C   0  0  0  0  0  0
  -21.6853   -6.0730   22.5271 C   0  0  0  0  0  0
  -21.4010   -6.5639   23.8204 C   0  0  0  0  0  0
  -21.3658   -5.6796   24.9173 C   0  0  0  0  0  0
  -21.6048   -4.3058   24.7229 C   0  0  0  0  0  0
  -21.8818   -3.8146   23.4354 C   0  0  0  0  0  0
  -21.9197   -4.6956   22.3406 C   0  0  0  0  0  0
  -22.7836  -13.5236   21.1865 C   0  0  0  0  0  0
  -22.1667   -4.2138   21.0984 F   0  0  0  0  0  0
  -21.5631   -3.4545   25.7749 F   0  0  0  0  0  0
  -29.9974  -13.4851   20.4190 N   0  0  0  0  0  0
  -26.2959  -12.9393   20.3300 N   0  0  0  0  0  0
  -25.9323  -11.6543   20.5778 N   0  0  0  0  0  0
  -22.0484  -12.8214   22.0424 N   0  0  0  0  0  0
  -25.4229  -15.1916   20.4076 N   0  0  0  0  0  0
  -31.7777  -14.8421   20.0862 O   0  0  0  0  0  0
  -21.6653   -6.8875   21.4235 O   0  0  0  0  0  0
  -22.3516  -14.5540   20.6724 O   0  0  0  0  0  0
  -24.6293  -31.8561   23.2012 C   0  0  0  0  0  0
  -25.9122  -32.4746   23.8356 C   0  0  1  0  0  0
  -27.2219  -27.2919   20.1183 C   0  0  0  0  0  0
  -25.5934  -33.8549   24.2261 N   0  0  0  0  0  0
  -23.4268  -30.4781   21.5446 C   0  0  2  0  0  0
  -24.8754  -28.9339   20.1087 C   0  0  0  0  0  0
  -22.7501  -29.4591   22.4927 C   0  0  0  0  0  0
  -18.0286  -28.1360   22.8474 C   0  0  0  0  0  0
  -24.1498  -36.7294   23.2637 C   0  0  0  0  0  0
  -25.9714  -30.7756   21.3816 C   0  0  0  0  0  0
  -26.0470  -29.4028   20.7195 C   0  0  0  0  0  0
  -27.2261  -28.5930   20.7167 C   0  0  0  0  0  0
  -26.0369  -26.8942   19.4628 C   0  0  0  0  0  0
  -24.8738  -27.6856   19.4696 C   0  0  0  0  0  0
  -23.6431  -29.8151   20.1592 C   0  0  0  0  0  0
  -25.4117  -36.3058   24.0312 C   0  0  1  0  0  0
  -20.5898  -28.3674   23.1265 C   0  0  2  0  0  0
  -20.6779  -26.9397   22.5400 C   0  0  0  0  0  0
  -19.5759  -26.6370   21.5195 C   0  0  0  0  0  0
  -18.1936  -26.7907   22.1609 C   0  0  0  0  0  0
  -19.1547  -28.8835   23.2865 C   0  0  0  0  0  0
  -18.9472  -30.1441   23.8871 C   0  0  0  0  0  0
  -17.6472  -30.6572   24.0544 C   0  0  0  0  0  0
  -25.9059  -34.9422   23.5094 C   0  0  0  0  0  0
  -16.5355  -29.9061   23.6328 C   0  0  0  0  0  0
  -16.7277  -28.6479   23.0346 C   0  0  0  0  0  0
  -26.4493  -31.6566   25.0733 C   0  0  0  0  0  0
  -25.3707  -31.3690   26.1438 C   0  0  0  0  0  0
  -27.0349  -30.2971   24.6226 C   0  0  0  0  0  0
  -27.6065  -32.4299   25.7483 C   0  0  0  0  0  0
  -27.5581  -37.1791   24.8457 C   0  0  0  0  0  0
  -21.4205  -29.3024   22.3658 N   0  0  0  0  0  0
  -26.4291  -37.3753   23.9392 N   0  0  0  0  0  0
  -24.6938  -31.0543   22.0980 N   0  0  0  0  0  0
  -23.4209  -28.8121   23.3007 O   0  0  0  0  0  0
  -28.2910  -26.3744   20.1595 O   0  0  0  0  0  0
  -26.5644  -34.8891   22.4667 O   0  0  0  0  0  0
  -23.5445  -32.1392   23.7312 O   0  0  0  0  0  0
  -26.9987  -22.7883   22.2983 C   0  0  0  0  0  0
  -26.1538  -21.8978   22.9605 C   0  0  0  0  0  0
  -27.9167  -22.3713   21.2913 C   0  0  0  0  0  0
  -26.2095  -20.5586   22.6018 C   0  0  0  0  0  0
  -28.0252  -20.9054   21.1305 C   0  0  0  0  0  0
  -25.9973  -18.6635   24.2651 C   0  0  0  0  0  0
  -30.3571  -20.6491   20.0206 C   0  0  0  0  0  0
  -29.8992  -18.5516   22.4010 C   0  0  0  0  0  0
  -28.5966  -23.5859   20.5052 C   0  0  0  0  0  0
  -25.2816  -19.5350   23.2266 C   0  0  0  0  0  0
  -30.0127  -17.2657   20.1991 C   0  0  0  0  0  0
  -27.9755  -25.0644   20.8057 C   0  0  0  0  0  0
  -29.0303  -19.9490   20.3439 C   0  0  1  0  0  0
  -29.2711  -18.4528   20.9985 C   0  0  2  0  0  0
  -27.1028  -20.1042   21.7163 N   0  0  0  0  0  0
  -29.8110  -15.8261   20.6690 N   0  0  0  0  0  0
  -31.4750  -12.5558   19.1671 H   0  0  0  0  0  0
  -30.3762  -11.4507   19.9465 H   0  0  0  0  0  0
  -29.7844  -11.7252   17.5180 H   0  0  0  0  0  0
  -29.6413  -13.4529   17.7256 H   0  0  0  0  0  0
  -27.8905  -11.2800   18.9147 H   0  0  0  0  0  0
  -27.3763  -12.5224   17.8064 H   0  0  0  0  0  0
  -27.6473  -14.2493   19.4831 H   0  0  0  0  0  0
  -28.7163  -12.1460   21.4316 H   0  0  0  0  0  0
  -28.4301  -13.8256   21.8072 H   0  0  0  0  0  0
  -25.2763   -9.5693   22.4762 H   0  0  0  0  0  0
  -24.0004   -7.4645   22.7487 H   0  0  0  0  0  0
  -21.0842   -8.8772   19.8969 H   0  0  0  0  0  0
  -22.3686  -10.9676   19.6176 H   0  0  0  0  0  0
  -21.1993   -7.6146   23.9695 H   0  0  0  0  0  0
  -21.1479   -6.0538   25.9072 H   0  0  0  0  0  0
  -22.0597   -2.7604   23.2861 H   0  0  0  0  0  0
  -22.4120  -11.9877   22.4798 H   0  0  0  0  0  0
  -21.1098  -13.1221   22.2634 H   0  0  0  0  0  0
  -24.6560  -15.8451   20.5215 H   0  0  0  0  0  0
  -26.2684  -15.6293   20.0657 H   0  0  0  0  0  0
  -26.7186  -32.5393   23.1104 H   0  0  0  0  0  0
  -25.0028  -33.9684   25.0368 H   0  0  0  0  0  0
  -22.7233  -31.2994   21.4001 H   0  0  0  0  0  0
  -23.3743  -35.9644   23.3294 H   0  0  0  0  0  0
  -24.3597  -36.8942   22.2059 H   0  0  0  0  0  0
  -23.7292  -37.6499   23.6684 H   0  0  0  0  0  0
  -26.1170  -31.5405   20.6177 H   0  0  0  0  0  0
  -26.8457  -30.8195   22.0206 H   0  0  0  0  0  0
  -28.1220  -28.9405   21.2116 H   0  0  0  0  0  0
  -26.0010  -25.9372   18.9612 H   0  0  0  0  0  0
  -23.9787  -27.3258   18.9813 H   0  0  0  0  0  0
  -23.7616  -30.5934   19.4033 H   0  0  0  0  0  0
  -22.7632  -29.2443   19.8582 H   0  0  0  0  0  0
  -25.1310  -36.1902   25.0809 H   0  0  0  0  0  0
  -20.9990  -28.3247   24.1388 H   0  0  0  0  0  0
  -20.5687  -26.2276   23.3593 H   0  0  0  0  0  0
  -21.6641  -26.7417   22.1198 H   0  0  0  0  0  0
  -19.6923  -25.6280   21.1227 H   0  0  0  0  0  0
  -19.6696  -27.3172   20.6719 H   0  0  0  0  0  0
  -17.4210  -26.6641   21.4009 H   0  0  0  0  0  0
  -18.0344  -26.0039   22.9003 H   0  0  0  0  0  0
  -19.7948  -30.7258   24.2243 H   0  0  0  0  0  0
  -17.5020  -31.6249   24.5141 H   0  0  0  0  0  0
  -15.5356  -30.2943   23.7684 H   0  0  0  0  0  0
  -15.8674  -28.0796   22.7069 H   0  0  0  0  0  0
  -24.5912  -30.7015   25.7753 H   0  0  0  0  0  0
  -24.8827  -32.2827   26.4843 H   0  0  0  0  0  0
  -25.8003  -30.8888   27.0236 H   0  0  0  0  0  0
  -26.2933  -29.6677   24.1291 H   0  0  0  0  0  0
  -27.4074  -29.7284   25.4755 H   0  0  0  0  0  0
  -27.8792  -30.4240   23.9449 H   0  0  0  0  0  0
  -27.2720  -33.3638   26.2025 H   0  0  0  0  0  0
  -28.3879  -32.6806   25.0295 H   0  0  0  0  0  0
  -28.0723  -31.8439   26.5418 H   0  0  0  0  0  0
  -28.2585  -38.0107   24.7528 H   0  0  0  0  0  0
  -28.1111  -36.2636   24.6274 H   0  0  0  0  0  0
  -27.2303  -37.1439   25.8865 H   0  0  0  0  0  0
  -20.9399  -29.8749   21.6861 H   0  0  0  0  0  0
  -26.0172  -38.2827   24.1382 H   0  0  0  0  0  0
  -26.8685  -23.8137   22.5957 H   0  0  0  0  0  0
  -25.4486  -22.2530   23.6996 H   0  0  0  0  0  0
  -25.3059  -17.9544   24.7203 H   0  0  0  0  0  0
  -26.4229  -19.2769   25.0593 H   0  0  0  0  0  0
  -26.8090  -18.0985   23.8060 H   0  0  0  0  0  0
  -30.1933  -21.5165   19.3823 H   0  0  0  0  0  0
  -31.0303  -19.9803   19.4843 H   0  0  0  0  0  0
  -30.8587  -20.9857   20.9276 H   0  0  0  0  0  0
  -29.9124  -17.5795   22.8945 H   0  0  0  0  0  0
  -29.3420  -19.2311   23.0454 H   0  0  0  0  0  0
  -30.9267  -18.9118   22.3480 H   0  0  0  0  0  0
  -28.5049  -23.3822   19.4382 H   0  0  0  0  0  0
  -29.6647  -23.5927   20.7250 H   0  0  0  0  0  0
  -24.8558  -18.9112   22.4394 H   0  0  0  0  0  0
  -24.4429  -20.0499   23.6953 H   0  0  0  0  0  0
  -31.0829  -17.4762   20.1724 H   0  0  0  0  0  0
  -29.6884  -17.2965   19.1586 H   0  0  0  0  0  0
  -28.1836  -25.2778   21.8540 H   0  0  0  0  0  0
  -26.8984  -24.9242   20.7424 H   0  0  0  0  0  0
  -28.5402  -19.7740   19.3849 H   0  0  0  0  0  0
  -28.2739  -18.0361   21.1371 H   0  0  0  0  0  0
  -28.8839  -15.6117   21.0043 H   0  0  0  0  0  0
  1 25  1  0  0  0
  1 30  2  0  0  0
  1 86  1  0  0  0
  2  3  1  0  0  0
  2 25  1  0  0  0
  2 87  1  0  0  0
  2 88  1  0  0  0
  3  4  1  0  0  0
  3 89  1  0  0  0
  3 90  1  0  0  0
  4  5  1  0  0  0
  4 91  1  0  0  0
  4 92  1  0  0  0
  5  6  1  0  0  0
  5 26  1  0  0  0
  5 93  1  0  0  0
  6 25  1  0  0  0
  6 94  1  0  0  0
  6 95  1  0  0  0
  7  8  2  0  0  0
  7 26  1  0  0  0
  7 29  1  0  0  0
  8  9  1  0  0  0
  8 22  1  0  0  0
  9 10  1  0  0  0
  9 27  2  0  0  0
 10 11  2  0  0  0
 10 15  1  0  0  0
 11 12  1  0  0  0
 11 96  1  0  0  0
 12 13  2  0  0  0
 12 97  1  0  0  0
 13 14  1  0  0  0
 13 31  1  0  0  0
 14 15  2  0  0  0
 14 98  1  0  0  0
 15 99  1  0  0  0
 16 17  2  0  0  0
 16 21  1  0  0  0
 16 31  1  0  0  0
 17 18  1  0  0  0
 17100  1  0  0  0
 18 19  2  0  0  0
 18101  1  0  0  0
 19 20  1  0  0  0
 19 24  1  0  0  0
 20 21  2  0  0  0
 20102  1  0  0  0
 21 23  1  0  0  0
 22 28  1  0  0  0
 22 32  2  0  0  0
 26 27  1  0  0  0
 28103  1  0  0  0
 28104  1  0  0  0
 29105  1  0  0  0
 29106  1  0  0  0
 33 34  1  0  0  0
 33 66  1  0  0  0
 33 70  2  0  0  0
 34 36  1  0  0  0
 34 59  1  0  0  0
 34107  1  0  0  0
 35 44  2  0  0  0
 35 45  1  0  0  0
 35 68  1  0  0  0
 36 56  1  0  0  0
 36108  1  0  0  0
 37 39  1  0  0  0
 37 47  1  0  0  0
 37 66  1  0  0  0
 37109  1  0  0  0
 38 43  2  0  0  0
 38 46  1  0  0  0
 38 47  1  0  0  0
 39 64  1  0  0  0
 39 67  2  0  0  0
 40 52  1  0  0  0
 40 53  2  0  0  0
 40 58  1  0  0  0
 41110  1  0  0  0
 41111  1  0  0  0
 41112  1  0  0  0
 41 48  1  0  0  0
 42 43  1  0  0  0
 42 66  1  0  0  0
 42113  1  0  0  0
 42114  1  0  0  0
 43 44  1  0  0  0
 44115  1  0  0  0
 45 46  2  0  0  0
 45116  1  0  0  0
 46117  1  0  0  0
 47118  1  0  0  0
 47119  1  0  0  0
 48 56  1  0  0  0
 48 65  1  0  0  0
 48120  1  0  0  0
 49 50  1  0  0  0
 49 53  1  0  0  0
 49 64  1  0  0  0
 49121  1  0  0  0
 50 51  1  0  0  0
 50122  1  0  0  0
 50123  1  0  0  0
 51 52  1  0  0  0
 51124  1  0  0  0
 51125  1  0  0  0
 52126  1  0  0  0
 52127  1  0  0  0
 53 54  1  0  0  0
 54 55  2  0  0  0
 54128  1  0  0  0
 55 57  1  0  0  0
 55129  1  0  0  0
 56 69  2  0  0  0
 57 58  2  0  0  0
 57130  1  0  0  0
 58131  1  0  0  0
 59 60  1  0  0  0
 59 61  1  0  0  0
 59 62  1  0  0  0
 60132  1  0  0  0
 60133  1  0  0  0
 60134  1  0  0  0
 61135  1  0  0  0
 61136  1  0  0  0
 61137  1  0  0  0
 62138  1  0  0  0
 62139  1  0  0  0
 62140  1  0  0  0
 63 65  1  0  0  0
 63141  1  0  0  0
 63142  1  0  0  0
 63143  1  0  0  0
 64144  1  0  0  0
 65145  1  0  0  0
 68 82  1  0  0  0
 71 72  2  0  0  0
 71 73  1  0  0  0
 71146  1  0  0  0
 72 74  1  0  0  0
 72147  1  0  0  0
 73 75  2  0  0  0
 73 79  1  0  0  0
 74 80  1  0  0  0
 74 85  2  0  0  0
 75 83  1  0  0  0
 75 85  1  0  0  0
 76 80  1  0  0  0
 76148  1  0  0  0
 76149  1  0  0  0
 76150  1  0  0  0
 77151  1  0  0  0
 77152  1  0  0  0
 77153  1  0  0  0
 77 83  1  0  0  0
 78154  1  0  0  0
 78155  1  0  0  0
 78156  1  0  0  0
 78 84  1  0  0  0
 79 82  1  0  0  0
 79157  1  0  0  0
 79158  1  0  0  0
 80159  1  0  0  0
 80160  1  0  0  0
 81 84  1  0  0  0
 81 86  1  0  0  0
 81161  1  0  0  0
 81162  1  0  0  0
 82163  1  0  0  0
 82164  1  0  0  0
 83 84  1  0  0  0
 83165  1  0  0  0
 84166  1  0  0  0
 86167  1  0  0  0
M  ISO  4   1 100  68 101  82 101  86 100
M  END
> <chiral flag>
0

> <version>
0

> <s_m_source_file>
/data/baiqing/PycharmProjects/Reinvent-master-3.2/result/LINK_invent/BTK/process_docking_weight1_custom_sum_contain_oxygen_bond_distance_aromatic_linkinvent_7_9_3/rearranged_h_0082.sdf

> <i_m_source_file_index>
47

> <r_mmod_Potential_Energy-OPLS-2005>
47.7574729919434

> <r_mmod_Stretch_Energy-OPLS-2005>
133.26286315918

> <r_mmod_Bend_Energy-OPLS-2005>
204.962890625

> <r_mmod_Torsional_Energy-OPLS-2005>
247.351364135742

> <r_mmod_Improper_Torsional_Energy-OPLS-2005>
6.3257794380188

> <r_mmod_Van_der_Waal_Energy-OPLS-2005>
152.437103271484

> <r_mmod_Electrostatic_Energy-OPLS-2005>
-565.310180664062

> <r_mmod_Solvation_Energy-OPLS-2005>
-206.202224731445

> <b_mmod_Minimization_Converged-OPLS-2005>
0

> <r_mmod_RMS_Derivative-OPLS-2005>
2.03351235389709

$$$$
48
                    3D
 Structure written by MMmdl.
160168  0  0  1  0            999 V2000
  -30.5256  -14.9771   20.4104 C   0  0  0  0  0  0
  -30.4369  -12.6008   19.5131 C   0  0  0  0  0  0
  -29.5260  -12.5349   18.2643 C   0  0  0  0  0  0
  -28.0566  -12.3221   18.6736 C   0  0  0  0  0  0
  -27.6287  -13.2527   19.8388 C   0  0  2  0  0  0
  -28.6670  -13.2872   20.9814 C   0  0  0  0  0  0
  -25.2448  -13.8225   20.5688 C   0  0  0  0  0  0
  -24.1772  -13.0440   20.9202 C   0  0  0  0  0  0
  -24.6397  -11.6924   20.8735 C   0  0  0  0  0  0
  -23.9087  -10.4291   21.0393 C   0  0  0  0  0  0
  -24.3638   -9.4205   21.9177 C   0  0  0  0  0  0
  -23.6307   -8.2244   22.0761 C   0  0  0  0  0  0
  -22.4295   -8.0276   21.3545 C   0  0  0  0  0  0
  -21.9924   -9.0250   20.4652 C   0  0  0  0  0  0
  -22.7255  -10.2126   20.3047 C   0  0  0  0  0  0
  -21.6862   -6.0730   22.5273 C   0  0  0  0  0  0
  -21.4017   -6.5637   23.8205 C   0  0  0  0  0  0
  -21.3663   -5.6791   24.9167 C   0  0  0  0  0  0
  -21.6050   -4.3056   24.7222 C   0  0  0  0  0  0
  -21.8817   -3.8144   23.4344 C   0  0  0  0  0  0
  -21.9197   -4.6956   22.3395 C   0  0  0  0  0  0
  -22.7792  -13.5204   21.1851 C   0  0  0  0  0  0
  -22.1660   -4.2136   21.0976 F   0  0  0  0  0  0
  -21.5633   -3.4538   25.7738 F   0  0  0  0  0  0
  -29.9436  -13.7065   20.3891 N   0  0  0  0  0  0
  -26.2874  -12.9466   20.3218 N   0  0  0  0  0  0
  -25.9331  -11.6586   20.5722 N   0  0  0  0  0  0
  -22.0458  -12.8191   22.0416 N   0  0  0  0  0  0
  -25.4115  -15.1958   20.4118 N   0  0  0  0  0  0
  -31.7195  -15.0426   20.0977 O   0  0  0  0  0  0
  -21.6653   -6.8875   21.4239 O   0  0  0  0  0  0
  -22.3462  -14.5492   20.6682 O   0  0  0  0  0  0
  -24.6448  -31.8402   23.1828 C   0  0  0  0  0  0
  -25.9209  -32.4667   23.8237 C   0  0  1  0  0  0
  -27.2173  -27.1073   20.1563 C   0  0  0  0  0  0
  -25.5953  -33.8477   24.2153 N   0  0  0  0  0  0
  -23.4499  -30.4561   21.5292 C   0  0  2  0  0  0
  -24.8994  -28.8731   20.1100 C   0  0  0  0  0  0
  -22.7573  -29.4520   22.4841 C   0  0  0  0  0  0
  -18.0304  -28.1402   22.8459 C   0  0  0  0  0  0
  -24.1501  -36.7252   23.2637 C   0  0  0  0  0  0
  -26.0064  -30.7042   21.3847 C   0  0  0  0  0  0
  -26.0772  -29.3124   20.7277 C   0  0  0  0  0  0
  -27.2369  -28.4464   20.7284 C   0  0  0  0  0  0
  -26.0127  -26.7699   19.5040 C   0  0  0  0  0  0
  -24.8815  -27.6173   19.4812 C   0  0  0  0  0  0
  -23.6779  -29.7798   20.1507 C   0  0  0  0  0  0
  -25.4130  -36.3010   24.0301 C   0  0  1  0  0  0
  -20.5917  -28.3726   23.1225 C   0  0  2  0  0  0
  -20.6791  -26.9426   22.5402 C   0  0  0  0  0  0
  -19.5772  -26.6377   21.5205 C   0  0  0  0  0  0
  -18.1949  -26.7934   22.1612 C   0  0  0  0  0  0
  -19.1562  -28.8882   23.2831 C   0  0  0  0  0  0
  -18.9477  -30.1479   23.8851 C   0  0  0  0  0  0
  -17.6474  -30.6591   24.0556 C   0  0  0  0  0  0
  -25.9082  -34.9390   23.5037 C   0  0  0  0  0  0
  -16.5364  -29.9082   23.6340 C   0  0  0  0  0  0
  -16.7289  -28.6512   23.0335 C   0  0  0  0  0  0
  -26.4531  -31.6545   25.0694 C   0  0  0  0  0  0
  -25.3711  -31.3748   26.1387 C   0  0  0  0  0  0
  -27.0402  -30.2929   24.6305 C   0  0  0  0  0  0
  -27.6050  -32.4320   25.7493 C   0  0  0  0  0  0
  -27.5575  -37.1781   24.8456 C   0  0  0  0  0  0
  -21.4266  -29.3042   22.3594 N   0  0  0  0  0  0
  -26.4288  -37.3726   23.9399 N   0  0  0  0  0  0
  -24.7202  -31.0227   22.0873 N   0  0  0  0  0  0
  -23.4204  -28.8071   23.3004 O   0  0  0  0  0  0
  -28.2780  -26.1263   20.2253 O   0  0  0  0  0  0
  -26.5675  -34.8892   22.4620 O   0  0  0  0  0  0
  -23.5565  -32.1294   23.7033 O   0  0  0  0  0  0
  -30.4672  -24.3192   20.7617 C   0  0  0  0  0  0
  -29.3299  -23.5312   20.4599 C   0  0  0  0  0  0
  -31.7020  -23.7370   21.0681 C   0  0  0  0  0  0
  -29.6084  -22.0219   20.5148 C   0  0  0  0  0  0
  -34.2606  -25.8696   23.1130 C   0  0  0  0  0  0
  -28.0868  -24.5625   20.1257 C   0  0  0  0  0  0
  -32.9153  -24.6043   21.3505 C   0  0  0  0  0  0
  -28.8604  -20.6166   20.1212 C   0  0  0  0  0  0
  -33.0628  -24.9497   22.8399 C   0  0  0  0  0  0
  -29.1747  -19.0611   20.7911 C   0  0  0  0  0  0
  -29.9606  -17.6935   20.1450 C   0  0  0  0  0  0
  -31.8743  -22.4067   21.1303 N   0  0  0  0  0  0
  -30.8576  -21.5986   20.8468 N   0  0  0  0  0  0
  -29.7436  -16.1657   20.5668 N   0  0  0  0  0  0
  -31.4733  -12.7520   19.2074 H   0  0  0  0  0  0
  -30.4249  -11.6507   20.0504 H   0  0  0  0  0  0
  -29.8501  -11.7338   17.5974 H   0  0  0  0  0  0
  -29.6155  -13.4627   17.6967 H   0  0  0  0  0  0
  -27.9478  -11.2804   18.9769 H   0  0  0  0  0  0
  -27.3987  -12.4580   17.8136 H   0  0  0  0  0  0
  -27.5922  -14.2553   19.4132 H   0  0  0  0  0  0
  -28.7557  -12.3123   21.4621 H   0  0  0  0  0  0
  -28.3605  -13.9889   21.7585 H   0  0  0  0  0  0
  -25.2783   -9.5687   22.4743 H   0  0  0  0  0  0
  -24.0014   -7.4653   22.7501 H   0  0  0  0  0  0
  -21.0844   -8.8771   19.8981 H   0  0  0  0  0  0
  -22.3711  -10.9656   19.6151 H   0  0  0  0  0  0
  -21.2008   -7.6148   23.9692 H   0  0  0  0  0  0
  -21.1488   -6.0532   25.9067 H   0  0  0  0  0  0
  -22.0598   -2.7605   23.2847 H   0  0  0  0  0  0
  -22.4117  -11.9870   22.4800 H   0  0  0  0  0  0
  -21.1074  -13.1204   22.2629 H   0  0  0  0  0  0
  -24.6419  -15.8467   20.5274 H   0  0  0  0  0  0
  -26.2495  -15.6356   20.0541 H   0  0  0  0  0  0
  -26.7268  -32.5263   23.0960 H   0  0  0  0  0  0
  -25.0076  -33.9596   25.0283 H   0  0  0  0  0  0
  -22.7529  -31.2813   21.3707 H   0  0  0  0  0  0
  -23.3758  -35.9589   23.3280 H   0  0  0  0  0  0
  -24.3577  -36.8913   22.2054 H   0  0  0  0  0  0
  -23.7271  -37.6443   23.6703 H   0  0  0  0  0  0
  -26.1642  -31.4549   20.6092 H   0  0  0  0  0  0
  -26.8756  -30.7567   22.0289 H   0  0  0  0  0  0
  -28.1363  -28.7775   21.2278 H   0  0  0  0  0  0
  -25.9208  -25.8065   19.0243 H   0  0  0  0  0  0
  -23.9824  -27.2763   18.9861 H   0  0  0  0  0  0
  -23.8173  -30.5515   19.3929 H   0  0  0  0  0  0
  -22.7925  -29.2226   19.8397 H   0  0  0  0  0  0
  -25.1326  -36.1823   25.0794 H   0  0  0  0  0  0
  -21.0007  -28.3320   24.1347 H   0  0  0  0  0  0
  -20.5674  -26.2340   23.3622 H   0  0  0  0  0  0
  -21.6657  -26.7425   22.1202 H   0  0  0  0  0  0
  -19.6935  -25.6278   21.1253 H   0  0  0  0  0  0
  -19.6712  -27.3170   20.6720 H   0  0  0  0  0  0
  -17.4217  -26.6658   21.4018 H   0  0  0  0  0  0
  -18.0357  -26.0092   22.9027 H   0  0  0  0  0  0
  -19.7955  -30.7308   24.2187 H   0  0  0  0  0  0
  -17.5028  -31.6259   24.5179 H   0  0  0  0  0  0
  -15.5362  -30.2965   23.7698 H   0  0  0  0  0  0
  -15.8689  -28.0828   22.7051 H   0  0  0  0  0  0
  -24.5893  -30.7097   25.7699 H   0  0  0  0  0  0
  -24.8907  -32.2944   26.4742 H   0  0  0  0  0  0
  -25.7987  -30.8958   27.0205 H   0  0  0  0  0  0
  -26.3026  -29.6634   24.1315 H   0  0  0  0  0  0
  -27.3994  -29.7245   25.4894 H   0  0  0  0  0  0
  -27.8942  -30.4131   23.9636 H   0  0  0  0  0  0
  -27.2624  -33.3631   26.2018 H   0  0  0  0  0  0
  -28.3900  -32.6863   25.0360 H   0  0  0  0  0  0
  -28.0683  -31.8487   26.5461 H   0  0  0  0  0  0
  -28.2568  -38.0099   24.7500 H   0  0  0  0  0  0
  -28.1098  -36.2622   24.6290 H   0  0  0  0  0  0
  -27.2291  -37.1428   25.8859 H   0  0  0  0  0  0
  -20.9481  -29.8752   21.6766 H   0  0  0  0  0  0
  -26.0144  -38.2789   24.1406 H   0  0  0  0  0  0
  -30.4213  -25.3968   20.7452 H   0  0  0  0  0  0
  -34.3356  -26.1052   24.1750 H   0  0  0  0  0  0
  -34.1652  -26.8119   22.5717 H   0  0  0  0  0  0
  -35.1992  -25.4042   22.8089 H   0  0  0  0  0  0
  -27.2605  -24.2884   20.7823 H   0  0  0  0  0  0
  -27.7544  -24.3325   19.1134 H   0  0  0  0  0  0
  -32.8415  -25.5173   20.7583 H   0  0  0  0  0  0
  -33.8095  -24.0904   20.9959 H   0  0  0  0  0  0
  -28.9170  -20.5265   19.0367 H   0  0  0  0  0  0
  -27.8088  -20.8259   20.3186 H   0  0  0  0  0  0
  -32.1503  -25.4362   23.1889 H   0  0  0  0  0  0
  -33.1654  -24.0311   23.4193 H   0  0  0  0  0  0
  -28.1682  -18.6812   20.9668 H   0  0  0  0  0  0
  -29.5552  -19.2145   21.8012 H   0  0  0  0  0  0
  -31.0328  -17.8799   20.2160 H   0  0  0  0  0  0
  -29.7597  -17.7101   19.0739 H   0  0  0  0  0  0
  -28.7980  -15.9601   20.8544 H   0  0  0  0  0  0
  1 25  1  0  0  0
  1 30  2  0  0  0
  1 84  1  0  0  0
  2  3  1  0  0  0
  2 25  1  0  0  0
  2 85  1  0  0  0
  2 86  1  0  0  0
  3  4  1  0  0  0
  3 87  1  0  0  0
  3 88  1  0  0  0
  4  5  1  0  0  0
  4 89  1  0  0  0
  4 90  1  0  0  0
  5  6  1  0  0  0
  5 26  1  0  0  0
  5 91  1  0  0  0
  6 25  1  0  0  0
  6 92  1  0  0  0
  6 93  1  0  0  0
  7  8  2  0  0  0
  7 26  1  0  0  0
  7 29  1  0  0  0
  8  9  1  0  0  0
  8 22  1  0  0  0
  9 10  1  0  0  0
  9 27  2  0  0  0
 10 11  2  0  0  0
 10 15  1  0  0  0
 11 12  1  0  0  0
 11 94  1  0  0  0
 12 13  2  0  0  0
 12 95  1  0  0  0
 13 14  1  0  0  0
 13 31  1  0  0  0
 14 15  2  0  0  0
 14 96  1  0  0  0
 15 97  1  0  0  0
 16 17  2  0  0  0
 16 21  1  0  0  0
 16 31  1  0  0  0
 17 18  1  0  0  0
 17 98  1  0  0  0
 18 19  2  0  0  0
 18 99  1  0  0  0
 19 20  1  0  0  0
 19 24  1  0  0  0
 20 21  2  0  0  0
 20100  1  0  0  0
 21 23  1  0  0  0
 22 28  1  0  0  0
 22 32  2  0  0  0
 26 27  1  0  0  0
 28101  1  0  0  0
 28102  1  0  0  0
 29103  1  0  0  0
 29104  1  0  0  0
 33 34  1  0  0  0
 33 66  1  0  0  0
 33 70  2  0  0  0
 34 36  1  0  0  0
 34 59  1  0  0  0
 34105  1  0  0  0
 35 44  2  0  0  0
 35 45  1  0  0  0
 35 68  1  0  0  0
 36 56  1  0  0  0
 36106  1  0  0  0
 37 39  1  0  0  0
 37 47  1  0  0  0
 37 66  1  0  0  0
 37107  1  0  0  0
 38 43  2  0  0  0
 38 46  1  0  0  0
 38 47  1  0  0  0
 39 64  1  0  0  0
 39 67  2  0  0  0
 40 52  1  0  0  0
 40 53  2  0  0  0
 40 58  1  0  0  0
 41108  1  0  0  0
 41109  1  0  0  0
 41110  1  0  0  0
 41 48  1  0  0  0
 42 43  1  0  0  0
 42 66  1  0  0  0
 42111  1  0  0  0
 42112  1  0  0  0
 43 44  1  0  0  0
 44113  1  0  0  0
 45 46  2  0  0  0
 45114  1  0  0  0
 46115  1  0  0  0
 47116  1  0  0  0
 47117  1  0  0  0
 48 56  1  0  0  0
 48 65  1  0  0  0
 48118  1  0  0  0
 49 50  1  0  0  0
 49 53  1  0  0  0
 49 64  1  0  0  0
 49119  1  0  0  0
 50 51  1  0  0  0
 50120  1  0  0  0
 50121  1  0  0  0
 51 52  1  0  0  0
 51122  1  0  0  0
 51123  1  0  0  0
 52124  1  0  0  0
 52125  1  0  0  0
 53 54  1  0  0  0
 54 55  2  0  0  0
 54126  1  0  0  0
 55 57  1  0  0  0
 55127  1  0  0  0
 56 69  2  0  0  0
 57 58  2  0  0  0
 57128  1  0  0  0
 58129  1  0  0  0
 59 60  1  0  0  0
 59 61  1  0  0  0
 59 62  1  0  0  0
 60130  1  0  0  0
 60131  1  0  0  0
 60132  1  0  0  0
 61133  1  0  0  0
 61134  1  0  0  0
 61135  1  0  0  0
 62136  1  0  0  0
 62137  1  0  0  0
 62138  1  0  0  0
 63 65  1  0  0  0
 63139  1  0  0  0
 63140  1  0  0  0
 63141  1  0  0  0
 64142  1  0  0  0
 65143  1  0  0  0
 68 76  1  0  0  0
 71 72  2  0  0  0
 71 73  1  0  0  0
 71144  1  0  0  0
 72 74  1  0  0  0
 72 76  1  0  0  0
 73 77  1  0  0  0
 73 82  2  0  0  0
 74 78  1  0  0  0
 74 83  2  0  0  0
 75 79  1  0  0  0
 75145  1  0  0  0
 75146  1  0  0  0
 75147  1  0  0  0
 76148  1  0  0  0
 76149  1  0  0  0
 77 79  1  0  0  0
 77150  1  0  0  0
 77151  1  0  0  0
 78 80  1  0  0  0
 78152  1  0  0  0
 78153  1  0  0  0
 79154  1  0  0  0
 79155  1  0  0  0
 80 81  1  0  0  0
 80156  1  0  0  0
 80157  1  0  0  0
 81 84  1  0  0  0
 81158  1  0  0  0
 81159  1  0  0  0
 82 83  1  0  0  0
 84160  1  0  0  0
M  ISO  4   1 100  68 101  76 101  84 100
M  END
> <chiral flag>
0

> <version>
0

> <s_m_source_file>
/data/baiqing/PycharmProjects/Reinvent-master-3.2/result/LINK_invent/BTK/process_docking_weight1_custom_sum_contain_oxygen_bond_distance_aromatic_linkinvent_7_9_3/rearranged_h_0082.sdf

> <i_m_source_file_index>
48

> <r_mmod_Potential_Energy-OPLS-2005>
641.348266601562

> <r_mmod_Stretch_Energy-OPLS-2005>
317.36669921875

> <r_mmod_Bend_Energy-OPLS-2005>
344.744659423828

> <r_mmod_Torsional_Energy-OPLS-2005>
221.414459228516

> <r_mmod_Improper_Torsional_Energy-OPLS-2005>
5.39164876937866

> <r_mmod_Van_der_Waal_Energy-OPLS-2005>
131.145614624023

> <r_mmod_Electrostatic_Energy-OPLS-2005>
-352.3544921875

> <r_mmod_Solvation_Energy-OPLS-2005>
-239.169311523438

> <b_mmod_Minimization_Converged-OPLS-2005>
0

> <r_mmod_RMS_Derivative-OPLS-2005>
1.39134550094604

$$$$
49
                    3D
 Structure written by MMmdl.
169177  0  0  1  0            999 V2000
  -30.7125  -14.4137   20.6242 C   0  0  0  0  0  0
  -30.4259  -12.2920   19.3989 C   0  0  0  0  0  0
  -29.4904  -12.5140   18.1935 C   0  0  0  0  0  0
  -28.0111  -12.3766   18.6081 C   0  0  0  0  0  0
  -27.6653  -13.2002   19.8775 C   0  0  2  0  0  0
  -28.7042  -12.9357   20.9887 C   0  0  0  0  0  0
  -25.2609  -13.8152   20.5679 C   0  0  0  0  0  0
  -24.1849  -13.0441   20.9174 C   0  0  0  0  0  0
  -24.6391  -11.6904   20.8729 C   0  0  0  0  0  0
  -23.9052  -10.4294   21.0401 C   0  0  0  0  0  0
  -24.3608   -9.4214   21.9181 C   0  0  0  0  0  0
  -23.6287   -8.2248   22.0752 C   0  0  0  0  0  0
  -22.4270   -8.0285   21.3544 C   0  0  0  0  0  0
  -21.9901   -9.0258   20.4647 C   0  0  0  0  0  0
  -22.7225  -10.2137   20.3052 C   0  0  0  0  0  0
  -21.6852   -6.0739   22.5284 C   0  0  0  0  0  0
  -21.4019   -6.5641   23.8221 C   0  0  0  0  0  0
  -21.3660   -5.6789   24.9180 C   0  0  0  0  0  0
  -21.6045   -4.3053   24.7225 C   0  0  0  0  0  0
  -21.8817   -3.8145   23.4346 C   0  0  0  0  0  0
  -21.9193   -4.6966   22.3404 C   0  0  0  0  0  0
  -22.7873  -13.5250   21.1832 C   0  0  0  0  0  0
  -22.1659   -4.2156   21.0980 F   0  0  0  0  0  0
  -21.5621   -3.4535   25.7735 F   0  0  0  0  0  0
  -30.0391  -13.2485   20.4446 N   0  0  0  0  0  0
  -26.3039  -12.9308   20.3363 N   0  0  0  0  0  0
  -25.9313  -11.6475   20.5744 N   0  0  0  0  0  0
  -22.0496  -12.8261   22.0389 N   0  0  0  0  0  0
  -25.4352  -15.1870   20.4103 N   0  0  0  0  0  0
  -31.8132  -14.6522   20.1205 O   0  0  0  0  0  0
  -21.6638   -6.8881   21.4246 O   0  0  0  0  0  0
  -22.3568  -14.5555   20.6669 O   0  0  0  0  0  0
  -24.6116  -31.8694   23.2111 C   0  0  0  0  0  0
  -25.9020  -32.4829   23.8399 C   0  0  1  0  0  0
  -27.2381  -27.4645   20.0908 C   0  0  0  0  0  0
  -25.5883  -33.8626   24.2332 N   0  0  0  0  0  0
  -23.3985  -30.4916   21.5515 C   0  0  2  0  0  0
  -24.8465  -28.9568   20.1182 C   0  0  0  0  0  0
  -22.7392  -29.4668   22.5012 C   0  0  0  0  0  0
  -18.0265  -28.1375   22.8498 C   0  0  0  0  0  0
  -24.1485  -36.7324   23.2642 C   0  0  0  0  0  0
  -25.9232  -30.8443   21.3586 C   0  0  0  0  0  0
  -26.0042  -29.4788   20.7099 C   0  0  0  0  0  0
  -27.2064  -28.7397   20.6938 C   0  0  0  0  0  0
  -26.0686  -26.9447   19.5013 C   0  0  0  0  0  0
  -24.8714  -27.6863   19.5137 C   0  0  0  0  0  0
  -23.6057  -29.8194   20.1675 C   0  0  0  0  0  0
  -25.4104  -36.3117   24.0343 C   0  0  1  0  0  0
  -20.5854  -28.3657   23.1331 C   0  0  2  0  0  0
  -20.6756  -26.9398   22.5424 C   0  0  0  0  0  0
  -19.5736  -26.6387   21.5217 C   0  0  0  0  0  0
  -18.1914  -26.7924   22.1629 C   0  0  0  0  0  0
  -19.1516  -28.8834   23.2912 C   0  0  0  0  0  0
  -18.9446  -30.1440   23.8917 C   0  0  0  0  0  0
  -17.6451  -30.6584   24.0567 C   0  0  0  0  0  0
  -25.9029  -34.9481   23.5134 C   0  0  0  0  0  0
  -16.5340  -29.9088   23.6326 C   0  0  0  0  0  0
  -16.7259  -28.6506   23.0350 C   0  0  0  0  0  0
  -26.4462  -31.6600   25.0715 C   0  0  0  0  0  0
  -25.3736  -31.3705   26.1474 C   0  0  0  0  0  0
  -27.0296  -30.3046   24.6071 C   0  0  0  0  0  0
  -27.6043  -32.4320   25.7468 C   0  0  0  0  0  0
  -27.5580  -37.1814   24.8466 C   0  0  0  0  0  0
  -21.4124  -29.3028   22.3747 N   0  0  0  0  0  0
  -26.4293  -37.3797   23.9410 N   0  0  0  0  0  0
  -24.6627  -31.0819   22.0994 N   0  0  0  0  0  0
  -23.4177  -28.8215   23.3053 O   0  0  0  0  0  0
  -28.3978  -26.7354   20.0590 O   0  0  0  0  0  0
  -26.5595  -34.8930   22.4697 O   0  0  0  0  0  0
  -23.5317  -32.1433   23.7521 O   0  0  0  0  0  0
  -29.3070  -20.2633   20.9916 C   0  0  0  0  0  0
  -30.1150  -19.1649   21.1517 C   0  0  0  0  0  0
  -30.9611  -20.8650   22.3369 C   0  0  0  0  0  0
  -31.8839  -21.5437   23.2997 C   0  0  0  0  0  0
  -30.7275  -17.6619   19.2671 C   0  0  0  0  0  0
  -29.7693  -24.4115   23.5551 C   0  0  0  0  0  0
  -30.9707  -26.0817   21.1873 C   0  0  0  0  0  0
  -29.1628  -22.6285   21.8308 C   0  0  0  0  0  0
  -30.4647  -16.7031   21.6445 C   0  0  0  0  0  0
  -28.4585  -25.7286   21.0668 C   0  0  0  0  0  0
  -29.9938  -17.7630   20.6124 C   0  0  1  0  0  0
  -30.0153  -23.9009   22.1150 C   0  0  1  0  0  0
  -29.8439  -25.0360   21.0564 C   0  0  2  0  0  0
  -29.8411  -21.3043   21.7165 N   0  0  0  0  0  0
  -31.1437  -19.5973   21.9463 N   0  3  0  0  0  0
  -30.0404  -15.3378   21.3236 N   0  0  0  0  0  0
  -31.4682  -12.4033   19.0952 H   0  0  0  0  0  0
  -30.3342  -11.2714   19.7733 H   0  0  0  0  0  0
  -29.7214  -11.8018   17.4007 H   0  0  0  0  0  0
  -29.6643  -13.5053   17.7717 H   0  0  0  0  0  0
  -27.8148  -11.3193   18.7894 H   0  0  0  0  0  0
  -27.3621  -12.6686   17.7815 H   0  0  0  0  0  0
  -27.7243  -14.2548   19.6056 H   0  0  0  0  0  0
  -28.6756  -11.8868   21.2883 H   0  0  0  0  0  0
  -28.4604  -13.4951   21.8929 H   0  0  0  0  0  0
  -25.2752   -9.5692   22.4755 H   0  0  0  0  0  0
  -24.0000   -7.4638   22.7471 H   0  0  0  0  0  0
  -21.0834   -8.8774   19.8954 H   0  0  0  0  0  0
  -22.3685  -10.9675   19.6158 H   0  0  0  0  0  0
  -21.2018   -7.6149   23.9725 H   0  0  0  0  0  0
  -21.1479   -6.0518   25.9083 H   0  0  0  0  0  0
  -22.0594   -2.7610   23.2841 H   0  0  0  0  0  0
  -22.4087  -11.9930   22.4807 H   0  0  0  0  0  0
  -21.1111  -13.1303   22.2561 H   0  0  0  0  0  0
  -24.6691  -15.8436   20.5166 H   0  0  0  0  0  0
  -26.2873  -15.6226   20.0807 H   0  0  0  0  0  0
  -26.7093  -32.5559   23.1174 H   0  0  0  0  0  0
  -25.0018  -33.9789   25.0465 H   0  0  0  0  0  0
  -22.6857  -31.3072   21.4118 H   0  0  0  0  0  0
  -23.3736  -35.9669   23.3318 H   0  0  0  0  0  0
  -24.3575  -36.8922   22.2052 H   0  0  0  0  0  0
  -23.7249  -37.6541   23.6642 H   0  0  0  0  0  0
  -26.0275  -31.6093   20.5880 H   0  0  0  0  0  0
  -26.8142  -30.9023   21.9718 H   0  0  0  0  0  0
  -28.1048  -29.1411   21.1418 H   0  0  0  0  0  0
  -26.0885  -25.9711   19.0317 H   0  0  0  0  0  0
  -23.9808  -27.2770   19.0575 H   0  0  0  0  0  0
  -23.7082  -30.5913   19.4042 H   0  0  0  0  0  0
  -22.7312  -29.2342   19.8771 H   0  0  0  0  0  0
  -25.1278  -36.1987   25.0836 H   0  0  0  0  0  0
  -20.9945  -28.3219   24.1452 H   0  0  0  0  0  0
  -20.5662  -26.2263   23.3606 H   0  0  0  0  0  0
  -21.6629  -26.7447   22.1214 H   0  0  0  0  0  0
  -19.6897  -25.6303   21.1233 H   0  0  0  0  0  0
  -19.6675  -27.3208   20.6754 H   0  0  0  0  0  0
  -17.4187  -26.6678   21.4028 H   0  0  0  0  0  0
  -18.0312  -26.0059   22.9017 H   0  0  0  0  0  0
  -19.7923  -30.7251   24.2296 H   0  0  0  0  0  0
  -17.5007  -31.6267   24.5165 H   0  0  0  0  0  0
  -15.5342  -30.3000   23.7638 H   0  0  0  0  0  0
  -15.8656  -28.0832   22.7054 H   0  0  0  0  0  0
  -24.5895  -30.7066   25.7815 H   0  0  0  0  0  0
  -24.8944  -32.2862   26.4946 H   0  0  0  0  0  0
  -25.8097  -30.8855   27.0215 H   0  0  0  0  0  0
  -26.2834  -29.6808   24.1134 H   0  0  0  0  0  0
  -27.4087  -29.7283   25.4521 H   0  0  0  0  0  0
  -27.8656  -30.4379   23.9201 H   0  0  0  0  0  0
  -27.2659  -33.3601   26.2088 H   0  0  0  0  0  0
  -28.3823  -32.6914   25.0275 H   0  0  0  0  0  0
  -28.0745  -31.8422   26.5347 H   0  0  0  0  0  0
  -28.2610  -38.0100   24.7501 H   0  0  0  0  0  0
  -28.1063  -36.2631   24.6301 H   0  0  0  0  0  0
  -27.2298  -37.1482   25.8870 H   0  0  0  0  0  0
  -20.9282  -29.8745   21.6963 H   0  0  0  0  0  0
  -26.0187  -38.2881   24.1394 H   0  0  0  0  0  0
  -28.3861  -20.3674   20.4335 H   0  0  0  0  0  0
  -31.3032  -22.0676   24.0509 H   0  0  0  0  0  0
  -32.5452  -22.2168   22.7555 H   0  0  0  0  0  0
  -32.4861  -20.7859   23.8011 H   0  0  0  0  0  0
  -30.3746  -18.4213   18.5684 H   0  0  0  0  0  0
  -30.5615  -16.6951   18.7950 H   0  0  0  0  0  0
  -31.8028  -17.7925   19.3871 H   0  0  0  0  0  0
  -29.8759  -23.6241   24.2978 H   0  0  0  0  0  0
  -28.7576  -24.7958   23.6816 H   0  0  0  0  0  0
  -30.4640  -25.2044   23.8300 H   0  0  0  0  0  0
  -30.9598  -26.7807   20.3505 H   0  0  0  0  0  0
  -31.9549  -25.6125   21.1985 H   0  0  0  0  0  0
  -30.8709  -26.6704   22.0990 H   0  0  0  0  0  0
  -28.6260  -22.7684   20.8916 H   0  0  0  0  0  0
  -28.3835  -22.5135   22.5847 H   0  0  0  0  0  0
  -30.0308  -16.9376   22.6176 H   0  0  0  0  0  0
  -31.5467  -16.7445   21.7777 H   0  0  0  0  0  0
  -28.2721  -26.1979   22.0336 H   0  0  0  0  0  0
  -27.6678  -24.9944   20.9059 H   0  0  0  0  0  0
  -28.9320  -17.5958   20.4258 H   0  0  0  0  0  0
  -31.0605  -23.6229   22.0332 H   0  0  0  0  0  0
  -29.9667  -24.5772   20.0733 H   0  0  0  0  0  0
  -31.9293  -19.0288   22.2394 H   0  0  0  0  0  0
  -29.1364  -15.0521   21.6699 H   0  0  0  0  0  0
  1 25  1  0  0  0
  1 30  2  0  0  0
  1 86  1  0  0  0
  2  3  1  0  0  0
  2 25  1  0  0  0
  2 87  1  0  0  0
  2 88  1  0  0  0
  3  4  1  0  0  0
  3 89  1  0  0  0
  3 90  1  0  0  0
  4  5  1  0  0  0
  4 91  1  0  0  0
  4 92  1  0  0  0
  5  6  1  0  0  0
  5 26  1  0  0  0
  5 93  1  0  0  0
  6 25  1  0  0  0
  6 94  1  0  0  0
  6 95  1  0  0  0
  7  8  2  0  0  0
  7 26  1  0  0  0
  7 29  1  0  0  0
  8  9  1  0  0  0
  8 22  1  0  0  0
  9 10  1  0  0  0
  9 27  2  0  0  0
 10 11  2  0  0  0
 10 15  1  0  0  0
 11 12  1  0  0  0
 11 96  1  0  0  0
 12 13  2  0  0  0
 12 97  1  0  0  0
 13 14  1  0  0  0
 13 31  1  0  0  0
 14 15  2  0  0  0
 14 98  1  0  0  0
 15 99  1  0  0  0
 16 17  2  0  0  0
 16 21  1  0  0  0
 16 31  1  0  0  0
 17 18  1  0  0  0
 17100  1  0  0  0
 18 19  2  0  0  0
 18101  1  0  0  0
 19 20  1  0  0  0
 19 24  1  0  0  0
 20 21  2  0  0  0
 20102  1  0  0  0
 21 23  1  0  0  0
 22 28  1  0  0  0
 22 32  2  0  0  0
 26 27  1  0  0  0
 28103  1  0  0  0
 28104  1  0  0  0
 29105  1  0  0  0
 29106  1  0  0  0
 33 34  1  0  0  0
 33 66  1  0  0  0
 33 70  2  0  0  0
 34 36  1  0  0  0
 34 59  1  0  0  0
 34107  1  0  0  0
 35 44  2  0  0  0
 35 45  1  0  0  0
 35 68  1  0  0  0
 36 56  1  0  0  0
 36108  1  0  0  0
 37 39  1  0  0  0
 37 47  1  0  0  0
 37 66  1  0  0  0
 37109  1  0  0  0
 38 43  2  0  0  0
 38 46  1  0  0  0
 38 47  1  0  0  0
 39 64  1  0  0  0
 39 67  2  0  0  0
 40 52  1  0  0  0
 40 53  2  0  0  0
 40 58  1  0  0  0
 41110  1  0  0  0
 41111  1  0  0  0
 41112  1  0  0  0
 41 48  1  0  0  0
 42 43  1  0  0  0
 42 66  1  0  0  0
 42113  1  0  0  0
 42114  1  0  0  0
 43 44  1  0  0  0
 44115  1  0  0  0
 45 46  2  0  0  0
 45116  1  0  0  0
 46117  1  0  0  0
 47118  1  0  0  0
 47119  1  0  0  0
 48 56  1  0  0  0
 48 65  1  0  0  0
 48120  1  0  0  0
 49 50  1  0  0  0
 49 53  1  0  0  0
 49 64  1  0  0  0
 49121  1  0  0  0
 50 51  1  0  0  0
 50122  1  0  0  0
 50123  1  0  0  0
 51 52  1  0  0  0
 51124  1  0  0  0
 51125  1  0  0  0
 52126  1  0  0  0
 52127  1  0  0  0
 53 54  1  0  0  0
 54 55  2  0  0  0
 54128  1  0  0  0
 55 57  1  0  0  0
 55129  1  0  0  0
 56 69  2  0  0  0
 57 58  2  0  0  0
 57130  1  0  0  0
 58131  1  0  0  0
 59 60  1  0  0  0
 59 61  1  0  0  0
 59 62  1  0  0  0
 60132  1  0  0  0
 60133  1  0  0  0
 60134  1  0  0  0
 61135  1  0  0  0
 61136  1  0  0  0
 61137  1  0  0  0
 62138  1  0  0  0
 62139  1  0  0  0
 62140  1  0  0  0
 63 65  1  0  0  0
 63141  1  0  0  0
 63142  1  0  0  0
 63143  1  0  0  0
 64144  1  0  0  0
 65145  1  0  0  0
 68 80  1  0  0  0
 71 72  2  0  0  0
 71 84  1  0  0  0
 71146  1  0  0  0
 72 81  1  0  0  0
 72 85  1  0  0  0
 73 74  1  0  0  0
 73 84  1  0  0  0
 73 85  2  0  0  0
 74147  1  0  0  0
 74148  1  0  0  0
 74149  1  0  0  0
 75150  1  0  0  0
 75151  1  0  0  0
 75152  1  0  0  0
 75 81  1  0  0  0
 76153  1  0  0  0
 76154  1  0  0  0
 76155  1  0  0  0
 76 82  1  0  0  0
 77156  1  0  0  0
 77157  1  0  0  0
 77158  1  0  0  0
 77 83  1  0  0  0
 78 82  1  0  0  0
 78 84  1  0  0  0
 78159  1  0  0  0
 78160  1  0  0  0
 79 81  1  0  0  0
 79 86  1  0  0  0
 79161  1  0  0  0
 79162  1  0  0  0
 80 83  1  0  0  0
 80163  1  0  0  0
 80164  1  0  0  0
 81165  1  0  0  0
 82 83  1  0  0  0
 82166  1  0  0  0
 83167  1  0  0  0
 85168  1  0  0  0
 86169  1  0  0  0
M  CHG  1  85   1
M  ISO  4   1 100  68 101  80 101  86 100
M  END
> <chiral flag>
0

> <version>
0

> <s_m_source_file>
/data/baiqing/PycharmProjects/Reinvent-master-3.2/result/LINK_invent/BTK/process_docking_weight1_custom_sum_contain_oxygen_bond_distance_aromatic_linkinvent_7_9_3/rearranged_h_0082.sdf

> <i_m_source_file_index>
49

> <r_mmod_Potential_Energy-OPLS-2005>
-101.266639709473

> <r_mmod_Stretch_Energy-OPLS-2005>
35.7804183959961

> <r_mmod_Bend_Energy-OPLS-2005>
109.738830566406

> <r_mmod_Torsional_Energy-OPLS-2005>
266.72265625

> <r_mmod_Improper_Torsional_Energy-OPLS-2005>
2.73068070411682

> <r_mmod_Van_der_Waal_Energy-OPLS-2005>
132.168960571289

> <r_mmod_Electrostatic_Energy-OPLS-2005>
-246.989837646484

> <r_mmod_Solvation_Energy-OPLS-2005>
-409.348754882812

> <b_mmod_Minimization_Converged-OPLS-2005>
0

> <r_mmod_RMS_Derivative-OPLS-2005>
1.13439476490021

$$$$
50
                    3D
 Structure written by MMmdl.
154162  0  0  1  0            999 V2000
  -30.5517  -15.0070   20.4414 C   0  0  0  0  0  0
  -30.4292  -12.6343   19.5106 C   0  0  0  0  0  0
  -29.5145  -12.5501   18.2657 C   0  0  0  0  0  0
  -28.0529  -12.3198   18.6873 C   0  0  0  0  0  0
  -27.6258  -13.2593   19.8435 C   0  0  2  0  0  0
  -28.6652  -13.3157   20.9832 C   0  0  0  0  0  0
  -25.2440  -13.8256   20.5748 C   0  0  0  0  0  0
  -24.1768  -13.0456   20.9231 C   0  0  0  0  0  0
  -24.6401  -11.6942   20.8762 C   0  0  0  0  0  0
  -23.9078  -10.4310   21.0423 C   0  0  0  0  0  0
  -24.3633   -9.4210   21.9195 C   0  0  0  0  0  0
  -23.6303   -8.2243   22.0758 C   0  0  0  0  0  0
  -22.4274   -8.0288   21.3544 C   0  0  0  0  0  0
  -21.9919   -9.0267   20.4648 C   0  0  0  0  0  0
  -22.7258  -10.2152   20.3064 C   0  0  0  0  0  0
  -21.6856   -6.0730   22.5278 C   0  0  0  0  0  0
  -21.4018   -6.5631   23.8217 C   0  0  0  0  0  0
  -21.3664   -5.6782   24.9178 C   0  0  0  0  0  0
  -21.6053   -4.3042   24.7221 C   0  0  0  0  0  0
  -21.8821   -3.8136   23.4346 C   0  0  0  0  0  0
  -21.9201   -4.6960   22.3406 C   0  0  0  0  0  0
  -22.7792  -13.5227   21.1895 C   0  0  0  0  0  0
  -22.1663   -4.2147   21.0978 F   0  0  0  0  0  0
  -21.5644   -3.4525   25.7735 F   0  0  0  0  0  0
  -29.9360  -13.7452   20.3860 N   0  0  0  0  0  0
  -26.2873  -12.9504   20.3300 N   0  0  0  0  0  0
  -25.9338  -11.6613   20.5770 N   0  0  0  0  0  0
  -22.0448  -12.8202   22.0448 N   0  0  0  0  0  0
  -25.4090  -15.1979   20.4173 N   0  0  0  0  0  0
  -31.7328  -15.0296   20.0650 O   0  0  0  0  0  0
  -21.6646   -6.8873   21.4236 O   0  0  0  0  0  0
  -22.3474  -14.5549   20.6772 O   0  0  0  0  0  0
  -24.6423  -31.8407   23.1859 C   0  0  0  0  0  0
  -25.9165  -32.4674   23.8285 C   0  0  1  0  0  0
  -27.2239  -27.1049   20.1627 C   0  0  0  0  0  0
  -25.5872  -33.8479   24.2182 N   0  0  0  0  0  0
  -23.4492  -30.4521   21.5311 C   0  0  2  0  0  0
  -24.9043  -28.8721   20.1059 C   0  0  0  0  0  0
  -22.7590  -29.4489   22.4870 C   0  0  0  0  0  0
  -18.0313  -28.1386   22.8490 C   0  0  0  0  0  0
  -24.1481  -36.7261   23.2644 C   0  0  0  0  0  0
  -26.0024  -30.7052   21.3877 C   0  0  0  0  0  0
  -26.0760  -29.3116   20.7329 C   0  0  0  0  0  0
  -27.2319  -28.4407   20.7466 C   0  0  0  0  0  0
  -26.0298  -26.7697   19.4907 C   0  0  0  0  0  0
  -24.8961  -27.6187   19.4701 C   0  0  0  0  0  0
  -23.6770  -29.7734   20.1516 C   0  0  0  0  0  0
  -25.4109  -36.3038   24.0328 C   0  0  1  0  0  0
  -20.5918  -28.3698   23.1246 C   0  0  2  0  0  0
  -20.6793  -26.9393   22.5415 C   0  0  0  0  0  0
  -19.5772  -26.6367   21.5216 C   0  0  0  0  0  0
  -18.1949  -26.7932   22.1619 C   0  0  0  0  0  0
  -19.1568  -28.8862   23.2867 C   0  0  0  0  0  0
  -18.9483  -30.1453   23.8891 C   0  0  0  0  0  0
  -17.6476  -30.6588   24.0541 C   0  0  0  0  0  0
  -25.9057  -34.9401   23.5093 C   0  0  0  0  0  0
  -16.5366  -29.9075   23.6331 C   0  0  0  0  0  0
  -16.7291  -28.6481   23.0370 C   0  0  0  0  0  0
  -26.4484  -31.6560   25.0748 C   0  0  0  0  0  0
  -25.3672  -31.3712   26.1453 C   0  0  0  0  0  0
  -27.0347  -30.2958   24.6323 C   0  0  0  0  0  0
  -27.6022  -32.4345   25.7518 C   0  0  0  0  0  0
  -27.5598  -37.1770   24.8459 C   0  0  0  0  0  0
  -21.4274  -29.3016   22.3624 N   0  0  0  0  0  0
  -26.4293  -37.3733   23.9419 N   0  0  0  0  0  0
  -24.7184  -31.0226   22.0905 N   0  0  0  0  0  0
  -23.4238  -28.8052   23.3030 O   0  0  0  0  0  0
  -28.2842  -26.1292   20.3079 O   0  0  0  0  0  0
  -26.5688  -34.8901   22.4703 O   0  0  0  0  0  0
  -23.5522  -32.1288   23.7043 O   0  0  0  0  0  0
  -29.5605  -18.9365   20.7806 C   0  0  0  0  0  0
  -29.0811  -20.1472   20.0602 C   0  0  0  0  0  0
  -29.5359  -17.5523   20.2142 C   0  0  0  0  0  0
  -28.5843  -18.6308   18.3656 C   0  0  0  0  0  0
  -28.0143  -18.4409   16.9744 C   0  0  0  0  0  0
  -30.0064  -16.3402   22.3689 C   0  0  0  0  0  0
  -29.3165  -21.7771   20.3512 C   0  0  0  0  0  0
  -28.2285  -23.0956   20.4188 C   0  0  0  0  0  0
  -28.4055  -24.6637   19.7488 C   0  0  0  0  0  0
  -28.5986  -19.8863   18.8305 N   0  0  0  0  0  0
  -29.0200  -17.5170   18.9682 N   0  0  0  0  0  0
  -29.9148  -16.2160   20.9110 N   0  0  0  0  0  0
  -31.4615  -12.7847   19.1907 H   0  0  0  0  0  0
  -30.4300  -11.6889   20.0549 H   0  0  0  0  0  0
  -29.8421  -11.7487   17.6005 H   0  0  0  0  0  0
  -29.5893  -13.4767   17.6936 H   0  0  0  0  0  0
  -27.9601  -11.2798   19.0028 H   0  0  0  0  0  0
  -27.3856  -12.4416   17.8330 H   0  0  0  0  0  0
  -27.5825  -14.2579   19.4062 H   0  0  0  0  0  0
  -28.7663  -12.3483   21.4760 H   0  0  0  0  0  0
  -28.3449  -14.0214   21.7500 H   0  0  0  0  0  0
  -25.2774   -9.5702   22.4776 H   0  0  0  0  0  0
  -24.0016   -7.4641   22.7489 H   0  0  0  0  0  0
  -21.0838   -8.8801   19.8956 H   0  0  0  0  0  0
  -22.3709  -10.9697   19.6184 H   0  0  0  0  0  0
  -21.1991   -7.6135   23.9724 H   0  0  0  0  0  0
  -21.1492   -6.0503   25.9091 H   0  0  0  0  0  0
  -22.0595   -2.7591   23.2846 H   0  0  0  0  0  0
  -22.4047  -11.9829   22.4787 H   0  0  0  0  0  0
  -21.1102  -13.1276   22.2737 H   0  0  0  0  0  0
  -24.6390  -15.8485   20.5269 H   0  0  0  0  0  0
  -26.2642  -15.6421   20.1098 H   0  0  0  0  0  0
  -26.7248  -32.5295   23.1031 H   0  0  0  0  0  0
  -24.9848  -33.9563   25.0213 H   0  0  0  0  0  0
  -22.7497  -31.2766   21.3750 H   0  0  0  0  0  0
  -23.3751  -35.9584   23.3269 H   0  0  0  0  0  0
  -24.3534  -36.8944   22.2058 H   0  0  0  0  0  0
  -23.7229  -37.6435   23.6719 H   0  0  0  0  0  0
  -26.1547  -31.4586   20.6139 H   0  0  0  0  0  0
  -26.8714  -30.7624   22.0308 H   0  0  0  0  0  0
  -28.1195  -28.7644   21.2732 H   0  0  0  0  0  0
  -25.9376  -25.8009   19.0242 H   0  0  0  0  0  0
  -23.9971  -27.2771   18.9741 H   0  0  0  0  0  0
  -23.8089  -30.5453   19.3944 H   0  0  0  0  0  0
  -22.7938  -29.2112   19.8476 H   0  0  0  0  0  0
  -25.1292  -36.1881   25.0815 H   0  0  0  0  0  0
  -20.9997  -28.3298   24.1380 H   0  0  0  0  0  0
  -20.5672  -26.2300   23.3632 H   0  0  0  0  0  0
  -21.6659  -26.7401   22.1222 H   0  0  0  0  0  0
  -19.6913  -25.6277   21.1264 H   0  0  0  0  0  0
  -19.6726  -27.3169   20.6734 H   0  0  0  0  0  0
  -17.4220  -26.6692   21.4020 H   0  0  0  0  0  0
  -18.0336  -26.0069   22.9000 H   0  0  0  0  0  0
  -19.7955  -30.7260   24.2287 H   0  0  0  0  0  0
  -17.5031  -31.6276   24.5135 H   0  0  0  0  0  0
  -15.5369  -30.2957   23.7670 H   0  0  0  0  0  0
  -15.8703  -28.0782   22.7112 H   0  0  0  0  0  0
  -24.5914  -30.6980   25.7772 H   0  0  0  0  0  0
  -24.8768  -32.2854   26.4812 H   0  0  0  0  0  0
  -25.7991  -30.8964   27.0276 H   0  0  0  0  0  0
  -26.2959  -29.6669   24.1338 H   0  0  0  0  0  0
  -27.3940  -29.7270   25.4904 H   0  0  0  0  0  0
  -27.8884  -30.4171   23.9654 H   0  0  0  0  0  0
  -27.2628  -33.3677   26.2020 H   0  0  0  0  0  0
  -28.3858  -32.6841   25.0359 H   0  0  0  0  0  0
  -28.0670  -31.8531   26.5489 H   0  0  0  0  0  0
  -28.2569  -38.0108   24.7521 H   0  0  0  0  0  0
  -28.1158  -36.2633   24.6285 H   0  0  0  0  0  0
  -27.2311  -37.1390   25.8858 H   0  0  0  0  0  0
  -20.9509  -29.8705   21.6773 H   0  0  0  0  0  0
  -26.0184  -38.2809   24.1420 H   0  0  0  0  0  0
  -29.9829  -19.0814   21.7655 H   0  0  0  0  0  0
  -27.3778  -19.2770   16.6841 H   0  0  0  0  0  0
  -27.4111  -17.5353   16.9237 H   0  0  0  0  0  0
  -28.8128  -18.3536   16.2370 H   0  0  0  0  0  0
  -29.1318  -16.8563   22.7658 H   0  0  0  0  0  0
  -30.8915  -16.9164   22.6428 H   0  0  0  0  0  0
  -30.0681  -15.3764   22.8799 H   0  0  0  0  0  0
  -30.0549  -22.0626   19.6030 H   0  0  0  0  0  0
  -29.8807  -21.8121   21.2829 H   0  0  0  0  0  0
  -27.9662  -23.2276   21.4702 H   0  0  0  0  0  0
  -27.3051  -22.7126   19.9843 H   0  0  0  0  0  0
  -27.8562  -24.6569   18.8075 H   0  0  0  0  0  0
  -29.4419  -24.6632   19.4094 H   0  0  0  0  0  0
  1 25  1  0  0  0
  1 30  2  0  0  0
  1 82  1  0  0  0
  2  3  1  0  0  0
  2 25  1  0  0  0
  2 83  1  0  0  0
  2 84  1  0  0  0
  3  4  1  0  0  0
  3 85  1  0  0  0
  3 86  1  0  0  0
  4  5  1  0  0  0
  4 87  1  0  0  0
  4 88  1  0  0  0
  5  6  1  0  0  0
  5 26  1  0  0  0
  5 89  1  0  0  0
  6 25  1  0  0  0
  6 90  1  0  0  0
  6 91  1  0  0  0
  7  8  2  0  0  0
  7 26  1  0  0  0
  7 29  1  0  0  0
  8  9  1  0  0  0
  8 22  1  0  0  0
  9 10  1  0  0  0
  9 27  2  0  0  0
 10 11  2  0  0  0
 10 15  1  0  0  0
 11 12  1  0  0  0
 11 92  1  0  0  0
 12 13  2  0  0  0
 12 93  1  0  0  0
 13 14  1  0  0  0
 13 31  1  0  0  0
 14 15  2  0  0  0
 14 94  1  0  0  0
 15 95  1  0  0  0
 16 17  2  0  0  0
 16 21  1  0  0  0
 16 31  1  0  0  0
 17 18  1  0  0  0
 17 96  1  0  0  0
 18 19  2  0  0  0
 18 97  1  0  0  0
 19 20  1  0  0  0
 19 24  1  0  0  0
 20 21  2  0  0  0
 20 98  1  0  0  0
 21 23  1  0  0  0
 22 28  1  0  0  0
 22 32  2  0  0  0
 26 27  1  0  0  0
 28 99  1  0  0  0
 28100  1  0  0  0
 29101  1  0  0  0
 29102  1  0  0  0
 33 34  1  0  0  0
 33 66  1  0  0  0
 33 70  2  0  0  0
 34 36  1  0  0  0
 34 59  1  0  0  0
 34103  1  0  0  0
 35 44  2  0  0  0
 35 45  1  0  0  0
 35 68  1  0  0  0
 36 56  1  0  0  0
 36104  1  0  0  0
 37 39  1  0  0  0
 37 47  1  0  0  0
 37 66  1  0  0  0
 37105  1  0  0  0
 38 43  2  0  0  0
 38 46  1  0  0  0
 38 47  1  0  0  0
 39 64  1  0  0  0
 39 67  2  0  0  0
 40 52  1  0  0  0
 40 53  2  0  0  0
 40 58  1  0  0  0
 41106  1  0  0  0
 41107  1  0  0  0
 41108  1  0  0  0
 41 48  1  0  0  0
 42 43  1  0  0  0
 42 66  1  0  0  0
 42109  1  0  0  0
 42110  1  0  0  0
 43 44  1  0  0  0
 44111  1  0  0  0
 45 46  2  0  0  0
 45112  1  0  0  0
 46113  1  0  0  0
 47114  1  0  0  0
 47115  1  0  0  0
 48 56  1  0  0  0
 48 65  1  0  0  0
 48116  1  0  0  0
 49 50  1  0  0  0
 49 53  1  0  0  0
 49 64  1  0  0  0
 49117  1  0  0  0
 50 51  1  0  0  0
 50118  1  0  0  0
 50119  1  0  0  0
 51 52  1  0  0  0
 51120  1  0  0  0
 51121  1  0  0  0
 52122  1  0  0  0
 52123  1  0  0  0
 53 54  1  0  0  0
 54 55  2  0  0  0
 54124  1  0  0  0
 55 57  1  0  0  0
 55125  1  0  0  0
 56 69  2  0  0  0
 57 58  2  0  0  0
 57126  1  0  0  0
 58127  1  0  0  0
 59 60  1  0  0  0
 59 61  1  0  0  0
 59 62  1  0  0  0
 60128  1  0  0  0
 60129  1  0  0  0
 60130  1  0  0  0
 61131  1  0  0  0
 61132  1  0  0  0
 61133  1  0  0  0
 62134  1  0  0  0
 62135  1  0  0  0
 62136  1  0  0  0
 63 65  1  0  0  0
 63137  1  0  0  0
 63138  1  0  0  0
 63139  1  0  0  0
 64140  1  0  0  0
 65141  1  0  0  0
 68 79  1  0  0  0
 71 72  2  0  0  0
 71 73  1  0  0  0
 71142  1  0  0  0
 72 77  1  0  0  0
 72 80  1  0  0  0
 73 81  2  0  0  0
 73 82  1  0  0  0
 74 75  1  0  0  0
 74 80  2  0  0  0
 74 81  1  0  0  0
 75143  1  0  0  0
 75144  1  0  0  0
 75145  1  0  0  0
 76 82  1  0  0  0
 76146  1  0  0  0
 76147  1  0  0  0
 76148  1  0  0  0
 77 78  1  0  0  0
 77149  1  0  0  0
 77150  1  0  0  0
 78 79  1  0  0  0
 78151  1  0  0  0
 78152  1  0  0  0
 79153  1  0  0  0
 79154  1  0  0  0
M  ISO  4   1 100  68 101  79 101  82 100
M  END
> <chiral flag>
0

> <version>
0

> <s_m_source_file>
/data/baiqing/PycharmProjects/Reinvent-master-3.2/result/LINK_invent/BTK/process_docking_weight1_custom_sum_contain_oxygen_bond_distance_aromatic_linkinvent_7_9_3/rearranged_h_0082.sdf

> <i_m_source_file_index>
50

> <r_mmod_Potential_Energy-OPLS-2005>
362.931854248047

> <r_mmod_Stretch_Energy-OPLS-2005>
309.353698730469

> <r_mmod_Bend_Energy-OPLS-2005>
339.851715087891

> <r_mmod_Torsional_Energy-OPLS-2005>
287.585723876953

> <r_mmod_Improper_Torsional_Energy-OPLS-2005>
4.47114419937134

> <r_mmod_Van_der_Waal_Energy-OPLS-2005>
133.601943969727

> <r_mmod_Electrostatic_Energy-OPLS-2005>
-725.431640625

> <r_mmod_Solvation_Energy-OPLS-2005>
-211.929565429688

> <b_mmod_Minimization_Converged-OPLS-2005>
0

> <r_mmod_RMS_Derivative-OPLS-2005>
3.05929112434387

$$$$
51
                    3D
 Structure written by MMmdl.
169177  0  0  1  0            999 V2000
  -30.6907  -14.4854   20.5149 C   0  0  0  0  0  0
  -30.4280  -12.2950   19.4293 C   0  0  0  0  0  0
  -29.4977  -12.4975   18.2122 C   0  0  0  0  0  0
  -28.0159  -12.3615   18.6210 C   0  0  0  0  0  0
  -27.6609  -13.1929   19.8826 C   0  0  2  0  0  0
  -28.7130  -12.9794   20.9956 C   0  0  0  0  0  0
  -25.2605  -13.8101   20.5719 C   0  0  0  0  0  0
  -24.1836  -13.0401   20.9188 C   0  0  0  0  0  0
  -24.6372  -11.6864   20.8747 C   0  0  0  0  0  0
  -23.9033  -10.4269   21.0415 C   0  0  0  0  0  0
  -24.3597   -9.4184   21.9189 C   0  0  0  0  0  0
  -23.6277   -8.2219   22.0759 C   0  0  0  0  0  0
  -22.4258   -8.0267   21.3550 C   0  0  0  0  0  0
  -21.9897   -9.0239   20.4648 C   0  0  0  0  0  0
  -22.7214  -10.2122   20.3055 C   0  0  0  0  0  0
  -21.6839   -6.0723   22.5282 C   0  0  0  0  0  0
  -21.3992   -6.5631   23.8211 C   0  0  0  0  0  0
  -21.3653   -5.6792   24.9180 C   0  0  0  0  0  0
  -21.6048   -4.3056   24.7225 C   0  0  0  0  0  0
  -21.8827   -3.8140   23.4348 C   0  0  0  0  0  0
  -21.9193   -4.6955   22.3404 C   0  0  0  0  0  0
  -22.7867  -13.5225   21.1850 C   0  0  0  0  0  0
  -22.1671   -4.2144   21.0981 F   0  0  0  0  0  0
  -21.5638   -3.4544   25.7738 F   0  0  0  0  0  0
  -30.0442  -13.2857   20.4471 N   0  0  0  0  0  0
  -26.3031  -12.9237   20.3441 N   0  0  0  0  0  0
  -25.9297  -11.6413   20.5800 N   0  0  0  0  0  0
  -22.0505  -12.8205   22.0396 N   0  0  0  0  0  0
  -25.4335  -15.1820   20.4125 N   0  0  0  0  0  0
  -31.8516  -14.6152   20.1109 O   0  0  0  0  0  0
  -21.6627   -6.8862   21.4243 O   0  0  0  0  0  0
  -22.3569  -14.5548   20.6717 O   0  0  0  0  0  0
  -24.6116  -31.8697   23.2110 C   0  0  0  0  0  0
  -25.9012  -32.4836   23.8410 C   0  0  1  0  0  0
  -27.2572  -27.4592   20.1075 C   0  0  0  0  0  0
  -25.5869  -33.8631   24.2343 N   0  0  0  0  0  0
  -23.4006  -30.4905   21.5498 C   0  0  2  0  0  0
  -24.8552  -28.9581   20.1176 C   0  0  0  0  0  0
  -22.7405  -29.4657   22.4997 C   0  0  0  0  0  0
  -18.0271  -28.1379   22.8497 C   0  0  0  0  0  0
  -24.1484  -36.7329   23.2639 C   0  0  0  0  0  0
  -25.9252  -30.8446   21.3615 C   0  0  0  0  0  0
  -26.0085  -29.4770   20.7188 C   0  0  0  0  0  0
  -27.2100  -28.7353   20.7204 C   0  0  0  0  0  0
  -26.0904  -26.9573   19.4953 C   0  0  0  0  0  0
  -24.8890  -27.6937   19.5033 C   0  0  0  0  0  0
  -23.6118  -29.8187   20.1653 C   0  0  0  0  0  0
  -25.4101  -36.3123   24.0345 C   0  0  1  0  0  0
  -20.5859  -28.3662   23.1329 C   0  0  2  0  0  0
  -20.6762  -26.9400   22.5424 C   0  0  0  0  0  0
  -19.5743  -26.6386   21.5217 C   0  0  0  0  0  0
  -18.1922  -26.7927   22.1625 C   0  0  0  0  0  0
  -19.1520  -28.8839   23.2911 C   0  0  0  0  0  0
  -18.9449  -30.1445   23.8920 C   0  0  0  0  0  0
  -17.6449  -30.6587   24.0571 C   0  0  0  0  0  0
  -25.9021  -34.9485   23.5143 C   0  0  0  0  0  0
  -16.5342  -29.9093   23.6318 C   0  0  0  0  0  0
  -16.7262  -28.6512   23.0341 C   0  0  0  0  0  0
  -26.4451  -31.6598   25.0718 C   0  0  0  0  0  0
  -25.3728  -31.3689   26.1473 C   0  0  0  0  0  0
  -27.0283  -30.3052   24.6053 C   0  0  0  0  0  0
  -27.6034  -32.4310   25.7478 C   0  0  0  0  0  0
  -27.5580  -37.1818   24.8464 C   0  0  0  0  0  0
  -21.4132  -29.3030   22.3736 N   0  0  0  0  0  0
  -26.4295  -37.3798   23.9406 N   0  0  0  0  0  0
  -24.6634  -31.0823   22.1001 N   0  0  0  0  0  0
  -23.4186  -28.8210   23.3038 O   0  0  0  0  0  0
  -28.3806  -26.6595   20.0584 O   0  0  0  0  0  0
  -26.5592  -34.8932   22.4710 O   0  0  0  0  0  0
  -23.5314  -32.1436   23.7521 O   0  0  0  0  0  0
  -30.7051  -18.1991   21.3932 C   0  0  0  0  0  0
  -31.8769  -17.7452   23.1558 C   0  0  0  0  0  0
  -30.6563  -16.8353   21.6228 C   0  0  0  0  0  0
  -29.4475  -16.4028   19.4736 C   0  0  0  0  0  0
  -30.0665  -20.1610   24.3796 C   0  0  0  0  0  0
  -31.9463  -21.7762   24.4729 C   0  0  0  0  0  0
  -29.7144  -24.3706   21.6739 C   0  0  0  0  0  0
  -30.7382  -23.2725   22.0552 C   0  0  0  0  0  0
  -30.3535  -25.6557   21.1006 C   0  0  0  0  0  0
  -30.0764  -22.0624   22.7644 C   0  0  0  0  0  0
  -31.8557  -20.1839   22.5076 C   0  0  0  0  0  0
  -29.3987  -26.8692   21.0337 C   0  0  0  0  0  0
  -29.8901  -15.7873   20.8222 C   0  0  1  0  0  0
  -30.9958  -21.0374   23.5049 C   0  0  0  0  0  0
  -31.3924  -16.5607   22.7802 N   0  0  0  0  0  0
  -31.4973  -18.7711   22.3785 N   0  0  0  0  0  0
  -31.4734  -12.3835   19.1272 H   0  0  0  0  0  0
  -30.3225  -11.2857   19.8304 H   0  0  0  0  0  0
  -29.7374  -11.7743   17.4310 H   0  0  0  0  0  0
  -29.6687  -13.4820   17.7759 H   0  0  0  0  0  0
  -27.8231  -11.3055   18.8127 H   0  0  0  0  0  0
  -27.3667  -12.6428   17.7910 H   0  0  0  0  0  0
  -27.6834  -14.2354   19.5882 H   0  0  0  0  0  0
  -28.6928  -11.9408   21.3306 H   0  0  0  0  0  0
  -28.4831  -13.5609   21.8872 H   0  0  0  0  0  0
  -25.2750   -9.5656   22.4753 H   0  0  0  0  0  0
  -23.9996   -7.4602   22.7462 H   0  0  0  0  0  0
  -21.0840   -8.8747   19.8940 H   0  0  0  0  0  0
  -22.3684  -10.9661   19.6159 H   0  0  0  0  0  0
  -21.1966   -7.6140   23.9709 H   0  0  0  0  0  0
  -21.1476   -6.0524   25.9086 H   0  0  0  0  0  0
  -22.0610   -2.7602   23.2850 H   0  0  0  0  0  0
  -22.4127  -11.9858   22.4759 H   0  0  0  0  0  0
  -21.1120  -13.1215   22.2620 H   0  0  0  0  0  0
  -24.6681  -15.8385   20.5198 H   0  0  0  0  0  0
  -26.2911  -15.6243   20.1077 H   0  0  0  0  0  0
  -26.7095  -32.5577   23.1195 H   0  0  0  0  0  0
  -25.0015  -33.9799   25.0487 H   0  0  0  0  0  0
  -22.6882  -31.3056   21.4085 H   0  0  0  0  0  0
  -23.3737  -35.9669   23.3313 H   0  0  0  0  0  0
  -24.3586  -36.8930   22.2051 H   0  0  0  0  0  0
  -23.7247  -37.6545   23.6645 H   0  0  0  0  0  0
  -26.0267  -31.6061   20.5867 H   0  0  0  0  0  0
  -26.8166  -30.9096   21.9735 H   0  0  0  0  0  0
  -28.0895  -29.1558   21.1865 H   0  0  0  0  0  0
  -26.1125  -25.9860   19.0213 H   0  0  0  0  0  0
  -24.0045  -27.2861   19.0331 H   0  0  0  0  0  0
  -23.7154  -30.5916   19.4030 H   0  0  0  0  0  0
  -22.7395  -29.2315   19.8722 H   0  0  0  0  0  0
  -25.1276  -36.1997   25.0840 H   0  0  0  0  0  0
  -20.9954  -28.3227   24.1447 H   0  0  0  0  0  0
  -20.5667  -26.2271   23.3608 H   0  0  0  0  0  0
  -21.6636  -26.7449   22.1214 H   0  0  0  0  0  0
  -19.6906  -25.6302   21.1236 H   0  0  0  0  0  0
  -19.6683  -27.3207   20.6756 H   0  0  0  0  0  0
  -17.4191  -26.6681   21.4022 H   0  0  0  0  0  0
  -18.0317  -26.0066   22.9018 H   0  0  0  0  0  0
  -19.7923  -30.7255   24.2300 H   0  0  0  0  0  0
  -17.5005  -31.6265   24.5172 H   0  0  0  0  0  0
  -15.5343  -30.3006   23.7625 H   0  0  0  0  0  0
  -15.8662  -28.0841   22.7034 H   0  0  0  0  0  0
  -24.5888  -30.7050   25.7805 H   0  0  0  0  0  0
  -24.8931  -32.2845   26.4949 H   0  0  0  0  0  0
  -25.8088  -30.8833   27.0213 H   0  0  0  0  0  0
  -26.2823  -29.6828   24.1095 H   0  0  0  0  0  0
  -27.4067  -29.7259   25.4487 H   0  0  0  0  0  0
  -27.8647  -30.4392   23.9187 H   0  0  0  0  0  0
  -27.2646  -33.3587   26.2102 H   0  0  0  0  0  0
  -28.3811  -32.6908   25.0284 H   0  0  0  0  0  0
  -28.0732  -31.8406   26.5353 H   0  0  0  0  0  0
  -28.2606  -38.0107   24.7506 H   0  0  0  0  0  0
  -28.1069  -36.2643   24.6294 H   0  0  0  0  0  0
  -27.2307  -37.1478   25.8870 H   0  0  0  0  0  0
  -20.9293  -29.8757   21.6959 H   0  0  0  0  0  0
  -26.0193  -38.2882   24.1394 H   0  0  0  0  0  0
  -30.2523  -18.8026   20.6180 H   0  0  0  0  0  0
  -32.5114  -17.8721   24.0227 H   0  0  0  0  0  0
  -28.7054  -17.1870   19.6250 H   0  0  0  0  0  0
  -29.0160  -15.6748   18.7907 H   0  0  0  0  0  0
  -30.2974  -16.8428   18.9498 H   0  0  0  0  0  0
  -29.4854  -20.7660   25.0769 H   0  0  0  0  0  0
  -30.6274  -19.4454   24.9812 H   0  0  0  0  0  0
  -29.3508  -19.6021   23.7752 H   0  0  0  0  0  0
  -31.4053  -22.4649   25.1225 H   0  0  0  0  0  0
  -32.7081  -22.3501   23.9438 H   0  0  0  0  0  0
  -32.4795  -21.0762   25.1178 H   0  0  0  0  0  0
  -29.1462  -24.6396   22.5656 H   0  0  0  0  0  0
  -28.9883  -23.9749   20.9620 H   0  0  0  0  0  0
  -31.4757  -23.7295   22.7135 H   0  0  0  0  0  0
  -31.2820  -22.9403   21.1696 H   0  0  0  0  0  0
  -30.7719  -25.4558   20.1132 H   0  0  0  0  0  0
  -31.1979  -25.9356   21.7325 H   0  0  0  0  0  0
  -29.4518  -21.5288   22.0455 H   0  0  0  0  0  0
  -29.3778  -22.4706   23.4963 H   0  0  0  0  0  0
  -32.9084  -20.2102   22.7953 H   0  0  0  0  0  0
  -31.8358  -20.6258   21.5111 H   0  0  0  0  0  0
  -29.9661  -27.7617   20.7670 H   0  0  0  0  0  0
  -28.9650  -27.0433   22.0203 H   0  0  0  0  0  0
  -28.9908  -15.5490   21.3828 H   0  0  0  0  0  0
  1 25  1  0  0  0
  1 30  2  0  0  0
  1 83  1  0  0  0
  2  3  1  0  0  0
  2 25  1  0  0  0
  2 87  1  0  0  0
  2 88  1  0  0  0
  3  4  1  0  0  0
  3 89  1  0  0  0
  3 90  1  0  0  0
  4  5  1  0  0  0
  4 91  1  0  0  0
  4 92  1  0  0  0
  5  6  1  0  0  0
  5 26  1  0  0  0
  5 93  1  0  0  0
  6 25  1  0  0  0
  6 94  1  0  0  0
  6 95  1  0  0  0
  7  8  2  0  0  0
  7 26  1  0  0  0
  7 29  1  0  0  0
  8  9  1  0  0  0
  8 22  1  0  0  0
  9 10  1  0  0  0
  9 27  2  0  0  0
 10 11  2  0  0  0
 10 15  1  0  0  0
 11 12  1  0  0  0
 11 96  1  0  0  0
 12 13  2  0  0  0
 12 97  1  0  0  0
 13 14  1  0  0  0
 13 31  1  0  0  0
 14 15  2  0  0  0
 14 98  1  0  0  0
 15 99  1  0  0  0
 16 17  2  0  0  0
 16 21  1  0  0  0
 16 31  1  0  0  0
 17 18  1  0  0  0
 17100  1  0  0  0
 18 19  2  0  0  0
 18101  1  0  0  0
 19 20  1  0  0  0
 19 24  1  0  0  0
 20 21  2  0  0  0
 20102  1  0  0  0
 21 23  1  0  0  0
 22 28  1  0  0  0
 22 32  2  0  0  0
 26 27  1  0  0  0
 28103  1  0  0  0
 28104  1  0  0  0
 29105  1  0  0  0
 29106  1  0  0  0
 33 34  1  0  0  0
 33 66  1  0  0  0
 33 70  2  0  0  0
 34 36  1  0  0  0
 34 59  1  0  0  0
 34107  1  0  0  0
 35 44  2  0  0  0
 35 45  1  0  0  0
 35 68  1  0  0  0
 36 56  1  0  0  0
 36108  1  0  0  0
 37 39  1  0  0  0
 37 47  1  0  0  0
 37 66  1  0  0  0
 37109  1  0  0  0
 38 43  2  0  0  0
 38 46  1  0  0  0
 38 47  1  0  0  0
 39 64  1  0  0  0
 39 67  2  0  0  0
 40 52  1  0  0  0
 40 53  2  0  0  0
 40 58  1  0  0  0
 41110  1  0  0  0
 41111  1  0  0  0
 41112  1  0  0  0
 41 48  1  0  0  0
 42 43  1  0  0  0
 42 66  1  0  0  0
 42113  1  0  0  0
 42114  1  0  0  0
 43 44  1  0  0  0
 44115  1  0  0  0
 45 46  2  0  0  0
 45116  1  0  0  0
 46117  1  0  0  0
 47118  1  0  0  0
 47119  1  0  0  0
 48 56  1  0  0  0
 48 65  1  0  0  0
 48120  1  0  0  0
 49 50  1  0  0  0
 49 53  1  0  0  0
 49 64  1  0  0  0
 49121  1  0  0  0
 50 51  1  0  0  0
 50122  1  0  0  0
 50123  1  0  0  0
 51 52  1  0  0  0
 51124  1  0  0  0
 51125  1  0  0  0
 52126  1  0  0  0
 52127  1  0  0  0
 53 54  1  0  0  0
 54 55  2  0  0  0
 54128  1  0  0  0
 55 57  1  0  0  0
 55129  1  0  0  0
 56 69  2  0  0  0
 57 58  2  0  0  0
 57130  1  0  0  0
 58131  1  0  0  0
 59 60  1  0  0  0
 59 61  1  0  0  0
 59 62  1  0  0  0
 60132  1  0  0  0
 60133  1  0  0  0
 60134  1  0  0  0
 61135  1  0  0  0
 61136  1  0  0  0
 61137  1  0  0  0
 62138  1  0  0  0
 62139  1  0  0  0
 62140  1  0  0  0
 63 65  1  0  0  0
 63141  1  0  0  0
 63142  1  0  0  0
 63143  1  0  0  0
 64144  1  0  0  0
 65145  1  0  0  0
 68 82  1  0  0  0
 71 73  2  0  0  0
 71 86  1  0  0  0
 71146  1  0  0  0
 72 85  2  0  0  0
 72 86  1  0  0  0
 72147  1  0  0  0
 73 83  1  0  0  0
 73 85  1  0  0  0
 74148  1  0  0  0
 74149  1  0  0  0
 74150  1  0  0  0
 74 83  1  0  0  0
 75151  1  0  0  0
 75152  1  0  0  0
 75153  1  0  0  0
 75 84  1  0  0  0
 76 84  1  0  0  0
 76154  1  0  0  0
 76155  1  0  0  0
 76156  1  0  0  0
 77 78  1  0  0  0
 77 79  1  0  0  0
 77157  1  0  0  0
 77158  1  0  0  0
 78 80  1  0  0  0
 78159  1  0  0  0
 78160  1  0  0  0
 79 82  1  0  0  0
 79161  1  0  0  0
 79162  1  0  0  0
 80 84  1  0  0  0
 80163  1  0  0  0
 80164  1  0  0  0
 81 84  1  0  0  0
 81 86  1  0  0  0
 81165  1  0  0  0
 81166  1  0  0  0
 82167  1  0  0  0
 82168  1  0  0  0
 83169  1  0  0  0
M  ISO  4   1 100  68 101  82 101  83 100
M  END
> <chiral flag>
0

> <version>
0

> <s_m_source_file>
/data/baiqing/PycharmProjects/Reinvent-master-3.2/result/LINK_invent/BTK/process_docking_weight1_custom_sum_contain_oxygen_bond_distance_aromatic_linkinvent_7_9_3/rearranged_h_0082.sdf

> <i_m_source_file_index>
51

> <r_mmod_Potential_Energy-OPLS-2005>
73.9349060058594

> <r_mmod_Stretch_Energy-OPLS-2005>
40.1118812561035

> <r_mmod_Bend_Energy-OPLS-2005>
120.68383026123

> <r_mmod_Torsional_Energy-OPLS-2005>
211.486892700195

> <r_mmod_Improper_Torsional_Energy-OPLS-2005>
6.35015630722046

> <r_mmod_Van_der_Waal_Energy-OPLS-2005>
136.316360473633

> <r_mmod_Electrostatic_Energy-OPLS-2005>
-247.882553100586

> <r_mmod_Solvation_Energy-OPLS-2005>
-206.553588867188

> <b_mmod_Minimization_Converged-OPLS-2005>
0

> <r_mmod_RMS_Derivative-OPLS-2005>
1.2110151052475

$$$$
52
                    3D
 Structure written by MMmdl.
166174  0  0  1  0            999 V2000
  -31.3921  -14.4711   21.2258 C   0  0  0  0  0  0
  -30.6029  -15.4846   19.0095 C   0  0  0  0  0  0
  -29.1321  -16.1942   17.7564 C   0  0  0  0  0  0
  -26.9365  -15.8995   18.6563 C   0  0  0  0  0  0
  -26.9827  -15.0325   20.5541 C   0  0  2  0  0  0
  -28.6780  -14.9587   21.6172 C   0  0  0  0  0  0
  -24.7869  -14.1162   20.5348 C   0  0  0  0  0  0
  -23.9816  -13.1072   20.9073 C   0  0  0  0  0  0
  -24.7231  -11.8901   20.8840 C   0  0  0  0  0  0
  -24.0665  -10.5132   21.0045 C   0  0  0  0  0  0
  -24.4700   -9.4887   21.9013 C   0  0  0  0  0  0
  -23.7096   -8.2989   22.0721 C   0  0  0  0  0  0
  -22.5041   -8.0851   21.3558 C   0  0  0  0  0  0
  -22.1127   -9.0762   20.4374 C   0  0  0  0  0  0
  -22.8778  -10.2551   20.2673 C   0  0  0  0  0  0
  -21.7222   -6.1112   22.5227 C   0  0  0  0  0  0
  -21.4263   -6.5831   23.8203 C   0  0  0  0  0  0
  -21.3735   -5.6875   24.9082 C   0  0  0  0  0  0
  -21.6045   -4.3141   24.7045 C   0  0  0  0  0  0
  -21.8805   -3.8330   23.4128 C   0  0  0  0  0  0
  -21.9331   -4.7264   22.3264 C   0  0  0  0  0  0
  -22.5575  -13.3939   21.1957 C   0  0  0  0  0  0
  -22.1689   -4.2405   21.0850 F   0  0  0  0  0  0
  -21.5650   -3.4570   25.7545 F   0  0  0  0  0  0
  -30.3225  -15.1267   20.8175 N   0  0  0  0  0  0
  -26.0463  -13.7288   20.5985 N   0  0  0  0  0  0
  -26.0540  -12.2754   20.7283 N   0  0  0  0  0  0
  -21.9570  -12.6532   22.1022 N   0  0  0  0  0  0
  -24.5061  -15.4356   20.2211 N   0  0  0  0  0  0
  -32.2490  -14.1802   20.4115 O   0  0  0  0  0  0
  -21.7223   -6.9447   21.4257 O   0  0  0  0  0  0
  -22.0179  -14.3888   20.6975 O   0  0  0  0  0  0
  -24.8590  -31.5319   22.9999 C   0  0  0  0  0  0
  -26.0088  -32.3280   23.7269 C   0  0  1  0  0  0
  -27.0806  -24.7653   20.1565 C   0  0  0  0  0  0
  -25.5842  -33.7248   24.0846 N   0  0  0  0  0  0
  -23.7427  -30.0540   21.4081 C   0  0  2  0  0  0
  -25.1289  -27.9668   20.1291 C   0  0  0  0  0  0
  -22.8414  -29.2937   22.4347 C   0  0  0  0  0  0
  -18.0422  -28.1477   22.8353 C   0  0  0  0  0  0
  -24.1512  -36.6628   23.2709 C   0  0  0  0  0  0
  -26.3212  -29.5923   21.5380 C   0  0  0  0  0  0
  -26.3196  -27.9548   20.8583 C   0  0  0  0  0  0
  -27.1903  -26.4631   20.8011 C   0  0  0  0  0  0
  -25.9160  -25.4631   19.4222 C   0  0  0  0  0  0
  -25.0725  -26.7401   19.3864 C   0  0  0  0  0  0
  -24.0440  -29.1654   20.1174 C   0  0  0  0  0  0
  -25.4229  -36.2264   24.0196 C   0  0  1  0  0  0
  -20.6112  -28.3832   23.0898 C   0  0  2  0  0  0
  -20.6778  -26.9351   22.5495 C   0  0  0  0  0  0
  -19.5850  -26.6280   21.5227 C   0  0  0  0  0  0
  -18.2013  -26.7979   22.1528 C   0  0  0  0  0  0
  -19.1730  -28.9035   23.2550 C   0  0  0  0  0  0
  -18.9632  -30.1585   23.8669 C   0  0  0  0  0  0
  -17.6617  -30.6639   24.0494 C   0  0  0  0  0  0
  -25.9271  -34.8667   23.4577 C   0  0  0  0  0  0
  -16.5495  -29.9097   23.6393 C   0  0  0  0  0  0
  -16.7395  -28.6514   23.0422 C   0  0  0  0  0  0
  -26.4854  -31.6273   25.0599 C   0  0  0  0  0  0
  -25.3599  -31.3886   26.0975 C   0  0  0  0  0  0
  -27.1098  -30.2592   24.7532 C   0  0  0  0  0  0
  -27.5974  -32.4667   25.7360 C   0  0  0  0  0  0
  -27.5555  -37.1438   24.8463 C   0  0  0  0  0  0
  -21.4948  -29.2614   22.2953 N   0  0  0  0  0  0
  -26.4240  -37.3211   23.9410 N   0  0  0  0  0  0
  -25.0380  -30.4765   22.0352 N   0  0  0  0  0  0
  -23.3990  -28.7042   23.3616 O   0  0  0  0  0  0
  -27.7547  -22.7223   20.0872 O   0  0  0  0  0  0
  -26.6303  -34.8619   22.4468 O   0  0  0  0  0  0
  -23.7281  -31.9269   23.3777 O   0  0  0  0  0  0
  -30.9314  -17.7238   22.5466 C   0  0  0  0  0  0
  -32.1397  -17.6271   21.8236 C   0  0  0  0  0  0
  -31.0080  -18.1382   19.8663 C   0  0  0  0  0  0
  -29.8263  -17.6262   20.5197 C   0  0  0  0  0  0
  -31.1808  -18.6103   18.4055 C   0  0  0  0  0  0
  -27.7729  -13.9834   16.8988 C   0  0  0  0  0  0
  -28.7675  -14.1585   19.4622 C   0  0  0  0  0  0
  -33.4238  -16.9850   22.3364 C   0  0  0  0  0  0
  -28.3652  -14.2549   18.4325 C   0  0  0  0  0  0
  -33.3872  -15.7343   23.2836 C   0  0  0  0  0  0
  -32.0691  -14.9987   23.6182 C   0  0  0  0  0  0
  -27.8535  -19.9321   19.7789 C   0  0  0  0  0  0
  -28.5952  -16.8364   19.8392 C   0  0  2  0  0  0
  -29.7505  -17.7581   21.8777 N   0  0  0  0  0  0
  -32.1815  -18.0215   20.5283 N   0  0  0  0  0  0
  -31.5039  -14.1675   22.5348 N   0  0  0  0  0  0
  -31.5443  -16.0174   18.8916 H   0  0  0  0  0  0
  -30.9918  -14.6390   18.4336 H   0  0  0  0  0  0
  -29.3722  -15.9686   16.7172 H   0  0  0  0  0  0
  -29.2347  -17.2509   17.5835 H   0  0  0  0  0  0
  -26.1571  -15.5012   18.0001 H   0  0  0  0  0  0
  -26.4587  -16.8734   18.7919 H   0  0  0  0  0  0
  -26.5449  -15.7525   21.2530 H   0  0  0  0  0  0
  -28.6758  -14.0252   22.1800 H   0  0  0  0  0  0
  -28.5543  -15.6566   22.4500 H   0  0  0  0  0  0
  -25.3750   -9.6346   22.4753 H   0  0  0  0  0  0
  -24.0639   -7.5511   22.7689 H   0  0  0  0  0  0
  -21.2235   -8.9354   19.8460 H   0  0  0  0  0  0
  -22.5351  -10.9894   19.5522 H   0  0  0  0  0  0
  -21.2271   -7.6328   23.9764 H   0  0  0  0  0  0
  -21.1560   -6.0561   25.8996 H   0  0  0  0  0  0
  -22.0479   -2.7773   23.2551 H   0  0  0  0  0  0
  -22.4239  -11.8681   22.5383 H   0  0  0  0  0  0
  -21.0029  -12.8728   22.3794 H   0  0  0  0  0  0
  -23.5164  -15.6393   20.0741 H   0  0  0  0  0  0
  -25.1126  -16.0508   19.6760 H   0  0  0  0  0  0
  -26.8476  -32.3735   23.0311 H   0  0  0  0  0  0
  -24.9456  -33.7941   24.8626 H   0  0  0  0  0  0
  -23.1883  -30.9355   21.0745 H   0  0  0  0  0  0
  -23.3926  -35.8791   23.3145 H   0  0  0  0  0  0
  -24.3543  -36.8625   22.2167 H   0  0  0  0  0  0
  -23.7124  -37.5599   23.7093 H   0  0  0  0  0  0
  -26.7849  -30.2081   20.7627 H   0  0  0  0  0  0
  -27.0726  -29.5711   22.3148 H   0  0  0  0  0  0
  -28.0545  -26.5459   21.4430 H   0  0  0  0  0  0
  -25.4726  -24.7514   18.7447 H   0  0  0  0  0  0
  -24.2427  -26.7052   18.6966 H   0  0  0  0  0  0
  -24.3491  -29.8330   19.3112 H   0  0  0  0  0  0
  -23.0976  -28.7392   19.7810 H   0  0  0  0  0  0
  -25.1540  -36.0829   25.0694 H   0  0  0  0  0  0
  -21.0110  -28.3599   24.1077 H   0  0  0  0  0  0
  -20.5419  -26.2507   23.3885 H   0  0  0  0  0  0
  -21.6653  -26.6997   22.1508 H   0  0  0  0  0  0
  -19.6983  -25.6137   21.1390 H   0  0  0  0  0  0
  -19.6923  -27.2980   20.6704 H   0  0  0  0  0  0
  -17.4315  -26.6754   21.3881 H   0  0  0  0  0  0
  -18.0319  -26.0164   22.8950 H   0  0  0  0  0  0
  -19.8142  -30.7386   24.1997 H   0  0  0  0  0  0
  -17.5206  -31.6305   24.5112 H   0  0  0  0  0  0
  -15.5506  -30.2953   23.7849 H   0  0  0  0  0  0
  -15.8792  -28.0732   22.7360 H   0  0  0  0  0  0
  -24.5853  -30.7188   25.7201 H   0  0  0  0  0  0
  -24.8693  -32.3143   26.3953 H   0  0  0  0  0  0
  -25.7485  -30.9281   27.0060 H   0  0  0  0  0  0
  -26.3798  -29.5563   24.3496 H   0  0  0  0  0  0
  -27.4918  -29.7900   25.6623 H   0  0  0  0  0  0
  -27.9616  -30.3543   24.0809 H   0  0  0  0  0  0
  -27.2315  -33.4294   26.0929 H   0  0  0  0  0  0
  -28.4132  -32.6699   25.0419 H   0  0  0  0  0  0
  -28.0262  -31.9544   26.5960 H   0  0  0  0  0  0
  -28.2420  -37.9874   24.7646 H   0  0  0  0  0  0
  -28.1228  -36.2392   24.6208 H   0  0  0  0  0  0
  -27.2263  -37.0919   25.8853 H   0  0  0  0  0  0
  -21.0752  -29.7668   21.5267 H   0  0  0  0  0  0
  -25.9959  -38.2204   24.1445 H   0  0  0  0  0  0
  -30.9374  -17.6026   23.6198 H   0  0  0  0  0  0
  -32.0556  -19.2628   18.2857 H   0  0  0  0  0  0
  -30.3393  -19.1883   18.0582 H   0  0  0  0  0  0
  -31.2420  -17.8228   17.6468 H   0  0  0  0  0  0
  -28.0314  -12.9895   16.5129 H   0  0  0  0  0  0
  -28.1147  -14.6396   16.1128 H   0  0  0  0  0  0
  -26.6987  -14.0531   16.7069 H   0  0  0  0  0  0
  -29.7922  -13.4832   19.4392 H   0  0  0  0  0  0
  -29.1501  -13.3867   20.2081 H   0  0  0  0  0  0
  -28.2363  -13.3135   20.1287 H   0  0  0  0  0  0
  -34.0426  -17.7997   22.7140 H   0  0  0  0  0  0
  -33.9403  -16.5861   21.4617 H   0  0  0  0  0  0
  -29.2070  -13.9102   17.6121 H   0  0  0  0  0  0
  -27.3129  -13.6137   18.3607 H   0  0  0  0  0  0
  -33.8443  -16.0343   24.2272 H   0  0  0  0  0  0
  -34.0659  -14.9768   22.8849 H   0  0  0  0  0  0
  -32.3758  -14.2677   24.3737 H   0  0  0  0  0  0
  -31.3398  -15.5611   24.2065 H   0  0  0  0  0  0
  -27.6696  -19.9833   18.6994 H   0  0  0  0  0  0
  -26.8707  -19.7860   20.2302 H   0  0  0  0  0  0
  -32.0507  -13.3179   22.5739 H   0  0  0  0  0  0
  1 25  1  0  0  0
  1 30  2  0  0  0
  1 86  1  0  0  0
  2  3  1  0  0  0
  2 25  1  0  0  0
  2 87  1  0  0  0
  2 88  1  0  0  0
  3  4  1  0  0  0
  3 89  1  0  0  0
  3 90  1  0  0  0
  4  5  1  0  0  0
  4 91  1  0  0  0
  4 92  1  0  0  0
  5  6  1  0  0  0
  5 26  1  0  0  0
  5 93  1  0  0  0
  6 25  1  0  0  0
  6 94  1  0  0  0
  6 95  1  0  0  0
  7  8  2  0  0  0
  7 26  1  0  0  0
  7 29  1  0  0  0
  8  9  1  0  0  0
  8 22  1  0  0  0
  9 10  1  0  0  0
  9 27  2  0  0  0
 10 11  2  0  0  0
 10 15  1  0  0  0
 11 12  1  0  0  0
 11 96  1  0  0  0
 12 13  2  0  0  0
 12 97  1  0  0  0
 13 14  1  0  0  0
 13 31  1  0  0  0
 14 15  2  0  0  0
 14 98  1  0  0  0
 15 99  1  0  0  0
 16 17  2  0  0  0
 16 21  1  0  0  0
 16 31  1  0  0  0
 17 18  1  0  0  0
 17100  1  0  0  0
 18 19  2  0  0  0
 18101  1  0  0  0
 19 20  1  0  0  0
 19 24  1  0  0  0
 20 21  2  0  0  0
 20102  1  0  0  0
 21 23  1  0  0  0
 22 28  1  0  0  0
 22 32  2  0  0  0
 26 27  1  0  0  0
 28103  1  0  0  0
 28104  1  0  0  0
 29105  1  0  0  0
 29106  1  0  0  0
 33 34  1  0  0  0
 33 66  1  0  0  0
 33 70  2  0  0  0
 34 36  1  0  0  0
 34 59  1  0  0  0
 34107  1  0  0  0
 35 44  2  0  0  0
 35 45  1  0  0  0
 35 68  1  0  0  0
 36 56  1  0  0  0
 36108  1  0  0  0
 37 39  1  0  0  0
 37 47  1  0  0  0
 37 66  1  0  0  0
 37109  1  0  0  0
 38 43  2  0  0  0
 38 46  1  0  0  0
 38 47  1  0  0  0
 39 64  1  0  0  0
 39 67  2  0  0  0
 40 52  1  0  0  0
 40 53  2  0  0  0
 40 58  1  0  0  0
 41110  1  0  0  0
 41111  1  0  0  0
 41112  1  0  0  0
 41 48  1  0  0  0
 42 43  1  0  0  0
 42 66  1  0  0  0
 42113  1  0  0  0
 42114  1  0  0  0
 43 44  1  0  0  0
 44115  1  0  0  0
 45 46  2  0  0  0
 45116  1  0  0  0
 46117  1  0  0  0
 47118  1  0  0  0
 47119  1  0  0  0
 48 56  1  0  0  0
 48 65  1  0  0  0
 48120  1  0  0  0
 49 50  1  0  0  0
 49 53  1  0  0  0
 49 64  1  0  0  0
 49121  1  0  0  0
 50 51  1  0  0  0
 50122  1  0  0  0
 50123  1  0  0  0
 51 52  1  0  0  0
 51124  1  0  0  0
 51125  1  0  0  0
 52126  1  0  0  0
 52127  1  0  0  0
 53 54  1  0  0  0
 54 55  2  0  0  0
 54128  1  0  0  0
 55 57  1  0  0  0
 55129  1  0  0  0
 56 69  2  0  0  0
 57 58  2  0  0  0
 57130  1  0  0  0
 58131  1  0  0  0
 59 60  1  0  0  0
 59 61  1  0  0  0
 59 62  1  0  0  0
 60132  1  0  0  0
 60133  1  0  0  0
 60134  1  0  0  0
 61135  1  0  0  0
 61136  1  0  0  0
 61137  1  0  0  0
 62138  1  0  0  0
 62139  1  0  0  0
 62140  1  0  0  0
 63 65  1  0  0  0
 63141  1  0  0  0
 63142  1  0  0  0
 63143  1  0  0  0
 64144  1  0  0  0
 65145  1  0  0  0
 68 82  1  0  0  0
 71 72  2  0  0  0
 71 84  1  0  0  0
 71146  1  0  0  0
 72 78  1  0  0  0
 72 85  1  0  0  0
 73 74  1  0  0  0
 73 75  1  0  0  0
 73 85  2  0  0  0
 74 83  1  0  0  0
 74 84  2  0  0  0
 75147  1  0  0  0
 75148  1  0  0  0
 75149  1  0  0  0
 76 79  1  0  0  0
 76150  1  0  0  0
 76151  1  0  0  0
 76152  1  0  0  0
 77153  1  0  0  0
 77154  1  0  0  0
 77155  1  0  0  0
 77 83  1  0  0  0
 78 80  1  0  0  0
 78156  1  0  0  0
 78157  1  0  0  0
 79 83  1  0  0  0
 79158  1  0  0  0
 79159  1  0  0  0
 80 81  1  0  0  0
 80160  1  0  0  0
 80161  1  0  0  0
 81 86  1  0  0  0
 81162  1  0  0  0
 81163  1  0  0  0
 82 83  1  0  0  0
 82164  1  0  0  0
 82165  1  0  0  0
 86166  1  0  0  0
M  ISO  4   1 100  68 101  82 101  86 100
M  END
> <chiral flag>
0

> <version>
0

> <s_m_source_file>
/data/baiqing/PycharmProjects/Reinvent-master-3.2/result/LINK_invent/BTK/process_docking_weight1_custom_sum_contain_oxygen_bond_distance_aromatic_linkinvent_7_9_3/rearranged_h_0082.sdf

> <i_m_source_file_index>
52

> <r_mmod_Potential_Energy-OPLS-2005>
29312.619140625

> <r_mmod_Stretch_Energy-OPLS-2005>
13976.3427734375

> <r_mmod_Bend_Energy-OPLS-2005>
3139.40161132812

> <r_mmod_Torsional_Energy-OPLS-2005>
436.992401123047

> <r_mmod_Improper_Torsional_Energy-OPLS-2005>
15.1977939605713

> <r_mmod_Van_der_Waal_Energy-OPLS-2005>
2811.25024414062

> <r_mmod_Electrostatic_Energy-OPLS-2005>
-320.760681152344

> <r_mmod_Solvation_Energy-OPLS-2005>
-220.146743774414

> <b_mmod_Minimization_Converged-OPLS-2005>
0

> <r_mmod_RMS_Derivative-OPLS-2005>
24.7760677337646

$$$$
53
                    3D
 Structure written by MMmdl.
163171  0  0  1  0            999 V2000
  -30.7025  -14.5349   20.5361 C   0  0  0  0  0  0
  -30.4184  -12.3458   19.4303 C   0  0  0  0  0  0
  -29.4911  -12.5021   18.2071 C   0  0  0  0  0  0
  -28.0121  -12.3633   18.6221 C   0  0  0  0  0  0
  -27.6544  -13.2147   19.8718 C   0  0  2  0  0  0
  -28.7030  -13.0161   20.9876 C   0  0  0  0  0  0
  -25.2550  -13.8177   20.5694 C   0  0  0  0  0  0
  -24.1819  -13.0445   20.9207 C   0  0  0  0  0  0
  -24.6385  -11.6915   20.8760 C   0  0  0  0  0  0
  -23.9063  -10.4293   21.0416 C   0  0  0  0  0  0
  -24.3622   -9.4205   21.9187 C   0  0  0  0  0  0
  -23.6297   -8.2242   22.0754 C   0  0  0  0  0  0
  -22.4277   -8.0285   21.3551 C   0  0  0  0  0  0
  -21.9917   -9.0255   20.4649 C   0  0  0  0  0  0
  -22.7242  -10.2132   20.3058 C   0  0  0  0  0  0
  -21.6850   -6.0744   22.5290 C   0  0  0  0  0  0
  -21.4016   -6.5646   23.8225 C   0  0  0  0  0  0
  -21.3657   -5.6797   24.9185 C   0  0  0  0  0  0
  -21.6038   -4.3059   24.7233 C   0  0  0  0  0  0
  -21.8816   -3.8154   23.4354 C   0  0  0  0  0  0
  -21.9192   -4.6972   22.3412 C   0  0  0  0  0  0
  -22.7839  -13.5236   21.1861 C   0  0  0  0  0  0
  -22.1669   -4.2164   21.0989 F   0  0  0  0  0  0
  -21.5616   -3.4537   25.7740 F   0  0  0  0  0  0
  -30.0113  -13.3615   20.4194 N   0  0  0  0  0  0
  -26.2993  -12.9363   20.3387 N   0  0  0  0  0  0
  -25.9316  -11.6516   20.5804 N   0  0  0  0  0  0
  -22.0466  -12.8234   22.0410 N   0  0  0  0  0  0
  -25.4251  -15.1892   20.4056 N   0  0  0  0  0  0
  -31.8665  -14.6338   20.1496 O   0  0  0  0  0  0
  -21.6637   -6.8887   21.4251 O   0  0  0  0  0  0
  -22.3534  -14.5543   20.6702 O   0  0  0  0  0  0
  -24.6203  -31.8664   23.2105 C   0  0  0  0  0  0
  -25.9079  -32.4811   23.8401 C   0  0  1  0  0  0
  -27.2172  -27.3767   20.0945 C   0  0  0  0  0  0
  -25.5918  -33.8611   24.2323 N   0  0  0  0  0  0
  -23.4098  -30.4946   21.5529 C   0  0  2  0  0  0
  -24.8524  -28.9658   20.1084 C   0  0  0  0  0  0
  -22.7446  -29.4653   22.4967 C   0  0  0  0  0  0
  -18.0277  -28.1382   22.8485 C   0  0  0  0  0  0
  -24.1493  -36.7307   23.2637 C   0  0  0  0  0  0
  -25.9482  -30.8112   21.3775 C   0  0  0  0  0  0
  -26.0192  -29.4459   20.7163 C   0  0  0  0  0  0
  -27.2028  -28.6591   20.7090 C   0  0  0  0  0  0
  -26.0311  -26.9517   19.4450 C   0  0  0  0  0  0
  -24.8571  -27.7201   19.4675 C   0  0  0  0  0  0
  -23.6193  -29.8390   20.1642 C   0  0  0  0  0  0
  -25.4115  -36.3108   24.0337 C   0  0  1  0  0  0
  -20.5878  -28.3673   23.1296 C   0  0  2  0  0  0
  -20.6775  -26.9404   22.5409 C   0  0  0  0  0  0
  -19.5747  -26.6383   21.5214 C   0  0  0  0  0  0
  -18.1924  -26.7927   22.1625 C   0  0  0  0  0  0
  -19.1533  -28.8844   23.2885 C   0  0  0  0  0  0
  -18.9459  -30.1448   23.8897 C   0  0  0  0  0  0
  -17.6461  -30.6582   24.0561 C   0  0  0  0  0  0
  -25.9044  -34.9470   23.5130 C   0  0  0  0  0  0
  -16.5349  -29.9082   23.6330 C   0  0  0  0  0  0
  -16.7266  -28.6501   23.0344 C   0  0  0  0  0  0
  -26.4482  -31.6598   25.0747 C   0  0  0  0  0  0
  -25.3726  -31.3710   26.1478 C   0  0  0  0  0  0
  -27.0320  -30.3028   24.6165 C   0  0  0  0  0  0
  -27.6059  -32.4316   25.7506 C   0  0  0  0  0  0
  -27.5584  -37.1810   24.8466 C   0  0  0  0  0  0
  -21.4168  -29.3038   22.3704 N   0  0  0  0  0  0
  -26.4298  -37.3793   23.9409 N   0  0  0  0  0  0
  -24.6779  -31.0729   22.1035 N   0  0  0  0  0  0
  -23.4198  -28.8175   23.3004 O   0  0  0  0  0  0
  -28.3472  -26.5584   20.1563 O   0  0  0  0  0  0
  -26.5604  -34.8922   22.4689 O   0  0  0  0  0  0
  -23.5379  -32.1443   23.7463 O   0  0  0  0  0  0
  -28.8214  -20.1165   20.4888 C   0  0  0  0  0  0
  -30.4698  -21.4969   21.5542 C   0  0  0  0  0  0
  -29.3875  -21.4120   20.6551 C   0  0  0  0  0  0
  -29.3210  -19.0241   21.2554 C   0  0  0  0  0  0
  -30.0375  -15.0072   23.8196 C   0  0  0  0  0  0
  -27.2990  -17.9141   22.2314 C   0  0  0  0  0  0
  -28.8263  -22.6388   19.9000 C   0  0  0  0  0  0
  -30.0116  -16.3380   23.0507 C   0  0  0  0  0  0
  -29.1261  -24.0854   20.4382 C   0  0  0  0  0  0
  -28.1686  -25.1503   19.8157 C   0  0  0  0  0  0
  -28.5272  -17.6865   21.3262 C   0  0  2  0  0  0
  -29.2244  -16.3076   21.7137 C   0  0  1  0  0  0
  -30.9226  -20.4238   22.2533 N   0  0  0  0  0  0
  -30.3368  -19.2235   22.1338 N   0  0  0  0  0  0
  -30.0119  -15.6987   20.6183 N   0  0  0  0  0  0
  -31.4612  -12.4445   19.1240 H   0  0  0  0  0  0
  -30.3308  -11.3450   19.8552 H   0  0  0  0  0  0
  -29.7373  -11.7579   17.4483 H   0  0  0  0  0  0
  -29.6530  -13.4765   17.7430 H   0  0  0  0  0  0
  -27.8267  -11.3084   18.8291 H   0  0  0  0  0  0
  -27.3601  -12.6266   17.7884 H   0  0  0  0  0  0
  -27.6892  -14.2595   19.5624 H   0  0  0  0  0  0
  -28.7055  -11.9765   21.3189 H   0  0  0  0  0  0
  -28.4682  -13.5836   21.8813 H   0  0  0  0  0  0
  -25.2767   -9.5672   22.4765 H   0  0  0  0  0  0
  -23.9997   -7.4628   22.7468 H   0  0  0  0  0  0
  -21.0850   -8.8771   19.8956 H   0  0  0  0  0  0
  -22.3706  -10.9672   19.6168 H   0  0  0  0  0  0
  -21.2014   -7.6154   23.9738 H   0  0  0  0  0  0
  -21.1482   -6.0525   25.9090 H   0  0  0  0  0  0
  -22.0598   -2.7618   23.2852 H   0  0  0  0  0  0
  -22.4070  -11.9906   22.4832 H   0  0  0  0  0  0
  -21.1079  -13.1265   22.2592 H   0  0  0  0  0  0
  -24.6579  -15.8440   20.5099 H   0  0  0  0  0  0
  -26.2764  -15.6234   20.0752 H   0  0  0  0  0  0
  -26.7144  -32.5496   23.1151 H   0  0  0  0  0  0
  -25.0070  -33.9774   25.0470 H   0  0  0  0  0  0
  -22.6998  -31.3133   21.4183 H   0  0  0  0  0  0
  -23.3754  -35.9639   23.3309 H   0  0  0  0  0  0
  -24.3578  -36.8915   22.2047 H   0  0  0  0  0  0
  -23.7247  -37.6516   23.6647 H   0  0  0  0  0  0
  -26.0794  -31.5787   20.6139 H   0  0  0  0  0  0
  -26.8297  -30.8529   22.0056 H   0  0  0  0  0  0
  -28.0967  -29.0194   21.1991 H   0  0  0  0  0  0
  -25.9722  -26.0170   18.9085 H   0  0  0  0  0  0
  -23.9666  -27.3523   18.9771 H   0  0  0  0  0  0
  -23.7336  -30.6208   19.4121 H   0  0  0  0  0  0
  -22.7400  -29.2672   19.8626 H   0  0  0  0  0  0
  -25.1290  -36.1973   25.0830 H   0  0  0  0  0  0
  -20.9970  -28.3252   24.1418 H   0  0  0  0  0  0
  -20.5697  -26.2279   23.3602 H   0  0  0  0  0  0
  -21.6639  -26.7450   22.1189 H   0  0  0  0  0  0
  -19.6912  -25.6299   21.1230 H   0  0  0  0  0  0
  -19.6692  -27.3205   20.6754 H   0  0  0  0  0  0
  -17.4199  -26.6672   21.4022 H   0  0  0  0  0  0
  -18.0317  -26.0073   22.9025 H   0  0  0  0  0  0
  -19.7938  -30.7258   24.2273 H   0  0  0  0  0  0
  -17.5016  -31.6265   24.5157 H   0  0  0  0  0  0
  -15.5351  -30.2976   23.7662 H   0  0  0  0  0  0
  -15.8670  -28.0821   22.7054 H   0  0  0  0  0  0
  -24.5904  -30.7058   25.7802 H   0  0  0  0  0  0
  -24.8903  -32.2860   26.4924 H   0  0  0  0  0  0
  -25.8054  -30.8872   27.0242 H   0  0  0  0  0  0
  -26.2884  -29.6781   24.1199 H   0  0  0  0  0  0
  -27.4049  -29.7277   25.4650 H   0  0  0  0  0  0
  -27.8742  -30.4333   23.9366 H   0  0  0  0  0  0
  -27.2693  -33.3615   26.2103 H   0  0  0  0  0  0
  -28.3855  -32.6875   25.0320 H   0  0  0  0  0  0
  -28.0740  -31.8423   26.5402 H   0  0  0  0  0  0
  -28.2606  -38.0103   24.7514 H   0  0  0  0  0  0
  -28.1079  -36.2634   24.6294 H   0  0  0  0  0  0
  -27.2297  -37.1463   25.8868 H   0  0  0  0  0  0
  -20.9339  -29.8770   21.6931 H   0  0  0  0  0  0
  -26.0188  -38.2876   24.1397 H   0  0  0  0  0  0
  -27.9715  -19.9731   19.8375 H   0  0  0  0  0  0
  -30.9755  -22.4335   21.7345 H   0  0  0  0  0  0
  -30.5660  -14.2210   23.2836 H   0  0  0  0  0  0
  -29.0281  -14.6536   24.0311 H   0  0  0  0  0  0
  -30.5428  -15.1341   24.7777 H   0  0  0  0  0  0
  -26.6871  -18.7359   21.8590 H   0  0  0  0  0  0
  -27.5957  -18.1677   23.2489 H   0  0  0  0  0  0
  -26.6544  -17.0366   22.2831 H   0  0  0  0  0  0
  -27.7439  -22.5051   19.8652 H   0  0  0  0  0  0
  -29.1597  -22.5742   18.8633 H   0  0  0  0  0  0
  -31.0329  -16.6818   22.8810 H   0  0  0  0  0  0
  -29.5646  -17.0754   23.7172 H   0  0  0  0  0  0
  -30.1666  -24.3486   20.2467 H   0  0  0  0  0  0
  -28.9920  -24.1048   21.5202 H   0  0  0  0  0  0
  -27.1818  -24.8136   20.1342 H   0  0  0  0  0  0
  -28.2017  -25.0659   18.7284 H   0  0  0  0  0  0
  -28.1294  -17.5395   20.3206 H   0  0  0  0  0  0
  -28.3793  -15.6420   21.8593 H   0  0  0  0  0  0
  -30.5387  -16.4135   20.1385 H   0  0  0  0  0  0
  1 25  1  0  0  0
  1 30  2  0  0  0
  1 85  1  0  0  0
  2  3  1  0  0  0
  2 25  1  0  0  0
  2 86  1  0  0  0
  2 87  1  0  0  0
  3  4  1  0  0  0
  3 88  1  0  0  0
  3 89  1  0  0  0
  4  5  1  0  0  0
  4 90  1  0  0  0
  4 91  1  0  0  0
  5  6  1  0  0  0
  5 26  1  0  0  0
  5 92  1  0  0  0
  6 25  1  0  0  0
  6 93  1  0  0  0
  6 94  1  0  0  0
  7  8  2  0  0  0
  7 26  1  0  0  0
  7 29  1  0  0  0
  8  9  1  0  0  0
  8 22  1  0  0  0
  9 10  1  0  0  0
  9 27  2  0  0  0
 10 11  2  0  0  0
 10 15  1  0  0  0
 11 12  1  0  0  0
 11 95  1  0  0  0
 12 13  2  0  0  0
 12 96  1  0  0  0
 13 14  1  0  0  0
 13 31  1  0  0  0
 14 15  2  0  0  0
 14 97  1  0  0  0
 15 98  1  0  0  0
 16 17  2  0  0  0
 16 21  1  0  0  0
 16 31  1  0  0  0
 17 18  1  0  0  0
 17 99  1  0  0  0
 18 19  2  0  0  0
 18100  1  0  0  0
 19 20  1  0  0  0
 19 24  1  0  0  0
 20 21  2  0  0  0
 20101  1  0  0  0
 21 23  1  0  0  0
 22 28  1  0  0  0
 22 32  2  0  0  0
 26 27  1  0  0  0
 28102  1  0  0  0
 28103  1  0  0  0
 29104  1  0  0  0
 29105  1  0  0  0
 33 34  1  0  0  0
 33 66  1  0  0  0
 33 70  2  0  0  0
 34 36  1  0  0  0
 34 59  1  0  0  0
 34106  1  0  0  0
 35 44  2  0  0  0
 35 45  1  0  0  0
 35 68  1  0  0  0
 36 56  1  0  0  0
 36107  1  0  0  0
 37 39  1  0  0  0
 37 47  1  0  0  0
 37 66  1  0  0  0
 37108  1  0  0  0
 38 43  2  0  0  0
 38 46  1  0  0  0
 38 47  1  0  0  0
 39 64  1  0  0  0
 39 67  2  0  0  0
 40 52  1  0  0  0
 40 53  2  0  0  0
 40 58  1  0  0  0
 41109  1  0  0  0
 41110  1  0  0  0
 41111  1  0  0  0
 41 48  1  0  0  0
 42 43  1  0  0  0
 42 66  1  0  0  0
 42112  1  0  0  0
 42113  1  0  0  0
 43 44  1  0  0  0
 44114  1  0  0  0
 45 46  2  0  0  0
 45115  1  0  0  0
 46116  1  0  0  0
 47117  1  0  0  0
 47118  1  0  0  0
 48 56  1  0  0  0
 48 65  1  0  0  0
 48119  1  0  0  0
 49 50  1  0  0  0
 49 53  1  0  0  0
 49 64  1  0  0  0
 49120  1  0  0  0
 50 51  1  0  0  0
 50121  1  0  0  0
 50122  1  0  0  0
 51 52  1  0  0  0
 51123  1  0  0  0
 51124  1  0  0  0
 52125  1  0  0  0
 52126  1  0  0  0
 53 54  1  0  0  0
 54 55  2  0  0  0
 54127  1  0  0  0
 55 57  1  0  0  0
 55128  1  0  0  0
 56 69  2  0  0  0
 57 58  2  0  0  0
 57129  1  0  0  0
 58130  1  0  0  0
 59 60  1  0  0  0
 59 61  1  0  0  0
 59 62  1  0  0  0
 60131  1  0  0  0
 60132  1  0  0  0
 60133  1  0  0  0
 61134  1  0  0  0
 61135  1  0  0  0
 61136  1  0  0  0
 62137  1  0  0  0
 62138  1  0  0  0
 62139  1  0  0  0
 63 65  1  0  0  0
 63140  1  0  0  0
 63141  1  0  0  0
 63142  1  0  0  0
 64143  1  0  0  0
 65144  1  0  0  0
 68 80  1  0  0  0
 71 73  2  0  0  0
 71 74  1  0  0  0
 71145  1  0  0  0
 72 73  1  0  0  0
 72 83  2  0  0  0
 72146  1  0  0  0
 73 77  1  0  0  0
 74 81  1  0  0  0
 74 84  2  0  0  0
 75 78  1  0  0  0
 75147  1  0  0  0
 75148  1  0  0  0
 75149  1  0  0  0
 76150  1  0  0  0
 76151  1  0  0  0
 76152  1  0  0  0
 76 81  1  0  0  0
 77 79  1  0  0  0
 77153  1  0  0  0
 77154  1  0  0  0
 78155  1  0  0  0
 78156  1  0  0  0
 78 82  1  0  0  0
 79 80  1  0  0  0
 79157  1  0  0  0
 79158  1  0  0  0
 80159  1  0  0  0
 80160  1  0  0  0
 81 82  1  0  0  0
 81161  1  0  0  0
 82 85  1  0  0  0
 82162  1  0  0  0
 83 84  1  0  0  0
 85163  1  0  0  0
M  ISO  4   1 100  68 101  80 101  85 100
M  END
> <chiral flag>
0

> <version>
0

> <s_m_source_file>
/data/baiqing/PycharmProjects/Reinvent-master-3.2/result/LINK_invent/BTK/process_docking_weight1_custom_sum_contain_oxygen_bond_distance_aromatic_linkinvent_7_9_3/rearranged_h_0082.sdf

> <i_m_source_file_index>
53

> <r_mmod_Potential_Energy-OPLS-2005>
139.355743408203

> <r_mmod_Stretch_Energy-OPLS-2005>
57.0923957824707

> <r_mmod_Bend_Energy-OPLS-2005>
157.36572265625

> <r_mmod_Torsional_Energy-OPLS-2005>
268.183685302734

> <r_mmod_Improper_Torsional_Energy-OPLS-2005>
19.3963413238525

> <r_mmod_Van_der_Waal_Energy-OPLS-2005>
151.709747314453

> <r_mmod_Electrostatic_Energy-OPLS-2005>
-322.055541992188

> <r_mmod_Solvation_Energy-OPLS-2005>
-220.281997680664

> <b_mmod_Minimization_Converged-OPLS-2005>
0

> <r_mmod_RMS_Derivative-OPLS-2005>
0.975108325481415

$$$$
54
                    3D
 Structure written by MMmdl.
162170  0  0  1  0            999 V2000
  -30.5278  -15.1219   20.3666 C   0  0  0  0  0  0
  -30.4269  -12.6974   19.5374 C   0  0  0  0  0  0
  -29.5332  -12.5514   18.2843 C   0  0  0  0  0  0
  -28.0733  -12.3040   18.6994 C   0  0  0  0  0  0
  -27.6146  -13.2729   19.8188 C   0  0  2  0  0  0
  -28.6443  -13.4177   20.9582 C   0  0  0  0  0  0
  -25.2419  -13.8260   20.5710 C   0  0  0  0  0  0
  -24.1757  -13.0453   20.9218 C   0  0  0  0  0  0
  -24.6398  -11.6948   20.8736 C   0  0  0  0  0  0
  -23.9087  -10.4309   21.0402 C   0  0  0  0  0  0
  -24.3630   -9.4228   21.9181 C   0  0  0  0  0  0
  -23.6302   -8.2265   22.0760 C   0  0  0  0  0  0
  -22.4287   -8.0295   21.3545 C   0  0  0  0  0  0
  -21.9918   -9.0278   20.4653 C   0  0  0  0  0  0
  -22.7252  -10.2152   20.3057 C   0  0  0  0  0  0
  -21.6857   -6.0743   22.5279 C   0  0  0  0  0  0
  -21.4020   -6.5641   23.8216 C   0  0  0  0  0  0
  -21.3662   -5.6794   24.9179 C   0  0  0  0  0  0
  -21.6047   -4.3060   24.7231 C   0  0  0  0  0  0
  -21.8816   -3.8148   23.4350 C   0  0  0  0  0  0
  -21.9192   -4.6965   22.3403 C   0  0  0  0  0  0
  -22.7776  -13.5213   21.1878 C   0  0  0  0  0  0
  -22.1656   -4.2147   21.0982 F   0  0  0  0  0  0
  -21.5631   -3.4541   25.7742 F   0  0  0  0  0  0
  -29.9097  -13.8511   20.3531 N   0  0  0  0  0  0
  -26.2829  -12.9528   20.3165 N   0  0  0  0  0  0
  -25.9336  -11.6638   20.5688 N   0  0  0  0  0  0
  -22.0425  -12.8213   22.0446 N   0  0  0  0  0  0
  -25.4110  -15.1992   20.4198 N   0  0  0  0  0  0
  -31.7431  -15.0613   20.1310 O   0  0  0  0  0  0
  -21.6649   -6.8889   21.4238 O   0  0  0  0  0  0
  -22.3470  -14.5526   20.6729 O   0  0  0  0  0  0
  -24.6534  -31.8351   23.1776 C   0  0  0  0  0  0
  -25.9270  -32.4647   23.8199 C   0  0  1  0  0  0
  -27.2114  -27.0216   20.1686 C   0  0  0  0  0  0
  -25.5986  -33.8449   24.2126 N   0  0  0  0  0  0
  -23.4624  -30.4482   21.5269 C   0  0  2  0  0  0
  -24.9132  -28.8546   20.1098 C   0  0  0  0  0  0
  -22.7630  -29.4487   22.4830 C   0  0  0  0  0  0
  -18.0343  -28.1404   22.8451 C   0  0  0  0  0  0
  -24.1494  -36.7227   23.2637 C   0  0  0  0  0  0
  -26.0247  -30.6708   21.3950 C   0  0  0  0  0  0
  -26.0946  -29.2699   20.7385 C   0  0  0  0  0  0
  -27.2421  -28.3712   20.7446 C   0  0  0  0  0  0
  -26.0035  -26.7374   19.4934 C   0  0  0  0  0  0
  -24.8881  -27.6076   19.4686 C   0  0  0  0  0  0
  -23.6957  -29.7707   20.1493 C   0  0  0  0  0  0
  -25.4137  -36.2993   24.0296 C   0  0  1  0  0  0
  -20.5952  -28.3732   23.1215 C   0  0  2  0  0  0
  -20.6832  -26.9431   22.5398 C   0  0  0  0  0  0
  -19.5815  -26.6368   21.5214 C   0  0  0  0  0  0
  -18.1979  -26.7943   22.1598 C   0  0  0  0  0  0
  -19.1595  -28.8888   23.2823 C   0  0  0  0  0  0
  -18.9502  -30.1482   23.8843 C   0  0  0  0  0  0
  -17.6499  -30.6587   24.0552 C   0  0  0  0  0  0
  -25.9100  -34.9381   23.5025 C   0  0  0  0  0  0
  -16.5390  -29.9084   23.6319 C   0  0  0  0  0  0
  -16.7324  -28.6505   23.0344 C   0  0  0  0  0  0
  -26.4550  -31.6542   25.0683 C   0  0  0  0  0  0
  -25.3679  -31.3784   26.1342 C   0  0  0  0  0  0
  -27.0428  -30.2916   24.6342 C   0  0  0  0  0  0
  -27.6066  -32.4322   25.7479 C   0  0  0  0  0  0
  -27.5577  -37.1774   24.8465 C   0  0  0  0  0  0
  -21.4316  -29.3038   22.3573 N   0  0  0  0  0  0
  -26.4292  -37.3722   23.9397 N   0  0  0  0  0  0
  -24.7335  -31.0104   22.0873 N   0  0  0  0  0  0
  -23.4229  -28.8072   23.3045 O   0  0  0  0  0  0
  -28.2302  -25.9644   20.2469 O   0  0  0  0  0  0
  -26.5684  -34.8896   22.4603 O   0  0  0  0  0  0
  -23.5626  -32.1294   23.6931 O   0  0  0  0  0  0
  -29.9694  -19.1515   21.2327 C   0  0  0  0  0  0
  -30.4054  -17.7410   21.3288 C   0  0  0  0  0  0
  -29.0424  -19.6942   20.2704 C   0  0  0  0  0  0
  -29.8899  -16.6571   20.4896 C   0  0  0  0  0  0
  -28.6260  -18.5536   19.4570 C   0  0  0  0  0  0
  -26.1767  -18.7966   18.8064 C   0  0  0  0  0  0
  -30.9971  -17.6894   23.8039 C   0  0  0  0  0  0
  -32.7832  -18.2147   22.0728 C   0  0  0  0  0  0
  -28.3560  -21.2739   20.1807 C   0  0  0  0  0  0
  -27.6315  -18.7707   18.3241 C   0  0  0  0  0  0
  -28.8825  -22.9298   20.3582 C   0  0  0  0  0  0
  -27.9337  -24.3884   20.1082 C   0  0  0  0  0  0
  -31.4892  -17.4378   22.3705 C   0  0  0  0  0  0
  -29.0040  -17.1964   19.5681 N   0  0  0  0  0  0
  -31.4643  -12.8331   19.2295 H   0  0  0  0  0  0
  -30.4199  -11.7794   20.1256 H   0  0  0  0  0  0
  -29.8913  -11.7350   17.6557 H   0  0  0  0  0  0
  -29.5988  -13.4601   17.6828 H   0  0  0  0  0  0
  -28.0053  -11.2747   19.0558 H   0  0  0  0  0  0
  -27.4114  -12.3755   17.8358 H   0  0  0  0  0  0
  -27.5432  -14.2480   19.3349 H   0  0  0  0  0  0
  -28.7643  -12.4854   21.5117 H   0  0  0  0  0  0
  -28.3083  -14.1641   21.6804 H   0  0  0  0  0  0
  -25.2774   -9.5707   22.4753 H   0  0  0  0  0  0
  -24.0004   -7.4659   22.7496 H   0  0  0  0  0  0
  -21.0841   -8.8826   19.8963 H   0  0  0  0  0  0
  -22.3723  -10.9705   19.6168 H   0  0  0  0  0  0
  -21.2017   -7.6149   23.9721 H   0  0  0  0  0  0
  -21.1473   -6.0522   25.9082 H   0  0  0  0  0  0
  -22.0581   -2.7606   23.2857 H   0  0  0  0  0  0
  -22.4025  -11.9871   22.4834 H   0  0  0  0  0  0
  -21.1052  -13.1260   22.2672 H   0  0  0  0  0  0
  -24.6486  -15.8543   20.5532 H   0  0  0  0  0  0
  -26.2743  -15.6447   20.1295 H   0  0  0  0  0  0
  -26.7342  -32.5217   23.0919 H   0  0  0  0  0  0
  -25.0113  -33.9552   25.0260 H   0  0  0  0  0  0
  -22.7676  -31.2753   21.3646 H   0  0  0  0  0  0
  -23.3765  -35.9551   23.3284 H   0  0  0  0  0  0
  -24.3571  -36.8887   22.2056 H   0  0  0  0  0  0
  -23.7251  -37.6411   23.6698 H   0  0  0  0  0  0
  -26.1920  -31.4196   20.6201 H   0  0  0  0  0  0
  -26.8894  -30.7251   22.0442 H   0  0  0  0  0  0
  -28.1389  -28.6848   21.2589 H   0  0  0  0  0  0
  -25.8867  -25.7854   18.9972 H   0  0  0  0  0  0
  -23.9902  -27.2863   18.9604 H   0  0  0  0  0  0
  -23.8440  -30.5399   19.3925 H   0  0  0  0  0  0
  -22.8079  -29.2198   19.8345 H   0  0  0  0  0  0
  -25.1329  -36.1801   25.0787 H   0  0  0  0  0  0
  -21.0007  -28.3324   24.1354 H   0  0  0  0  0  0
  -20.5745  -26.2352   23.3625 H   0  0  0  0  0  0
  -21.6693  -26.7428   22.1200 H   0  0  0  0  0  0
  -19.6997  -25.6259   21.1287 H   0  0  0  0  0  0
  -19.6782  -27.3143   20.6722 H   0  0  0  0  0  0
  -17.4269  -26.6687   21.3983 H   0  0  0  0  0  0
  -18.0352  -26.0094   22.9003 H   0  0  0  0  0  0
  -19.7976  -30.7311   24.2191 H   0  0  0  0  0  0
  -17.5055  -31.6263   24.5162 H   0  0  0  0  0  0
  -15.5387  -30.2979   23.7657 H   0  0  0  0  0  0
  -15.8736  -28.0812   22.7068 H   0  0  0  0  0  0
  -24.5871  -30.7135   25.7632 H   0  0  0  0  0  0
  -24.8852  -32.2984   26.4646 H   0  0  0  0  0  0
  -25.7903  -30.9018   27.0194 H   0  0  0  0  0  0
  -26.3067  -29.6613   24.1338 H   0  0  0  0  0  0
  -27.3987  -29.7257   25.4957 H   0  0  0  0  0  0
  -27.8994  -30.4119   23.9711 H   0  0  0  0  0  0
  -27.2660  -33.3658   26.1974 H   0  0  0  0  0  0
  -28.3920  -32.6835   25.0334 H   0  0  0  0  0  0
  -28.0680  -31.8496   26.5465 H   0  0  0  0  0  0
  -28.2584  -38.0081   24.7504 H   0  0  0  0  0  0
  -28.1087  -36.2604   24.6302 H   0  0  0  0  0  0
  -27.2287  -37.1427   25.8869 H   0  0  0  0  0  0
  -20.9551  -29.8712   21.6699 H   0  0  0  0  0  0
  -26.0147  -38.2782   24.1401 H   0  0  0  0  0  0
  -30.3783  -19.8564   21.9415 H   0  0  0  0  0  0
  -26.0081  -19.5945   19.5294 H   0  0  0  0  0  0
  -25.9061  -17.8556   19.2825 H   0  0  0  0  0  0
  -25.4975  -18.9530   17.9693 H   0  0  0  0  0  0
  -30.1207  -17.0811   24.0291 H   0  0  0  0  0  0
  -30.7311  -18.7326   23.9762 H   0  0  0  0  0  0
  -31.7694  -17.4255   24.5288 H   0  0  0  0  0  0
  -33.1512  -17.9949   21.0704 H   0  0  0  0  0  0
  -33.5745  -17.9473   22.7742 H   0  0  0  0  0  0
  -32.6430  -19.2937   22.1396 H   0  0  0  0  0  0
  -27.5154  -21.1942   20.8707 H   0  0  0  0  0  0
  -27.8747  -21.3004   19.2072 H   0  0  0  0  0  0
  -27.7389  -17.9685   17.5922 H   0  0  0  0  0  0
  -27.8781  -19.6788   17.7752 H   0  0  0  0  0  0
  -29.7574  -23.0362   19.7162 H   0  0  0  0  0  0
  -29.2801  -23.0065   21.3702 H   0  0  0  0  0  0
  -27.0458  -24.2413   20.7229 H   0  0  0  0  0  0
  -27.5737  -24.2879   19.0846 H   0  0  0  0  0  0
  -31.7551  -16.3831   22.3366 H   0  0  0  0  0  0
  1 25  1  0  0  0
  1 30  2  0  0  0
  1 74  1  0  0  0
  2  3  1  0  0  0
  2 25  1  0  0  0
  2 85  1  0  0  0
  2 86  1  0  0  0
  3  4  1  0  0  0
  3 87  1  0  0  0
  3 88  1  0  0  0
  4  5  1  0  0  0
  4 89  1  0  0  0
  4 90  1  0  0  0
  5  6  1  0  0  0
  5 26  1  0  0  0
  5 91  1  0  0  0
  6 25  1  0  0  0
  6 92  1  0  0  0
  6 93  1  0  0  0
  7  8  2  0  0  0
  7 26  1  0  0  0
  7 29  1  0  0  0
  8  9  1  0  0  0
  8 22  1  0  0  0
  9 10  1  0  0  0
  9 27  2  0  0  0
 10 11  2  0  0  0
 10 15  1  0  0  0
 11 12  1  0  0  0
 11 94  1  0  0  0
 12 13  2  0  0  0
 12 95  1  0  0  0
 13 14  1  0  0  0
 13 31  1  0  0  0
 14 15  2  0  0  0
 14 96  1  0  0  0
 15 97  1  0  0  0
 16 17  2  0  0  0
 16 21  1  0  0  0
 16 31  1  0  0  0
 17 18  1  0  0  0
 17 98  1  0  0  0
 18 19  2  0  0  0
 18 99  1  0  0  0
 19 20  1  0  0  0
 19 24  1  0  0  0
 20 21  2  0  0  0
 20100  1  0  0  0
 21 23  1  0  0  0
 22 28  1  0  0  0
 22 32  2  0  0  0
 26 27  1  0  0  0
 28101  1  0  0  0
 28102  1  0  0  0
 29103  1  0  0  0
 29104  1  0  0  0
 33 34  1  0  0  0
 33 66  1  0  0  0
 33 70  2  0  0  0
 34 36  1  0  0  0
 34 59  1  0  0  0
 34105  1  0  0  0
 35 44  2  0  0  0
 35 45  1  0  0  0
 35 68  1  0  0  0
 36 56  1  0  0  0
 36106  1  0  0  0
 37 39  1  0  0  0
 37 47  1  0  0  0
 37 66  1  0  0  0
 37107  1  0  0  0
 38 43  2  0  0  0
 38 46  1  0  0  0
 38 47  1  0  0  0
 39 64  1  0  0  0
 39 67  2  0  0  0
 40 52  1  0  0  0
 40 53  2  0  0  0
 40 58  1  0  0  0
 41108  1  0  0  0
 41109  1  0  0  0
 41110  1  0  0  0
 41 48  1  0  0  0
 42 43  1  0  0  0
 42 66  1  0  0  0
 42111  1  0  0  0
 42112  1  0  0  0
 43 44  1  0  0  0
 44113  1  0  0  0
 45 46  2  0  0  0
 45114  1  0  0  0
 46115  1  0  0  0
 47116  1  0  0  0
 47117  1  0  0  0
 48 56  1  0  0  0
 48 65  1  0  0  0
 48118  1  0  0  0
 49 50  1  0  0  0
 49 53  1  0  0  0
 49 64  1  0  0  0
 49119  1  0  0  0
 50 51  1  0  0  0
 50120  1  0  0  0
 50121  1  0  0  0
 51 52  1  0  0  0
 51122  1  0  0  0
 51123  1  0  0  0
 52124  1  0  0  0
 52125  1  0  0  0
 53 54  1  0  0  0
 54 55  2  0  0  0
 54126  1  0  0  0
 55 57  1  0  0  0
 55127  1  0  0  0
 56 69  2  0  0  0
 57 58  2  0  0  0
 57128  1  0  0  0
 58129  1  0  0  0
 59 60  1  0  0  0
 59 61  1  0  0  0
 59 62  1  0  0  0
 60130  1  0  0  0
 60131  1  0  0  0
 60132  1  0  0  0
 61133  1  0  0  0
 61134  1  0  0  0
 61135  1  0  0  0
 62136  1  0  0  0
 62137  1  0  0  0
 62138  1  0  0  0
 63 65  1  0  0  0
 63139  1  0  0  0
 63140  1  0  0  0
 63141  1  0  0  0
 64142  1  0  0  0
 65143  1  0  0  0
 68 82  1  0  0  0
 71 72  2  0  0  0
 71 73  1  0  0  0
 71144  1  0  0  0
 72 74  1  0  0  0
 72 83  1  0  0  0
 73 75  2  0  0  0
 73 79  1  0  0  0
 74 84  2  0  0  0
 75 80  1  0  0  0
 75 84  1  0  0  0
 76 80  1  0  0  0
 76145  1  0  0  0
 76146  1  0  0  0
 76147  1  0  0  0
 77148  1  0  0  0
 77149  1  0  0  0
 77150  1  0  0  0
 77 83  1  0  0  0
 78 83  1  0  0  0
 78151  1  0  0  0
 78152  1  0  0  0
 78153  1  0  0  0
 79 81  1  0  0  0
 79154  1  0  0  0
 79155  1  0  0  0
 80156  1  0  0  0
 80157  1  0  0  0
 81 82  1  0  0  0
 81158  1  0  0  0
 81159  1  0  0  0
 82160  1  0  0  0
 82161  1  0  0  0
 83162  1  0  0  0
M  ISO  4   1 100  68 101  74 100  82 101
M  END
> <chiral flag>
0

> <version>
0

> <s_m_source_file>
/data/baiqing/PycharmProjects/Reinvent-master-3.2/result/LINK_invent/BTK/process_docking_weight1_custom_sum_contain_oxygen_bond_distance_aromatic_linkinvent_7_9_3/rearranged_h_0082.sdf

> <i_m_source_file_index>
54

> <r_mmod_Potential_Energy-OPLS-2005>
896.639770507812

> <r_mmod_Stretch_Energy-OPLS-2005>
413.924377441406

> <r_mmod_Bend_Energy-OPLS-2005>
382.095001220703

> <r_mmod_Torsional_Energy-OPLS-2005>
207.892242431641

> <r_mmod_Improper_Torsional_Energy-OPLS-2005>
5.72744035720825

> <r_mmod_Van_der_Waal_Energy-OPLS-2005>
130.317428588867

> <r_mmod_Electrostatic_Energy-OPLS-2005>
-375.790130615234

> <r_mmod_Solvation_Energy-OPLS-2005>
-189.327575683594

> <b_mmod_Minimization_Converged-OPLS-2005>
0

> <r_mmod_RMS_Derivative-OPLS-2005>
2.12311434745789

$$$$
55
                    3D
 Structure written by MMmdl.
160168  0  0  1  0            999 V2000
  -30.6977  -14.4959   20.5450 C   0  0  0  0  0  0
  -30.4221  -12.3093   19.4413 C   0  0  0  0  0  0
  -29.5001  -12.4952   18.2169 C   0  0  0  0  0  0
  -28.0191  -12.3610   18.6242 C   0  0  0  0  0  0
  -27.6606  -13.2118   19.8727 C   0  0  2  0  0  0
  -28.7018  -13.0149   21.0000 C   0  0  0  0  0  0
  -25.2572  -13.8171   20.5679 C   0  0  0  0  0  0
  -24.1830  -13.0438   20.9174 C   0  0  0  0  0  0
  -24.6397  -11.6906   20.8724 C   0  0  0  0  0  0
  -23.9063  -10.4287   21.0390 C   0  0  0  0  0  0
  -24.3611   -9.4202   21.9173 C   0  0  0  0  0  0
  -23.6286   -8.2240   22.0750 C   0  0  0  0  0  0
  -22.4272   -8.0269   21.3535 C   0  0  0  0  0  0
  -21.9901   -9.0244   20.4643 C   0  0  0  0  0  0
  -22.7229  -10.2123   20.3049 C   0  0  0  0  0  0
  -21.6851   -6.0723   22.5275 C   0  0  0  0  0  0
  -21.4019   -6.5632   23.8202 C   0  0  0  0  0  0
  -21.3660   -5.6784   24.9170 C   0  0  0  0  0  0
  -21.6045   -4.3049   24.7221 C   0  0  0  0  0  0
  -21.8822   -3.8138   23.4343 C   0  0  0  0  0  0
  -21.9195   -4.6955   22.3398 C   0  0  0  0  0  0
  -22.7848  -13.5224   21.1827 C   0  0  0  0  0  0
  -22.1660   -4.2135   21.0973 F   0  0  0  0  0  0
  -21.5627   -3.4534   25.7736 F   0  0  0  0  0  0
  -30.0336  -13.3111   20.4481 N   0  0  0  0  0  0
  -26.3016  -12.9353   20.3350 N   0  0  0  0  0  0
  -25.9325  -11.6508   20.5751 N   0  0  0  0  0  0
  -22.0499  -12.8220   22.0397 N   0  0  0  0  0  0
  -25.4303  -15.1886   20.4083 N   0  0  0  0  0  0
  -31.8313  -14.6613   20.0870 O   0  0  0  0  0  0
  -21.6638   -6.8867   21.4235 O   0  0  0  0  0  0
  -22.3526  -14.5519   20.6663 O   0  0  0  0  0  0
  -24.6183  -31.8673   23.2104 C   0  0  0  0  0  0
  -25.9071  -32.4819   23.8402 C   0  0  1  0  0  0
  -27.2208  -27.3965   20.0963 C   0  0  0  0  0  0
  -25.5930  -33.8615   24.2333 N   0  0  0  0  0  0
  -23.4072  -30.4969   21.5508 C   0  0  2  0  0  0
  -24.8504  -28.9700   20.1081 C   0  0  0  0  0  0
  -22.7425  -29.4675   22.4951 C   0  0  0  0  0  0
  -18.0280  -28.1394   22.8505 C   0  0  0  0  0  0
  -24.1489  -36.7290   23.2633 C   0  0  0  0  0  0
  -25.9433  -30.8196   21.3743 C   0  0  0  0  0  0
  -26.0153  -29.4553   20.7151 C   0  0  0  0  0  0
  -27.2007  -28.6761   20.7109 C   0  0  0  0  0  0
  -26.0355  -26.9588   19.4518 C   0  0  0  0  0  0
  -24.8577  -27.7229   19.4709 C   0  0  0  0  0  0
  -23.6159  -29.8399   20.1618 C   0  0  0  0  0  0
  -25.4113  -36.3108   24.0341 C   0  0  1  0  0  0
  -20.5886  -28.3678   23.1303 C   0  0  2  0  0  0
  -20.6784  -26.9411   22.5414 C   0  0  0  0  0  0
  -19.5761  -26.6402   21.5212 C   0  0  0  0  0  0
  -18.1933  -26.7949   22.1620 C   0  0  0  0  0  0
  -19.1536  -28.8850   23.2909 C   0  0  0  0  0  0
  -18.9462  -30.1462   23.8915 C   0  0  0  0  0  0
  -17.6466  -30.6597   24.0575 C   0  0  0  0  0  0
  -25.9046  -34.9475   23.5128 C   0  0  0  0  0  0
  -16.5354  -29.9103   23.6341 C   0  0  0  0  0  0
  -16.7271  -28.6520   23.0362 C   0  0  0  0  0  0
  -26.4488  -31.6611   25.0738 C   0  0  0  0  0  0
  -25.3745  -31.3743   26.1480 C   0  0  0  0  0  0
  -27.0298  -30.3038   24.6145 C   0  0  0  0  0  0
  -27.6069  -32.4332   25.7494 C   0  0  0  0  0  0
  -27.5581  -37.1806   24.8466 C   0  0  0  0  0  0
  -21.4149  -29.3044   22.3690 N   0  0  0  0  0  0
  -26.4295  -37.3797   23.9412 N   0  0  0  0  0  0
  -24.6744  -31.0767   22.1016 N   0  0  0  0  0  0
  -23.4193  -28.8207   23.2989 O   0  0  0  0  0  0
  -28.3622  -26.5979   20.1541 O   0  0  0  0  0  0
  -26.5588  -34.8928   22.4677 O   0  0  0  0  0  0
  -23.5373  -32.1435   23.7491 O   0  0  0  0  0  0
  -28.9181  -20.4176   20.8467 C   0  0  0  0  0  0
  -29.8828  -19.4595   21.0912 C   0  0  0  0  0  0
  -30.8561  -21.3040   20.2478 C   0  0  0  0  0  0
  -31.9078  -22.2201   19.7113 C   0  0  0  0  0  0
  -28.3988  -17.7558   22.2120 C   0  0  0  0  0  0
  -29.2026  -24.1514   20.3500 C   0  0  0  0  0  0
  -28.8499  -22.7404   19.7756 C   0  0  0  0  0  0
  -30.2386  -16.9630   20.6022 C   0  0  0  0  0  0
  -28.1876  -25.1988   19.8116 C   0  0  0  0  0  0
  -29.8014  -18.0383   21.6451 C   0  0  1  0  0  0
  -29.5350  -21.5356   20.3224 N   0  0  0  0  0  0
  -31.0623  -20.0635   20.7208 N   0  3  0  0  0  0
  -29.9711  -15.5501   20.9703 N   0  0  0  0  0  0
  -31.4686  -12.3978   19.1444 H   0  0  0  0  0  0
  -30.3157  -11.3048   19.8531 H   0  0  0  0  0  0
  -29.7429  -11.7601   17.4481 H   0  0  0  0  0  0
  -29.6737  -13.4752   17.7696 H   0  0  0  0  0  0
  -27.8269  -11.3067   18.8276 H   0  0  0  0  0  0
  -27.3726  -12.6292   17.7874 H   0  0  0  0  0  0
  -27.6989  -14.2564   19.5612 H   0  0  0  0  0  0
  -28.6741  -11.9864   21.3624 H   0  0  0  0  0  0
  -28.4678  -13.6380   21.8641 H   0  0  0  0  0  0
  -25.2767   -9.5669   22.4735 H   0  0  0  0  0  0
  -23.9990   -7.4634   22.7473 H   0  0  0  0  0  0
  -21.0830   -8.8768   19.8949 H   0  0  0  0  0  0
  -22.3699  -10.9655   19.6144 H   0  0  0  0  0  0
  -21.2018   -7.6141   23.9700 H   0  0  0  0  0  0
  -21.1476   -6.0517   25.9065 H   0  0  0  0  0  0
  -22.0604   -2.7600   23.2849 H   0  0  0  0  0  0
  -22.4126  -11.9897   22.4806 H   0  0  0  0  0  0
  -21.1104  -13.1219   22.2573 H   0  0  0  0  0  0
  -24.6646  -15.8445   20.5154 H   0  0  0  0  0  0
  -26.2782  -15.6237   20.0682 H   0  0  0  0  0  0
  -26.7136  -32.5505   23.1155 H   0  0  0  0  0  0
  -25.0146  -33.9786   25.0530 H   0  0  0  0  0  0
  -22.6982  -31.3170   21.4169 H   0  0  0  0  0  0
  -23.3756  -35.9610   23.3307 H   0  0  0  0  0  0
  -24.3589  -36.8886   22.2043 H   0  0  0  0  0  0
  -23.7248  -37.6501   23.6632 H   0  0  0  0  0  0
  -26.0736  -31.5883   20.6113 H   0  0  0  0  0  0
  -26.8251  -30.8603   22.0020 H   0  0  0  0  0  0
  -28.0936  -29.0421   21.1989 H   0  0  0  0  0  0
  -25.9794  -26.0213   18.9207 H   0  0  0  0  0  0
  -23.9673  -27.3518   18.9836 H   0  0  0  0  0  0
  -23.7270  -30.6194   19.4072 H   0  0  0  0  0  0
  -22.7384  -29.2645   19.8618 H   0  0  0  0  0  0
  -25.1302  -36.1953   25.0837 H   0  0  0  0  0  0
  -20.9992  -28.3244   24.1420 H   0  0  0  0  0  0
  -20.5695  -26.2277   23.3600 H   0  0  0  0  0  0
  -21.6655  -26.7468   22.1202 H   0  0  0  0  0  0
  -19.6917  -25.6311   21.1241 H   0  0  0  0  0  0
  -19.6713  -27.3217   20.6747 H   0  0  0  0  0  0
  -17.4218  -26.6717   21.4005 H   0  0  0  0  0  0
  -18.0317  -26.0080   22.9006 H   0  0  0  0  0  0
  -19.7932  -30.7288   24.2276 H   0  0  0  0  0  0
  -17.5018  -31.6274   24.5184 H   0  0  0  0  0  0
  -15.5357  -30.3022   23.7649 H   0  0  0  0  0  0
  -15.8673  -28.0847   22.7073 H   0  0  0  0  0  0
  -24.5975  -30.7004   25.7859 H   0  0  0  0  0  0
  -24.8851  -32.2891   26.4825 H   0  0  0  0  0  0
  -25.8111  -30.9039   27.0301 H   0  0  0  0  0  0
  -26.2835  -29.6829   24.1167 H   0  0  0  0  0  0
  -27.4014  -29.7260   25.4617 H   0  0  0  0  0  0
  -27.8721  -30.4338   23.9343 H   0  0  0  0  0  0
  -27.2699  -33.3652   26.2045 H   0  0  0  0  0  0
  -28.3888  -32.6854   25.0320 H   0  0  0  0  0  0
  -28.0713  -31.8464   26.5426 H   0  0  0  0  0  0
  -28.2617  -38.0088   24.7514 H   0  0  0  0  0  0
  -28.1071  -36.2624   24.6301 H   0  0  0  0  0  0
  -27.2299  -37.1466   25.8871 H   0  0  0  0  0  0
  -20.9285  -29.8751   21.6915 H   0  0  0  0  0  0
  -26.0172  -38.2873   24.1416 H   0  0  0  0  0  0
  -27.8452  -20.3710   20.9803 H   0  0  0  0  0  0
  -31.5506  -22.6658   18.7831 H   0  0  0  0  0  0
  -32.8157  -21.6489   19.5182 H   0  0  0  0  0  0
  -32.1058  -22.9957   20.4513 H   0  0  0  0  0  0
  -28.1138  -18.5098   22.9463 H   0  0  0  0  0  0
  -28.3620  -16.7936   22.7217 H   0  0  0  0  0  0
  -27.6422  -17.7484   21.4283 H   0  0  0  0  0  0
  -30.2153  -24.4404   20.0718 H   0  0  0  0  0  0
  -29.1637  -24.1324   21.4396 H   0  0  0  0  0  0
  -29.0193  -22.7376   18.6987 H   0  0  0  0  0  0
  -27.7802  -22.5668   19.9034 H   0  0  0  0  0  0
  -31.2960  -17.1097   20.3743 H   0  0  0  0  0  0
  -29.7030  -17.1435   19.6695 H   0  0  0  0  0  0
  -27.2265  -24.8484   20.1908 H   0  0  0  0  0  0
  -28.1573  -25.1288   18.7233 H   0  0  0  0  0  0
  -30.4965  -17.9867   22.4840 H   0  0  0  0  0  0
  -31.9764  -19.6295   20.7794 H   0  0  0  0  0  0
  -29.0560  -15.3403   21.3400 H   0  0  0  0  0  0
  1 25  1  0  0  0
  1 30  2  0  0  0
  1 83  1  0  0  0
  2  3  1  0  0  0
  2 25  1  0  0  0
  2 84  1  0  0  0
  2 85  1  0  0  0
  3  4  1  0  0  0
  3 86  1  0  0  0
  3 87  1  0  0  0
  4  5  1  0  0  0
  4 88  1  0  0  0
  4 89  1  0  0  0
  5  6  1  0  0  0
  5 26  1  0  0  0
  5 90  1  0  0  0
  6 25  1  0  0  0
  6 91  1  0  0  0
  6 92  1  0  0  0
  7  8  2  0  0  0
  7 26  1  0  0  0
  7 29  1  0  0  0
  8  9  1  0  0  0
  8 22  1  0  0  0
  9 10  1  0  0  0
  9 27  2  0  0  0
 10 11  2  0  0  0
 10 15  1  0  0  0
 11 12  1  0  0  0
 11 93  1  0  0  0
 12 13  2  0  0  0
 12 94  1  0  0  0
 13 14  1  0  0  0
 13 31  1  0  0  0
 14 15  2  0  0  0
 14 95  1  0  0  0
 15 96  1  0  0  0
 16 17  2  0  0  0
 16 21  1  0  0  0
 16 31  1  0  0  0
 17 18  1  0  0  0
 17 97  1  0  0  0
 18 19  2  0  0  0
 18 98  1  0  0  0
 19 20  1  0  0  0
 19 24  1  0  0  0
 20 21  2  0  0  0
 20 99  1  0  0  0
 21 23  1  0  0  0
 22 28  1  0  0  0
 22 32  2  0  0  0
 26 27  1  0  0  0
 28100  1  0  0  0
 28101  1  0  0  0
 29102  1  0  0  0
 29103  1  0  0  0
 33 34  1  0  0  0
 33 66  1  0  0  0
 33 70  2  0  0  0
 34 36  1  0  0  0
 34 59  1  0  0  0
 34104  1  0  0  0
 35 44  2  0  0  0
 35 45  1  0  0  0
 35 68  1  0  0  0
 36 56  1  0  0  0
 36105  1  0  0  0
 37 39  1  0  0  0
 37 47  1  0  0  0
 37 66  1  0  0  0
 37106  1  0  0  0
 38 43  2  0  0  0
 38 46  1  0  0  0
 38 47  1  0  0  0
 39 64  1  0  0  0
 39 67  2  0  0  0
 40 52  1  0  0  0
 40 53  2  0  0  0
 40 58  1  0  0  0
 41107  1  0  0  0
 41108  1  0  0  0
 41109  1  0  0  0
 41 48  1  0  0  0
 42 43  1  0  0  0
 42 66  1  0  0  0
 42110  1  0  0  0
 42111  1  0  0  0
 43 44  1  0  0  0
 44112  1  0  0  0
 45 46  2  0  0  0
 45113  1  0  0  0
 46114  1  0  0  0
 47115  1  0  0  0
 47116  1  0  0  0
 48 56  1  0  0  0
 48 65  1  0  0  0
 48117  1  0  0  0
 49 50  1  0  0  0
 49 53  1  0  0  0
 49 64  1  0  0  0
 49118  1  0  0  0
 50 51  1  0  0  0
 50119  1  0  0  0
 50120  1  0  0  0
 51 52  1  0  0  0
 51121  1  0  0  0
 51122  1  0  0  0
 52123  1  0  0  0
 52124  1  0  0  0
 53 54  1  0  0  0
 54 55  2  0  0  0
 54125  1  0  0  0
 55 57  1  0  0  0
 55126  1  0  0  0
 56 69  2  0  0  0
 57 58  2  0  0  0
 57127  1  0  0  0
 58128  1  0  0  0
 59 60  1  0  0  0
 59 61  1  0  0  0
 59 62  1  0  0  0
 60129  1  0  0  0
 60130  1  0  0  0
 60131  1  0  0  0
 61132  1  0  0  0
 61133  1  0  0  0
 61134  1  0  0  0
 62135  1  0  0  0
 62136  1  0  0  0
 62137  1  0  0  0
 63 65  1  0  0  0
 63138  1  0  0  0
 63139  1  0  0  0
 63140  1  0  0  0
 64141  1  0  0  0
 65142  1  0  0  0
 68 79  1  0  0  0
 71 72  2  0  0  0
 71 81  1  0  0  0
 71143  1  0  0  0
 72 80  1  0  0  0
 72 82  1  0  0  0
 73 74  1  0  0  0
 73 81  1  0  0  0
 73 82  2  0  0  0
 74144  1  0  0  0
 74145  1  0  0  0
 74146  1  0  0  0
 75147  1  0  0  0
 75148  1  0  0  0
 75149  1  0  0  0
 75 80  1  0  0  0
 76 77  1  0  0  0
 76 79  1  0  0  0
 76150  1  0  0  0
 76151  1  0  0  0
 77 81  1  0  0  0
 77152  1  0  0  0
 77153  1  0  0  0
 78 80  1  0  0  0
 78 83  1  0  0  0
 78154  1  0  0  0
 78155  1  0  0  0
 79156  1  0  0  0
 79157  1  0  0  0
 80158  1  0  0  0
 82159  1  0  0  0
 83160  1  0  0  0
M  CHG  1  82   1
M  ISO  4   1 100  68 101  79 101  83 100
M  END
> <chiral flag>
0

> <version>
0

> <s_m_source_file>
/data/baiqing/PycharmProjects/Reinvent-master-3.2/result/LINK_invent/BTK/process_docking_weight1_custom_sum_contain_oxygen_bond_distance_aromatic_linkinvent_7_9_3/rearranged_h_0082.sdf

> <i_m_source_file_index>
55

> <r_mmod_Potential_Energy-OPLS-2005>
-144.11474609375

> <r_mmod_Stretch_Energy-OPLS-2005>
44.0784645080566

> <r_mmod_Bend_Energy-OPLS-2005>
108.734085083008

> <r_mmod_Torsional_Energy-OPLS-2005>
220.266860961914

> <r_mmod_Improper_Torsional_Energy-OPLS-2005>
6.33258628845215

> <r_mmod_Van_der_Waal_Energy-OPLS-2005>
135.613708496094

> <r_mmod_Electrostatic_Energy-OPLS-2005>
-256.242950439453

> <r_mmod_Solvation_Energy-OPLS-2005>
-423.406982421875

> <b_mmod_Minimization_Converged-OPLS-2005>
0

> <r_mmod_RMS_Derivative-OPLS-2005>
1.76767933368683

$$$$
56
                    3D
 Structure written by MMmdl.
162170  0  0  1  0            999 V2000
  -30.6952  -14.4456   20.5713 C   0  0  0  0  0  0
  -30.4254  -12.2879   19.4206 C   0  0  0  0  0  0
  -29.4959  -12.5099   18.2085 C   0  0  0  0  0  0
  -28.0168  -12.3697   18.6194 C   0  0  0  0  0  0
  -27.6668  -13.1999   19.8826 C   0  0  2  0  0  0
  -28.7073  -12.9559   21.0022 C   0  0  0  0  0  0
  -25.2609  -13.8147   20.5680 C   0  0  0  0  0  0
  -24.1844  -13.0437   20.9165 C   0  0  0  0  0  0
  -24.6386  -11.6899   20.8718 C   0  0  0  0  0  0
  -23.9046  -10.4292   21.0399 C   0  0  0  0  0  0
  -24.3605   -9.4210   21.9178 C   0  0  0  0  0  0
  -23.6284   -8.2244   22.0754 C   0  0  0  0  0  0
  -22.4263   -8.0280   21.3550 C   0  0  0  0  0  0
  -21.9893   -9.0250   20.4650 C   0  0  0  0  0  0
  -22.7218  -10.2130   20.3053 C   0  0  0  0  0  0
  -21.6851   -6.0728   22.5278 C   0  0  0  0  0  0
  -21.4015   -6.5638   23.8210 C   0  0  0  0  0  0
  -21.3659   -5.6793   24.9174 C   0  0  0  0  0  0
  -21.6045   -4.3056   24.7226 C   0  0  0  0  0  0
  -21.8819   -3.8145   23.4348 C   0  0  0  0  0  0
  -21.9193   -4.6957   22.3403 C   0  0  0  0  0  0
  -22.7868  -13.5244   21.1832 C   0  0  0  0  0  0
  -22.1665   -4.2144   21.0977 F   0  0  0  0  0  0
  -21.5625   -3.4538   25.7740 F   0  0  0  0  0  0
  -30.0451  -13.2566   20.4588 N   0  0  0  0  0  0
  -26.3046  -12.9302   20.3394 N   0  0  0  0  0  0
  -25.9312  -11.6467   20.5764 N   0  0  0  0  0  0
  -22.0509  -12.8245   22.0396 N   0  0  0  0  0  0
  -25.4340  -15.1863   20.4103 N   0  0  0  0  0  0
  -31.8110  -14.6523   20.0880 O   0  0  0  0  0  0
  -21.6639   -6.8870   21.4239 O   0  0  0  0  0  0
  -22.3555  -14.5551   20.6685 O   0  0  0  0  0  0
  -24.6157  -31.8712   23.2137 C   0  0  0  0  0  0
  -25.9056  -32.4842   23.8413 C   0  0  1  0  0  0
  -27.2213  -27.4294   20.0884 C   0  0  0  0  0  0
  -25.5923  -33.8638   24.2347 N   0  0  0  0  0  0
  -23.4021  -30.4988   21.5561 C   0  0  2  0  0  0
  -24.8438  -28.9773   20.1101 C   0  0  0  0  0  0
  -22.7418  -29.4677   22.4998 C   0  0  0  0  0  0
  -18.0276  -28.1387   22.8499 C   0  0  0  0  0  0
  -24.1489  -36.7310   23.2637 C   0  0  0  0  0  0
  -25.9343  -30.8340   21.3696 C   0  0  0  0  0  0
  -26.0080  -29.4716   20.7113 C   0  0  0  0  0  0
  -27.1992  -28.7061   20.6992 C   0  0  0  0  0  0
  -26.0342  -26.9697   19.4608 C   0  0  0  0  0  0
  -24.8526  -27.7255   19.4813 C   0  0  0  0  0  0
  -23.6079  -29.8443   20.1663 C   0  0  0  0  0  0
  -25.4112  -36.3123   24.0339 C   0  0  1  0  0  0
  -20.5866  -28.3672   23.1326 C   0  0  2  0  0  0
  -20.6767  -26.9409   22.5422 C   0  0  0  0  0  0
  -19.5740  -26.6396   21.5225 C   0  0  0  0  0  0
  -18.1919  -26.7932   22.1635 C   0  0  0  0  0  0
  -19.1524  -28.8846   23.2910 C   0  0  0  0  0  0
  -18.9447  -30.1449   23.8924 C   0  0  0  0  0  0
  -17.6448  -30.6590   24.0571 C   0  0  0  0  0  0
  -25.9039  -34.9489   23.5133 C   0  0  0  0  0  0
  -16.5339  -29.9094   23.6329 C   0  0  0  0  0  0
  -16.7264  -28.6512   23.0351 C   0  0  0  0  0  0
  -26.4477  -31.6611   25.0729 C   0  0  0  0  0  0
  -25.3736  -31.3714   26.1467 C   0  0  0  0  0  0
  -27.0296  -30.3055   24.6087 C   0  0  0  0  0  0
  -27.6064  -32.4318   25.7484 C   0  0  0  0  0  0
  -27.5586  -37.1817   24.8470 C   0  0  0  0  0  0
  -21.4148  -29.3035   22.3731 N   0  0  0  0  0  0
  -26.4303  -37.3803   23.9406 N   0  0  0  0  0  0
  -24.6692  -31.0817   22.1044 N   0  0  0  0  0  0
  -23.4191  -28.8205   23.3023 O   0  0  0  0  0  0
  -28.3737  -26.6580   20.1365 O   0  0  0  0  0  0
  -26.5590  -34.8940   22.4688 O   0  0  0  0  0  0
  -23.5353  -32.1468   23.7529 O   0  0  0  0  0  0
  -31.2765  -20.0993   20.3409 C   0  0  0  0  0  0
  -30.5206  -19.2977   21.2474 C   0  0  0  0  0  0
  -29.6424  -21.6940   20.4718 C   0  0  0  0  0  0
  -32.5790  -19.6828   19.6841 C   0  0  0  0  0  0
  -32.2334  -17.3848   21.7646 C   0  0  0  0  0  0
  -30.1237  -17.0870   19.1657 C   0  0  0  0  0  0
  -28.9417  -22.8733   19.8118 C   0  0  0  0  0  0
  -29.2835  -24.2891   20.3336 C   0  0  0  0  0  0
  -28.1943  -25.2618   19.8445 C   0  0  0  0  0  0
  -30.7632  -17.8107   21.6003 C   0  0  2  0  0  0
  -29.9235  -16.8688   20.6820 C   0  0  2  0  0  0
  -30.8158  -21.3144   19.9584 N   0  0  0  0  0  0
  -29.3867  -19.8176   21.7889 N   0  0  0  0  0  0
  -28.9456  -21.0243   21.4034 N   0  0  0  0  0  0
  -29.9293  -15.4406   21.0543 N   0  0  0  0  0  0
  -31.4716  -12.3832   19.1232 H   0  0  0  0  0  0
  -30.3186  -11.2714   19.8039 H   0  0  0  0  0  0
  -29.7305  -11.7968   17.4168 H   0  0  0  0  0  0
  -29.6682  -13.5013   17.7876 H   0  0  0  0  0  0
  -27.8230  -11.3126   18.8070 H   0  0  0  0  0  0
  -27.3672  -12.6551   17.7913 H   0  0  0  0  0  0
  -27.7185  -14.2504   19.5954 H   0  0  0  0  0  0
  -28.6744  -11.9150   21.3269 H   0  0  0  0  0  0
  -28.4716  -13.5405   21.8927 H   0  0  0  0  0  0
  -25.2750   -9.5688   22.4750 H   0  0  0  0  0  0
  -23.9995   -7.4635   22.7473 H   0  0  0  0  0  0
  -21.0824   -8.8764   19.8958 H   0  0  0  0  0  0
  -22.3672  -10.9667   19.6166 H   0  0  0  0  0  0
  -21.2013   -7.6145   23.9712 H   0  0  0  0  0  0
  -21.1481   -6.0523   25.9075 H   0  0  0  0  0  0
  -22.0597   -2.7605   23.2850 H   0  0  0  0  0  0
  -22.4126  -11.9910   22.4792 H   0  0  0  0  0  0
  -21.1136  -13.1284   22.2618 H   0  0  0  0  0  0
  -24.6679  -15.8423   20.5168 H   0  0  0  0  0  0
  -26.2899  -15.6261   20.0971 H   0  0  0  0  0  0
  -26.7122  -32.5546   23.1175 H   0  0  0  0  0  0
  -25.0101  -33.9801   25.0511 H   0  0  0  0  0  0
  -22.6900  -31.3158   21.4249 H   0  0  0  0  0  0
  -23.3758  -35.9639   23.3322 H   0  0  0  0  0  0
  -24.3577  -36.8892   22.2046 H   0  0  0  0  0  0
  -23.7234  -37.6525   23.6622 H   0  0  0  0  0  0
  -26.0499  -31.6012   20.6020 H   0  0  0  0  0  0
  -26.8225  -30.8837   21.9873 H   0  0  0  0  0  0
  -28.0936  -29.0827   21.1757 H   0  0  0  0  0  0
  -25.9795  -26.0225   18.9454 H   0  0  0  0  0  0
  -23.9611  -27.3423   19.0043 H   0  0  0  0  0  0
  -23.7177  -30.6254   19.4135 H   0  0  0  0  0  0
  -22.7289  -29.2703   19.8677 H   0  0  0  0  0  0
  -25.1290  -36.2003   25.0834 H   0  0  0  0  0  0
  -20.9962  -28.3231   24.1447 H   0  0  0  0  0  0
  -20.5692  -26.2275   23.3602 H   0  0  0  0  0  0
  -21.6633  -26.7465   22.1195 H   0  0  0  0  0  0
  -19.6892  -25.6316   21.1232 H   0  0  0  0  0  0
  -19.6672  -27.3225   20.6768 H   0  0  0  0  0  0
  -17.4190  -26.6695   21.4032 H   0  0  0  0  0  0
  -18.0307  -26.0073   22.9031 H   0  0  0  0  0  0
  -19.7918  -30.7262   24.2307 H   0  0  0  0  0  0
  -17.5002  -31.6273   24.5166 H   0  0  0  0  0  0
  -15.5341  -30.3004   23.7639 H   0  0  0  0  0  0
  -15.8664  -28.0839   22.7056 H   0  0  0  0  0  0
  -24.5898  -30.7078   25.7792 H   0  0  0  0  0  0
  -24.8937  -32.2873   26.4932 H   0  0  0  0  0  0
  -25.8081  -30.8860   27.0214 H   0  0  0  0  0  0
  -26.2833  -29.6839   24.1122 H   0  0  0  0  0  0
  -27.4056  -29.7264   25.4532 H   0  0  0  0  0  0
  -27.8681  -30.4387   23.9242 H   0  0  0  0  0  0
  -27.2693  -33.3601   26.2116 H   0  0  0  0  0  0
  -28.3849  -32.6912   25.0291 H   0  0  0  0  0  0
  -28.0766  -31.8405   26.5354 H   0  0  0  0  0  0
  -28.2630  -38.0091   24.7514 H   0  0  0  0  0  0
  -28.1058  -36.2629   24.6312 H   0  0  0  0  0  0
  -27.2296  -37.1489   25.8871 H   0  0  0  0  0  0
  -20.9307  -29.8772   21.6969 H   0  0  0  0  0  0
  -26.0200  -38.2886   24.1401 H   0  0  0  0  0  0
  -33.3502  -19.4985   20.4308 H   0  0  0  0  0  0
  -32.9543  -20.4657   19.0246 H   0  0  0  0  0  0
  -32.4458  -18.7903   19.0765 H   0  0  0  0  0  0
  -32.7462  -17.2822   20.8109 H   0  0  0  0  0  0
  -32.3005  -16.4155   22.2583 H   0  0  0  0  0  0
  -32.7840  -18.0917   22.3845 H   0  0  0  0  0  0
  -29.8772  -18.1064   18.8672 H   0  0  0  0  0  0
  -29.4757  -16.4290   18.5858 H   0  0  0  0  0  0
  -31.1490  -16.8897   18.8560 H   0  0  0  0  0  0
  -27.8691  -22.6984   19.9154 H   0  0  0  0  0  0
  -29.1275  -22.8283   18.7381 H   0  0  0  0  0  0
  -30.2729  -24.5870   19.9888 H   0  0  0  0  0  0
  -29.3058  -24.2938   21.4236 H   0  0  0  0  0  0
  -27.2729  -24.9123   20.3151 H   0  0  0  0  0  0
  -28.0738  -25.1489   18.7652 H   0  0  0  0  0  0
  -30.3465  -17.6941   22.6026 H   0  0  0  0  0  0
  -28.8852  -17.1560   20.8569 H   0  0  0  0  0  0
  -29.0770  -15.1171   21.4885 H   0  0  0  0  0  0
  1 25  1  0  0  0
  1 30  2  0  0  0
  1 85  1  0  0  0
  2  3  1  0  0  0
  2 25  1  0  0  0
  2 86  1  0  0  0
  2 87  1  0  0  0
  3  4  1  0  0  0
  3 88  1  0  0  0
  3 89  1  0  0  0
  4  5  1  0  0  0
  4 90  1  0  0  0
  4 91  1  0  0  0
  5  6  1  0  0  0
  5 26  1  0  0  0
  5 92  1  0  0  0
  6 25  1  0  0  0
  6 93  1  0  0  0
  6 94  1  0  0  0
  7  8  2  0  0  0
  7 26  1  0  0  0
  7 29  1  0  0  0
  8  9  1  0  0  0
  8 22  1  0  0  0
  9 10  1  0  0  0
  9 27  2  0  0  0
 10 11  2  0  0  0
 10 15  1  0  0  0
 11 12  1  0  0  0
 11 95  1  0  0  0
 12 13  2  0  0  0
 12 96  1  0  0  0
 13 14  1  0  0  0
 13 31  1  0  0  0
 14 15  2  0  0  0
 14 97  1  0  0  0
 15 98  1  0  0  0
 16 17  2  0  0  0
 16 21  1  0  0  0
 16 31  1  0  0  0
 17 18  1  0  0  0
 17 99  1  0  0  0
 18 19  2  0  0  0
 18100  1  0  0  0
 19 20  1  0  0  0
 19 24  1  0  0  0
 20 21  2  0  0  0
 20101  1  0  0  0
 21 23  1  0  0  0
 22 28  1  0  0  0
 22 32  2  0  0  0
 26 27  1  0  0  0
 28102  1  0  0  0
 28103  1  0  0  0
 29104  1  0  0  0
 29105  1  0  0  0
 33 34  1  0  0  0
 33 66  1  0  0  0
 33 70  2  0  0  0
 34 36  1  0  0  0
 34 59  1  0  0  0
 34106  1  0  0  0
 35 44  2  0  0  0
 35 45  1  0  0  0
 35 68  1  0  0  0
 36 56  1  0  0  0
 36107  1  0  0  0
 37 39  1  0  0  0
 37 47  1  0  0  0
 37 66  1  0  0  0
 37108  1  0  0  0
 38 43  2  0  0  0
 38 46  1  0  0  0
 38 47  1  0  0  0
 39 64  1  0  0  0
 39 67  2  0  0  0
 40 52  1  0  0  0
 40 53  2  0  0  0
 40 58  1  0  0  0
 41109  1  0  0  0
 41110  1  0  0  0
 41111  1  0  0  0
 41 48  1  0  0  0
 42 43  1  0  0  0
 42 66  1  0  0  0
 42112  1  0  0  0
 42113  1  0  0  0
 43 44  1  0  0  0
 44114  1  0  0  0
 45 46  2  0  0  0
 45115  1  0  0  0
 46116  1  0  0  0
 47117  1  0  0  0
 47118  1  0  0  0
 48 56  1  0  0  0
 48 65  1  0  0  0
 48119  1  0  0  0
 49 50  1  0  0  0
 49 53  1  0  0  0
 49 64  1  0  0  0
 49120  1  0  0  0
 50 51  1  0  0  0
 50121  1  0  0  0
 50122  1  0  0  0
 51 52  1  0  0  0
 51123  1  0  0  0
 51124  1  0  0  0
 52125  1  0  0  0
 52126  1  0  0  0
 53 54  1  0  0  0
 54 55  2  0  0  0
 54127  1  0  0  0
 55 57  1  0  0  0
 55128  1  0  0  0
 56 69  2  0  0  0
 57 58  2  0  0  0
 57129  1  0  0  0
 58130  1  0  0  0
 59 60  1  0  0  0
 59 61  1  0  0  0
 59 62  1  0  0  0
 60131  1  0  0  0
 60132  1  0  0  0
 60133  1  0  0  0
 61134  1  0  0  0
 61135  1  0  0  0
 61136  1  0  0  0
 62137  1  0  0  0
 62138  1  0  0  0
 62139  1  0  0  0
 63 65  1  0  0  0
 63140  1  0  0  0
 63141  1  0  0  0
 63142  1  0  0  0
 64143  1  0  0  0
 65144  1  0  0  0
 68 79  1  0  0  0
 71 72  2  0  0  0
 71 74  1  0  0  0
 71 82  1  0  0  0
 72 80  1  0  0  0
 72 83  1  0  0  0
 73 77  1  0  0  0
 73 82  2  0  0  0
 73 84  1  0  0  0
 74145  1  0  0  0
 74146  1  0  0  0
 74147  1  0  0  0
 75148  1  0  0  0
 75149  1  0  0  0
 75150  1  0  0  0
 75 80  1  0  0  0
 76151  1  0  0  0
 76152  1  0  0  0
 76153  1  0  0  0
 76 81  1  0  0  0
 77 78  1  0  0  0
 77154  1  0  0  0
 77155  1  0  0  0
 78 79  1  0  0  0
 78156  1  0  0  0
 78157  1  0  0  0
 79158  1  0  0  0
 79159  1  0  0  0
 80 81  1  0  0  0
 80160  1  0  0  0
 81 85  1  0  0  0
 81161  1  0  0  0
 83 84  2  0  0  0
 85162  1  0  0  0
M  ISO  4   1 100  68 101  79 101  85 100
M  END
> <chiral flag>
0

> <version>
0

> <s_m_source_file>
/data/baiqing/PycharmProjects/Reinvent-master-3.2/result/LINK_invent/BTK/process_docking_weight1_custom_sum_contain_oxygen_bond_distance_aromatic_linkinvent_7_9_3/rearranged_h_0082.sdf

> <i_m_source_file_index>
56

> <r_mmod_Potential_Energy-OPLS-2005>
-104.378051757812

> <r_mmod_Stretch_Energy-OPLS-2005>
41.5346565246582

> <r_mmod_Bend_Energy-OPLS-2005>
124.589698791504

> <r_mmod_Torsional_Energy-OPLS-2005>
199.445220947266

> <r_mmod_Improper_Torsional_Energy-OPLS-2005>
7.43730211257935

> <r_mmod_Van_der_Waal_Energy-OPLS-2005>
174.274459838867

> <r_mmod_Electrostatic_Energy-OPLS-2005>
-436.792572021484

> <r_mmod_Solvation_Energy-OPLS-2005>
-228.265472412109

> <b_mmod_Minimization_Converged-OPLS-2005>
0

> <r_mmod_RMS_Derivative-OPLS-2005>
1.45548093318939

$$$$
57
                    3D
 Structure written by MMmdl.
165173  0  0  1  0            999 V2000
  -30.7011  -14.5610   20.5014 C   0  0  0  0  0  0
  -30.4187  -12.3428   19.4565 C   0  0  0  0  0  0
  -29.5044  -12.4784   18.2224 C   0  0  0  0  0  0
  -28.0248  -12.3418   18.6303 C   0  0  0  0  0  0
  -27.6514  -13.2206   19.8547 C   0  0  2  0  0  0
  -28.6927  -13.0962   20.9897 C   0  0  0  0  0  0
  -25.2549  -13.8202   20.5679 C   0  0  0  0  0  0
  -24.1821  -13.0457   20.9191 C   0  0  0  0  0  0
  -24.6393  -11.6931   20.8740 C   0  0  0  0  0  0
  -23.9065  -10.4305   21.0418 C   0  0  0  0  0  0
  -24.3610   -9.4221   21.9191 C   0  0  0  0  0  0
  -23.6281   -8.2265   22.0779 C   0  0  0  0  0  0
  -22.4251   -8.0311   21.3578 C   0  0  0  0  0  0
  -21.9889   -9.0277   20.4675 C   0  0  0  0  0  0
  -22.7229  -10.2146   20.3065 C   0  0  0  0  0  0
  -21.6848   -6.0743   22.5289 C   0  0  0  0  0  0
  -21.4013   -6.5642   23.8224 C   0  0  0  0  0  0
  -21.3656   -5.6795   24.9185 C   0  0  0  0  0  0
  -21.6046   -4.3066   24.7223 C   0  0  0  0  0  0
  -21.8817   -3.8152   23.4349 C   0  0  0  0  0  0
  -21.9196   -4.6962   22.3401 C   0  0  0  0  0  0
  -22.7830  -13.5255   21.1859 C   0  0  0  0  0  0
  -22.1671   -4.2160   21.0980 F   0  0  0  0  0  0
  -21.5616   -3.4547   25.7733 F   0  0  0  0  0  0
  -30.0158  -13.3842   20.4220 N   0  0  0  0  0  0
  -26.2978  -12.9389   20.3279 N   0  0  0  0  0  0
  -25.9318  -11.6547   20.5729 N   0  0  0  0  0  0
  -22.0452  -12.8257   22.0391 N   0  0  0  0  0  0
  -25.4255  -15.1920   20.4097 N   0  0  0  0  0  0
  -31.8707  -14.6492   20.1213 O   0  0  0  0  0  0
  -21.6643   -6.8886   21.4256 O   0  0  0  0  0  0
  -22.3536  -14.5583   20.6724 O   0  0  0  0  0  0
  -24.6221  -31.8635   23.2066 C   0  0  0  0  0  0
  -25.9088  -32.4800   23.8381 C   0  0  1  0  0  0
  -27.2129  -27.3633   20.1159 C   0  0  0  0  0  0
  -25.5910  -33.8599   24.2293 N   0  0  0  0  0  0
  -23.4116  -30.4908   21.5503 C   0  0  2  0  0  0
  -24.8543  -28.9503   20.1130 C   0  0  0  0  0  0
  -22.7449  -29.4646   22.4969 C   0  0  0  0  0  0
  -18.0291  -28.1382   22.8497 C   0  0  0  0  0  0
  -24.1478  -36.7296   23.2638 C   0  0  0  0  0  0
  -25.9496  -30.8087   21.3697 C   0  0  0  0  0  0
  -26.0227  -29.4408   20.7107 C   0  0  0  0  0  0
  -27.2104  -28.6589   20.7020 C   0  0  0  0  0  0
  -26.0282  -26.9117   19.4959 C   0  0  0  0  0  0
  -24.8545  -27.6873   19.4989 C   0  0  0  0  0  0
  -23.6216  -29.8280   20.1640 C   0  0  0  0  0  0
  -25.4101  -36.3090   24.0334 C   0  0  1  0  0  0
  -20.5885  -28.3670   23.1293 C   0  0  2  0  0  0
  -20.6775  -26.9403   22.5409 C   0  0  0  0  0  0
  -19.5743  -26.6385   21.5215 C   0  0  0  0  0  0
  -18.1928  -26.7933   22.1629 C   0  0  0  0  0  0
  -19.1542  -28.8848   23.2894 C   0  0  0  0  0  0
  -18.9471  -30.1449   23.8910 C   0  0  0  0  0  0
  -17.6467  -30.6585   24.0572 C   0  0  0  0  0  0
  -25.9044  -34.9465   23.5117 C   0  0  0  0  0  0
  -16.5361  -29.9087   23.6336 C   0  0  0  0  0  0
  -16.7275  -28.6504   23.0361 C   0  0  0  0  0  0
  -26.4477  -31.6613   25.0749 C   0  0  0  0  0  0
  -25.3704  -31.3783   26.1480 C   0  0  0  0  0  0
  -27.0316  -30.3038   24.6197 C   0  0  0  0  0  0
  -27.6034  -32.4352   25.7506 C   0  0  0  0  0  0
  -27.5578  -37.1793   24.8460 C   0  0  0  0  0  0
  -21.4176  -29.3029   22.3692 N   0  0  0  0  0  0
  -26.4275  -37.3786   23.9424 N   0  0  0  0  0  0
  -24.6799  -31.0694   22.0997 N   0  0  0  0  0  0
  -23.4200  -28.8194   23.3035 O   0  0  0  0  0  0
  -28.3231  -26.5257   20.1440 O   0  0  0  0  0  0
  -26.5624  -34.8923   22.4689 O   0  0  0  0  0  0
  -23.5391  -32.1419   23.7428 O   0  0  0  0  0  0
  -28.6472  -18.7836   20.1927 C   0  0  0  0  0  0
  -30.8240  -19.5573   21.0722 C   0  0  0  0  0  0
  -28.0414  -20.1725   20.5923 C   0  0  0  0  0  0
  -30.1834  -20.9195   21.4618 C   0  0  0  0  0  0
  -29.8464  -18.3502   21.0718 C   0  0  2  0  0  0
  -28.3808  -23.7907   18.6754 C   0  0  0  0  0  0
  -30.3427  -24.1785   20.1995 C   0  0  0  0  0  0
  -30.6087  -17.0499   20.6043 C   0  0  0  0  0  0
  -28.4144  -22.6415   20.9688 C   0  0  0  0  0  0
  -28.0994  -25.2116   20.7564 C   0  0  0  0  0  0
  -28.8221  -23.9414   20.1454 C   0  0  0  0  0  0
  -30.0105  -15.6978   20.8004 N   0  0  0  0  0  0
  -29.0298  -21.3024   20.5959 N   0  3  2  0  0  0
  -31.4652  -12.4229   19.1556 H   0  0  0  0  0  0
  -30.3169  -11.3545   19.9048 H   0  0  0  0  0  0
  -29.7590  -11.7187   17.4811 H   0  0  0  0  0  0
  -29.6710  -13.4406   17.7367 H   0  0  0  0  0  0
  -27.8473  -11.2901   18.8592 H   0  0  0  0  0  0
  -27.3774  -12.5775   17.7855 H   0  0  0  0  0  0
  -27.6684  -14.2524   19.5044 H   0  0  0  0  0  0
  -28.6781  -12.0909   21.4153 H   0  0  0  0  0  0
  -28.4497  -13.7745   21.8079 H   0  0  0  0  0  0
  -25.2773   -9.5703   22.4740 H   0  0  0  0  0  0
  -24.0025   -7.4648   22.7460 H   0  0  0  0  0  0
  -21.0843   -8.8781   19.8957 H   0  0  0  0  0  0
  -22.3715  -10.9674   19.6158 H   0  0  0  0  0  0
  -21.2018   -7.6149   23.9732 H   0  0  0  0  0  0
  -21.1469   -6.0526   25.9091 H   0  0  0  0  0  0
  -22.0593   -2.7613   23.2839 H   0  0  0  0  0  0
  -22.4045  -11.9955   22.4871 H   0  0  0  0  0  0
  -21.1063  -13.1320   22.2546 H   0  0  0  0  0  0
  -24.6570  -15.8449   20.5220 H   0  0  0  0  0  0
  -26.2716  -15.6315   20.0719 H   0  0  0  0  0  0
  -26.7172  -32.5478   23.1144 H   0  0  0  0  0  0
  -25.0015  -33.9752   25.0408 H   0  0  0  0  0  0
  -22.7030  -31.3109   21.4143 H   0  0  0  0  0  0
  -23.3742  -35.9626   23.3289 H   0  0  0  0  0  0
  -24.3573  -36.8927   22.2058 H   0  0  0  0  0  0
  -23.7228  -37.6493   23.6665 H   0  0  0  0  0  0
  -26.0791  -31.5761   20.6054 H   0  0  0  0  0  0
  -26.8310  -30.8515   21.9983 H   0  0  0  0  0  0
  -28.1092  -29.0304   21.1740 H   0  0  0  0  0  0
  -26.0009  -25.9395   19.0239 H   0  0  0  0  0  0
  -23.9555  -27.3037   19.0353 H   0  0  0  0  0  0
  -23.7385  -30.6085   19.4114 H   0  0  0  0  0  0
  -22.7392  -29.2617   19.8602 H   0  0  0  0  0  0
  -25.1273  -36.1940   25.0824 H   0  0  0  0  0  0
  -20.9985  -28.3246   24.1409 H   0  0  0  0  0  0
  -20.5664  -26.2292   23.3606 H   0  0  0  0  0  0
  -21.6646  -26.7422   22.1211 H   0  0  0  0  0  0
  -19.6899  -25.6295   21.1245 H   0  0  0  0  0  0
  -19.6677  -27.3197   20.6747 H   0  0  0  0  0  0
  -17.4192  -26.6680   21.4038 H   0  0  0  0  0  0
  -18.0322  -26.0069   22.9014 H   0  0  0  0  0  0
  -19.7947  -30.7268   24.2280 H   0  0  0  0  0  0
  -17.5024  -31.6268   24.5167 H   0  0  0  0  0  0
  -15.5359  -30.2994   23.7648 H   0  0  0  0  0  0
  -15.8678  -28.0820   22.7072 H   0  0  0  0  0  0
  -24.5835  -30.7184   25.7813 H   0  0  0  0  0  0
  -24.8954  -32.2982   26.4905 H   0  0  0  0  0  0
  -25.8006  -30.8945   27.0260 H   0  0  0  0  0  0
  -26.2906  -29.6803   24.1185 H   0  0  0  0  0  0
  -27.3987  -29.7277   25.4704 H   0  0  0  0  0  0
  -27.8779  -30.4334   23.9443 H   0  0  0  0  0  0
  -27.2634  -33.3640   26.2096 H   0  0  0  0  0  0
  -28.3823  -32.6943   25.0322 H   0  0  0  0  0  0
  -28.0726  -31.8487   26.5415 H   0  0  0  0  0  0
  -28.2578  -38.0106   24.7532 H   0  0  0  0  0  0
  -28.1090  -36.2646   24.6235 H   0  0  0  0  0  0
  -27.2314  -37.1380   25.8865 H   0  0  0  0  0  0
  -20.9346  -29.8740   21.6900 H   0  0  0  0  0  0
  -26.0155  -38.2855   24.1449 H   0  0  0  0  0  0
  -28.9517  -18.8147   19.1463 H   0  0  0  0  0  0
  -27.8677  -18.0230   20.2504 H   0  0  0  0  0  0
  -31.6445  -19.3568   21.7624 H   0  0  0  0  0  0
  -31.2890  -19.6559   20.0893 H   0  0  0  0  0  0
  -27.5941  -20.0917   21.5847 H   0  0  0  0  0  0
  -27.2248  -20.4123   19.9105 H   0  0  0  0  0  0
  -30.9481  -21.6929   21.4200 H   0  0  0  0  0  0
  -29.8575  -20.8768   22.5030 H   0  0  0  0  0  0
  -29.4952  -18.1995   22.0945 H   0  0  0  0  0  0
  -28.8853  -22.9622   18.1779 H   0  0  0  0  0  0
  -28.6030  -24.6930   18.1035 H   0  0  0  0  0  0
  -27.3081  -23.6182   18.5950 H   0  0  0  0  0  0
  -30.9043  -23.3456   19.7762 H   0  0  0  0  0  0
  -30.6889  -24.3302   21.2228 H   0  0  0  0  0  0
  -30.6197  -25.0659   19.6303 H   0  0  0  0  0  0
  -31.5728  -17.0373   21.1191 H   0  0  0  0  0  0
  -30.8508  -17.1552   19.5444 H   0  0  0  0  0  0
  -27.3297  -22.5485   20.8995 H   0  0  0  0  0  0
  -28.5967  -22.8220   22.0295 H   0  0  0  0  0  0
  -28.4097  -25.3117   21.7977 H   0  0  0  0  0  0
  -27.0354  -24.9798   20.8231 H   0  0  0  0  0  0
  -29.0352  -15.6214   21.0486 H   0  0  0  0  0  0
  -29.3676  -21.3876   19.6504 H   0  0  0  0  0  0
  1 25  1  0  0  0
  1 30  2  0  0  0
  1 82  1  0  0  0
  2  3  1  0  0  0
  2 25  1  0  0  0
  2 84  1  0  0  0
  2 85  1  0  0  0
  3  4  1  0  0  0
  3 86  1  0  0  0
  3 87  1  0  0  0
  4  5  1  0  0  0
  4 88  1  0  0  0
  4 89  1  0  0  0
  5  6  1  0  0  0
  5 26  1  0  0  0
  5 90  1  0  0  0
  6 25  1  0  0  0
  6 91  1  0  0  0
  6 92  1  0  0  0
  7  8  2  0  0  0
  7 26  1  0  0  0
  7 29  1  0  0  0
  8  9  1  0  0  0
  8 22  1  0  0  0
  9 10  1  0  0  0
  9 27  2  0  0  0
 10 11  2  0  0  0
 10 15  1  0  0  0
 11 12  1  0  0  0
 11 93  1  0  0  0
 12 13  2  0  0  0
 12 94  1  0  0  0
 13 14  1  0  0  0
 13 31  1  0  0  0
 14 15  2  0  0  0
 14 95  1  0  0  0
 15 96  1  0  0  0
 16 17  2  0  0  0
 16 21  1  0  0  0
 16 31  1  0  0  0
 17 18  1  0  0  0
 17 97  1  0  0  0
 18 19  2  0  0  0
 18 98  1  0  0  0
 19 20  1  0  0  0
 19 24  1  0  0  0
 20 21  2  0  0  0
 20 99  1  0  0  0
 21 23  1  0  0  0
 22 28  1  0  0  0
 22 32  2  0  0  0
 26 27  1  0  0  0
 28100  1  0  0  0
 28101  1  0  0  0
 29102  1  0  0  0
 29103  1  0  0  0
 33 34  1  0  0  0
 33 66  1  0  0  0
 33 70  2  0  0  0
 34 36  1  0  0  0
 34 59  1  0  0  0
 34104  1  0  0  0
 35 44  2  0  0  0
 35 45  1  0  0  0
 35 68  1  0  0  0
 36 56  1  0  0  0
 36105  1  0  0  0
 37 39  1  0  0  0
 37 47  1  0  0  0
 37 66  1  0  0  0
 37106  1  0  0  0
 38 43  2  0  0  0
 38 46  1  0  0  0
 38 47  1  0  0  0
 39 64  1  0  0  0
 39 67  2  0  0  0
 40 52  1  0  0  0
 40 53  2  0  0  0
 40 58  1  0  0  0
 41107  1  0  0  0
 41108  1  0  0  0
 41109  1  0  0  0
 41 48  1  0  0  0
 42 43  1  0  0  0
 42 66  1  0  0  0
 42110  1  0  0  0
 42111  1  0  0  0
 43 44  1  0  0  0
 44112  1  0  0  0
 45 46  2  0  0  0
 45113  1  0  0  0
 46114  1  0  0  0
 47115  1  0  0  0
 47116  1  0  0  0
 48 56  1  0  0  0
 48 65  1  0  0  0
 48117  1  0  0  0
 49 50  1  0  0  0
 49 53  1  0  0  0
 49 64  1  0  0  0
 49118  1  0  0  0
 50 51  1  0  0  0
 50119  1  0  0  0
 50120  1  0  0  0
 51 52  1  0  0  0
 51121  1  0  0  0
 51122  1  0  0  0
 52123  1  0  0  0
 52124  1  0  0  0
 53 54  1  0  0  0
 54 55  2  0  0  0
 54125  1  0  0  0
 55 57  1  0  0  0
 55126  1  0  0  0
 56 69  2  0  0  0
 57 58  2  0  0  0
 57127  1  0  0  0
 58128  1  0  0  0
 59 60  1  0  0  0
 59 61  1  0  0  0
 59 62  1  0  0  0
 60129  1  0  0  0
 60130  1  0  0  0
 60131  1  0  0  0
 61132  1  0  0  0
 61133  1  0  0  0
 61134  1  0  0  0
 62135  1  0  0  0
 62136  1  0  0  0
 62137  1  0  0  0
 63 65  1  0  0  0
 63138  1  0  0  0
 63139  1  0  0  0
 63140  1  0  0  0
 64141  1  0  0  0
 65142  1  0  0  0
 68 80  1  0  0  0
 71 73  1  0  0  0
 71 75  1  0  0  0
 71143  1  0  0  0
 71144  1  0  0  0
 72 74  1  0  0  0
 72 75  1  0  0  0
 72145  1  0  0  0
 72146  1  0  0  0
 73 83  1  0  0  0
 73147  1  0  0  0
 73148  1  0  0  0
 74 83  1  0  0  0
 74149  1  0  0  0
 74150  1  0  0  0
 75 78  1  0  0  0
 75151  1  0  0  0
 76152  1  0  0  0
 76153  1  0  0  0
 76154  1  0  0  0
 76 81  1  0  0  0
 77 81  1  0  0  0
 77155  1  0  0  0
 77156  1  0  0  0
 77157  1  0  0  0
 78 82  1  0  0  0
 78158  1  0  0  0
 78159  1  0  0  0
 79 81  1  0  0  0
 79160  1  0  0  0
 79161  1  0  0  0
 79 83  1  0  0  0
 80 81  1  0  0  0
 80162  1  0  0  0
 80163  1  0  0  0
 82164  1  0  0  0
 83165  1  0  0  0
M  CHG  1  83   1
M  ISO  4   1 100  68 101  80 101  82 100
M  END
> <chiral flag>
0

> <version>
0

> <s_m_source_file>
/data/baiqing/PycharmProjects/Reinvent-master-3.2/result/LINK_invent/BTK/process_docking_weight1_custom_sum_contain_oxygen_bond_distance_aromatic_linkinvent_7_9_3/rearranged_h_0082.sdf

> <i_m_source_file_index>
57

> <r_mmod_Potential_Energy-OPLS-2005>
-59.3782043457031

> <r_mmod_Stretch_Energy-OPLS-2005>
61.3935699462891

> <r_mmod_Bend_Energy-OPLS-2005>
130.68342590332

> <r_mmod_Torsional_Energy-OPLS-2005>
281.354736328125

> <r_mmod_Improper_Torsional_Energy-OPLS-2005>
4.93109750747681

> <r_mmod_Van_der_Waal_Energy-OPLS-2005>
131.177658081055

> <r_mmod_Electrostatic_Energy-OPLS-2005>
-261.954010009766

> <r_mmod_Solvation_Energy-OPLS-2005>
-441.237152099609

> <b_mmod_Minimization_Converged-OPLS-2005>
0

> <r_mmod_RMS_Derivative-OPLS-2005>
2.77896213531494

$$$$
58
                    3D
 Structure written by MMmdl.
145153  0  0  1  0            999 V2000
  -30.4623  -15.2187   20.3783 C   0  0  0  0  0  0
  -30.4372  -12.7769   19.5213 C   0  0  0  0  0  0
  -29.5318  -12.5654   18.2829 C   0  0  0  0  0  0
  -28.0782  -12.2993   18.7112 C   0  0  0  0  0  0
  -27.6130  -13.2713   19.8244 C   0  0  2  0  0  0
  -28.6484  -13.4317   20.9576 C   0  0  0  0  0  0
  -25.2394  -13.8242   20.5745 C   0  0  0  0  0  0
  -24.1743  -13.0436   20.9259 C   0  0  0  0  0  0
  -24.6394  -11.6932   20.8765 C   0  0  0  0  0  0
  -23.9087  -10.4293   21.0409 C   0  0  0  0  0  0
  -24.3633   -9.4206   21.9185 C   0  0  0  0  0  0
  -23.6306   -8.2242   22.0751 C   0  0  0  0  0  0
  -22.4287   -8.0281   21.3544 C   0  0  0  0  0  0
  -21.9926   -9.0255   20.4644 C   0  0  0  0  0  0
  -22.7258  -10.2134   20.3057 C   0  0  0  0  0  0
  -21.6856   -6.0738   22.5279 C   0  0  0  0  0  0
  -21.4015   -6.5640   23.8211 C   0  0  0  0  0  0
  -21.3660   -5.6793   24.9173 C   0  0  0  0  0  0
  -21.6046   -4.3056   24.7224 C   0  0  0  0  0  0
  -21.8819   -3.8148   23.4345 C   0  0  0  0  0  0
  -21.9195   -4.6965   22.3401 C   0  0  0  0  0  0
  -22.7760  -13.5189   21.1908 C   0  0  0  0  0  0
  -22.1663   -4.2150   21.0980 F   0  0  0  0  0  0
  -21.5630   -3.4539   25.7737 F   0  0  0  0  0  0
  -29.8854  -13.9222   20.3307 N   0  0  0  0  0  0
  -26.2821  -12.9513   20.3227 N   0  0  0  0  0  0
  -25.9330  -11.6620   20.5730 N   0  0  0  0  0  0
  -22.0425  -12.8166   22.0463 N   0  0  0  0  0  0
  -25.4026  -15.1976   20.4167 N   0  0  0  0  0  0
  -31.6833  -15.2156   20.1708 O   0  0  0  0  0  0
  -21.6646   -6.8882   21.4242 O   0  0  0  0  0  0
  -22.3438  -14.5493   20.6753 O   0  0  0  0  0  0
  -24.6611  -31.8263   23.1738 C   0  0  0  0  0  0
  -25.9303  -32.4604   23.8189 C   0  0  1  0  0  0
  -27.2144  -26.9514   20.1779 C   0  0  0  0  0  0
  -25.5982  -33.8417   24.2094 N   0  0  0  0  0  0
  -23.4744  -30.4404   21.5224 C   0  0  2  0  0  0
  -24.9273  -28.8358   20.1115 C   0  0  0  0  0  0
  -22.7656  -29.4458   22.4788 C   0  0  0  0  0  0
  -18.0320  -28.1411   22.8472 C   0  0  0  0  0  0
  -24.1487  -36.7202   23.2646 C   0  0  0  0  0  0
  -26.0432  -30.6407   21.4016 C   0  0  0  0  0  0
  -26.1116  -29.2339   20.7443 C   0  0  0  0  0  0
  -27.2516  -28.3125   20.7545 C   0  0  0  0  0  0
  -26.0013  -26.7062   19.4939 C   0  0  0  0  0  0
  -24.8964  -27.5917   19.4659 C   0  0  0  0  0  0
  -23.7128  -29.7604   20.1473 C   0  0  0  0  0  0
  -25.4128  -36.2972   24.0302 C   0  0  1  0  0  0
  -20.5944  -28.3751   23.1191 C   0  0  2  0  0  0
  -20.6794  -26.9435   22.5401 C   0  0  0  0  0  0
  -19.5767  -26.6383   21.5213 C   0  0  0  0  0  0
  -18.1951  -26.7945   22.1626 C   0  0  0  0  0  0
  -19.1582  -28.8902   23.2820 C   0  0  0  0  0  0
  -18.9494  -30.1491   23.8856 C   0  0  0  0  0  0
  -17.6488  -30.6603   24.0556 C   0  0  0  0  0  0
  -25.9096  -34.9357   23.5015 C   0  0  0  0  0  0
  -16.5377  -29.9090   23.6347 C   0  0  0  0  0  0
  -16.7302  -28.6508   23.0371 C   0  0  0  0  0  0
  -26.4561  -31.6543   25.0709 C   0  0  0  0  0  0
  -25.3697  -31.3792   26.1372 C   0  0  0  0  0  0
  -27.0452  -30.2911   24.6431 C   0  0  0  0  0  0
  -27.6054  -32.4352   25.7510 C   0  0  0  0  0  0
  -27.5565  -37.1756   24.8469 C   0  0  0  0  0  0
  -21.4329  -29.3045   22.3539 N   0  0  0  0  0  0
  -26.4272  -37.3709   23.9413 N   0  0  0  0  0  0
  -24.7474  -30.9952   22.0863 N   0  0  0  0  0  0
  -23.4214  -28.8022   23.3018 O   0  0  0  0  0  0
  -28.2013  -25.8384   20.2589 O   0  0  0  0  0  0
  -26.5699  -34.8888   22.4607 O   0  0  0  0  0  0
  -23.5686  -32.1221   23.6848 O   0  0  0  0  0  0
  -29.0786  -20.5763   21.4575 C   0  0  0  0  0  0
  -28.8793  -21.7837   19.1124 C   0  0  0  0  0  0
  -29.3542  -19.6577   20.3491 C   0  0  0  0  0  0
  -28.6042  -22.7055   20.2146 C   0  0  0  0  0  0
  -30.1316  -18.0935   20.4024 C   0  0  0  0  0  0
  -27.8148  -24.2589   20.0703 C   0  0  0  0  0  0
  -29.2428  -20.4030   19.1717 N   0  0  0  0  0  0
  -28.7086  -21.9599   21.3973 N   0  0  0  0  0  0
  -29.7173  -16.4912   20.4559 N   0  0  0  0  0  0
  -31.4582  -12.9724   19.1909 H   0  0  0  0  0  0
  -30.4931  -11.8677   20.1223 H   0  0  0  0  0  0
  -29.9026  -11.7378   17.6765 H   0  0  0  0  0  0
  -29.5692  -13.4527   17.6490 H   0  0  0  0  0  0
  -28.0275  -11.2735   19.0785 H   0  0  0  0  0  0
  -27.4092  -12.3507   17.8513 H   0  0  0  0  0  0
  -27.5333  -14.2415   19.3328 H   0  0  0  0  0  0
  -28.8059  -12.4945   21.4933 H   0  0  0  0  0  0
  -28.2965  -14.1563   21.6935 H   0  0  0  0  0  0
  -25.2774   -9.5683   22.4764 H   0  0  0  0  0  0
  -24.0015   -7.4630   22.7468 H   0  0  0  0  0  0
  -21.0859   -8.8777   19.8945 H   0  0  0  0  0  0
  -22.3715  -10.9675   19.6168 H   0  0  0  0  0  0
  -21.2004   -7.6147   23.9715 H   0  0  0  0  0  0
  -21.1483   -6.0523   25.9077 H   0  0  0  0  0  0
  -22.0598   -2.7610   23.2845 H   0  0  0  0  0  0
  -22.4064  -11.9834   22.4846 H   0  0  0  0  0  0
  -21.1035  -13.1164   22.2674 H   0  0  0  0  0  0
  -24.6293  -15.8455   20.5234 H   0  0  0  0  0  0
  -26.2401  -15.6384   20.0601 H   0  0  0  0  0  0
  -26.7371  -32.5148   23.0905 H   0  0  0  0  0  0
  -25.0093  -33.9499   25.0219 H   0  0  0  0  0  0
  -22.7864  -31.2716   21.3546 H   0  0  0  0  0  0
  -23.3765  -35.9518   23.3288 H   0  0  0  0  0  0
  -24.3562  -36.8866   22.2065 H   0  0  0  0  0  0
  -23.7231  -37.6380   23.6710 H   0  0  0  0  0  0
  -26.2219  -31.3847   20.6241 H   0  0  0  0  0  0
  -26.9040  -30.6952   22.0562 H   0  0  0  0  0  0
  -28.1459  -28.6136   21.2814 H   0  0  0  0  0  0
  -25.8597  -25.7602   18.9947 H   0  0  0  0  0  0
  -23.9971  -27.2815   18.9511 H   0  0  0  0  0  0
  -23.8668  -30.5304   19.3904 H   0  0  0  0  0  0
  -22.8231  -29.2140   19.8294 H   0  0  0  0  0  0
  -25.1328  -36.1767   25.0793 H   0  0  0  0  0  0
  -21.0034  -28.3356   24.1313 H   0  0  0  0  0  0
  -20.5671  -26.2372   23.3641 H   0  0  0  0  0  0
  -21.6658  -26.7412   22.1209 H   0  0  0  0  0  0
  -19.6923  -25.6284   21.1271 H   0  0  0  0  0  0
  -19.6703  -27.3168   20.6721 H   0  0  0  0  0  0
  -17.4217  -26.6689   21.4032 H   0  0  0  0  0  0
  -18.0348  -26.0100   22.9035 H   0  0  0  0  0  0
  -19.7969  -30.7318   24.2209 H   0  0  0  0  0  0
  -17.5041  -31.6280   24.5163 H   0  0  0  0  0  0
  -15.5376  -30.2980   23.7696 H   0  0  0  0  0  0
  -15.8702  -28.0808   22.7121 H   0  0  0  0  0  0
  -24.5892  -30.7122   25.7691 H   0  0  0  0  0  0
  -24.8872  -32.2994   26.4675 H   0  0  0  0  0  0
  -25.7942  -30.9047   27.0229 H   0  0  0  0  0  0
  -26.3115  -29.6596   24.1409 H   0  0  0  0  0  0
  -27.3955  -29.7267   25.5083 H   0  0  0  0  0  0
  -27.9071  -30.4093   23.9862 H   0  0  0  0  0  0
  -27.2621  -33.3694   26.1966 H   0  0  0  0  0  0
  -28.3930  -32.6849   25.0387 H   0  0  0  0  0  0
  -28.0650  -31.8563   26.5529 H   0  0  0  0  0  0
  -28.2572  -38.0062   24.7518 H   0  0  0  0  0  0
  -28.1073  -36.2592   24.6298 H   0  0  0  0  0  0
  -27.2285  -37.1403   25.8872 H   0  0  0  0  0  0
  -20.9575  -29.8736   21.6675 H   0  0  0  0  0  0
  -26.0121  -38.2765   24.1437 H   0  0  0  0  0  0
  -29.1988  -20.1986   22.4626 H   0  0  0  0  0  0
  -28.7574  -22.1582   18.1064 H   0  0  0  0  0  0
  -30.7971  -18.1934   21.2602 H   0  0  0  0  0  0
  -30.8124  -18.1355   19.5520 H   0  0  0  0  0  0
  -26.9206  -24.1381   20.6823 H   0  0  0  0  0  0
  -27.4448  -24.2174   19.0464 H   0  0  0  0  0  0
  -28.7244  -16.3497   20.5652 H   0  0  0  0  0  0
  1 25  1  0  0  0
  1 30  2  0  0  0
  1 79  1  0  0  0
  2  3  1  0  0  0
  2 25  1  0  0  0
  2 80  1  0  0  0
  2 81  1  0  0  0
  3  4  1  0  0  0
  3 82  1  0  0  0
  3 83  1  0  0  0
  4  5  1  0  0  0
  4 84  1  0  0  0
  4 85  1  0  0  0
  5  6  1  0  0  0
  5 26  1  0  0  0
  5 86  1  0  0  0
  6 25  1  0  0  0
  6 87  1  0  0  0
  6 88  1  0  0  0
  7  8  2  0  0  0
  7 26  1  0  0  0
  7 29  1  0  0  0
  8  9  1  0  0  0
  8 22  1  0  0  0
  9 10  1  0  0  0
  9 27  2  0  0  0
 10 11  2  0  0  0
 10 15  1  0  0  0
 11 12  1  0  0  0
 11 89  1  0  0  0
 12 13  2  0  0  0
 12 90  1  0  0  0
 13 14  1  0  0  0
 13 31  1  0  0  0
 14 15  2  0  0  0
 14 91  1  0  0  0
 15 92  1  0  0  0
 16 17  2  0  0  0
 16 21  1  0  0  0
 16 31  1  0  0  0
 17 18  1  0  0  0
 17 93  1  0  0  0
 18 19  2  0  0  0
 18 94  1  0  0  0
 19 20  1  0  0  0
 19 24  1  0  0  0
 20 21  2  0  0  0
 20 95  1  0  0  0
 21 23  1  0  0  0
 22 28  1  0  0  0
 22 32  2  0  0  0
 26 27  1  0  0  0
 28 96  1  0  0  0
 28 97  1  0  0  0
 29 98  1  0  0  0
 29 99  1  0  0  0
 33 34  1  0  0  0
 33 66  1  0  0  0
 33 70  2  0  0  0
 34 36  1  0  0  0
 34 59  1  0  0  0
 34100  1  0  0  0
 35 44  2  0  0  0
 35 45  1  0  0  0
 35 68  1  0  0  0
 36 56  1  0  0  0
 36101  1  0  0  0
 37 39  1  0  0  0
 37 47  1  0  0  0
 37 66  1  0  0  0
 37102  1  0  0  0
 38 43  2  0  0  0
 38 46  1  0  0  0
 38 47  1  0  0  0
 39 64  1  0  0  0
 39 67  2  0  0  0
 40 52  1  0  0  0
 40 53  2  0  0  0
 40 58  1  0  0  0
 41103  1  0  0  0
 41104  1  0  0  0
 41105  1  0  0  0
 41 48  1  0  0  0
 42 43  1  0  0  0
 42 66  1  0  0  0
 42106  1  0  0  0
 42107  1  0  0  0
 43 44  1  0  0  0
 44108  1  0  0  0
 45 46  2  0  0  0
 45109  1  0  0  0
 46110  1  0  0  0
 47111  1  0  0  0
 47112  1  0  0  0
 48 56  1  0  0  0
 48 65  1  0  0  0
 48113  1  0  0  0
 49 50  1  0  0  0
 49 53  1  0  0  0
 49 64  1  0  0  0
 49114  1  0  0  0
 50 51  1  0  0  0
 50115  1  0  0  0
 50116  1  0  0  0
 51 52  1  0  0  0
 51117  1  0  0  0
 51118  1  0  0  0
 52119  1  0  0  0
 52120  1  0  0  0
 53 54  1  0  0  0
 54 55  2  0  0  0
 54121  1  0  0  0
 55 57  1  0  0  0
 55122  1  0  0  0
 56 69  2  0  0  0
 57 58  2  0  0  0
 57123  1  0  0  0
 58124  1  0  0  0
 59 60  1  0  0  0
 59 61  1  0  0  0
 59 62  1  0  0  0
 60125  1  0  0  0
 60126  1  0  0  0
 60127  1  0  0  0
 61128  1  0  0  0
 61129  1  0  0  0
 61130  1  0  0  0
 62131  1  0  0  0
 62132  1  0  0  0
 62133  1  0  0  0
 63 65  1  0  0  0
 63134  1  0  0  0
 63135  1  0  0  0
 63136  1  0  0  0
 64137  1  0  0  0
 65138  1  0  0  0
 68 76  1  0  0  0
 71 73  2  0  0  0
 71 78  1  0  0  0
 71139  1  0  0  0
 72 74  1  0  0  0
 72 77  2  0  0  0
 72140  1  0  0  0
 73 75  1  0  0  0
 73 77  1  0  0  0
 74 76  1  0  0  0
 74 78  2  0  0  0
 75 79  1  0  0  0
 75141  1  0  0  0
 75142  1  0  0  0
 76143  1  0  0  0
 76144  1  0  0  0
 79145  1  0  0  0
M  ISO  4   1 100  68 101  76 101  79 100
M  END
> <chiral flag>
0

> <version>
0

> <s_m_source_file>
/data/baiqing/PycharmProjects/Reinvent-master-3.2/result/LINK_invent/BTK/process_docking_weight1_custom_sum_contain_oxygen_bond_distance_aromatic_linkinvent_7_9_3/rearranged_h_0082.sdf

> <i_m_source_file_index>
58

> <r_mmod_Potential_Energy-OPLS-2005>
1152.01684570312

> <r_mmod_Stretch_Energy-OPLS-2005>
491.399719238281

> <r_mmod_Bend_Energy-OPLS-2005>
425.907958984375

> <r_mmod_Torsional_Energy-OPLS-2005>
221.702178955078

> <r_mmod_Improper_Torsional_Energy-OPLS-2005>
9.51778602600098

> <r_mmod_Van_der_Waal_Energy-OPLS-2005>
134.639434814453

> <r_mmod_Electrostatic_Energy-OPLS-2005>
-310.6953125

> <r_mmod_Solvation_Energy-OPLS-2005>
-240.205139160156

> <b_mmod_Minimization_Converged-OPLS-2005>
0

> <r_mmod_RMS_Derivative-OPLS-2005>
0.432188928127289

$$$$
59
                    3D
 Structure written by MMmdl.
160168  0  0  1  0            999 V2000
  -30.5083  -14.7610   20.4316 C   0  0  0  0  0  0
  -30.3896  -12.4401   19.4658 C   0  0  0  0  0  0
  -29.4634  -12.4911   18.2285 C   0  0  0  0  0  0
  -27.9944  -12.3081   18.6513 C   0  0  0  0  0  0
  -27.6130  -13.2081   19.8560 C   0  0  2  0  0  0
  -28.6573  -13.1110   20.9859 C   0  0  0  0  0  0
  -25.2363  -13.8132   20.5681 C   0  0  0  0  0  0
  -24.1605  -13.0309   20.9247 C   0  0  0  0  0  0
  -24.6194  -11.6853   20.8805 C   0  0  0  0  0  0
  -23.8878  -10.4194   21.0447 C   0  0  0  0  0  0
  -24.3487   -9.4140   21.9208 C   0  0  0  0  0  0
  -23.6221   -8.2141   22.0744 C   0  0  0  0  0  0
  -22.4223   -8.0167   21.3522 C   0  0  0  0  0  0
  -21.9809   -9.0102   20.4639 C   0  0  0  0  0  0
  -22.7074  -10.2020   20.3073 C   0  0  0  0  0  0
  -21.6837   -6.0644   22.5237 C   0  0  0  0  0  0
  -21.3989   -6.5573   23.8147 C   0  0  0  0  0  0
  -21.3702   -5.6782   24.9146 C   0  0  0  0  0  0
  -21.6069   -4.3046   24.7234 C   0  0  0  0  0  0
  -21.8815   -3.8078   23.4374 C   0  0  0  0  0  0
  -21.9164   -4.6861   22.3401 C   0  0  0  0  0  0
  -22.7699  -13.5168   21.1937 C   0  0  0  0  0  0
  -22.1647   -4.2035   21.1007 F   0  0  0  0  0  0
  -21.5677   -3.4568   25.7770 F   0  0  0  0  0  0
  -29.9451  -13.5040   20.3994 N   0  0  0  0  0  0
  -26.2707  -12.9238   20.3386 N   0  0  0  0  0  0
  -25.9103  -11.6407   20.5856 N   0  0  0  0  0  0
  -22.0428  -12.8018   22.0561 N   0  0  0  0  0  0
  -25.4122  -15.1765   20.3970 N   0  0  0  0  0  0
  -31.6927  -14.9034   20.1032 O   0  0  0  0  0  0
  -21.6629   -6.8751   21.4191 O   0  0  0  0  0  0
  -22.3341  -14.5445   20.6866 O   0  0  0  0  0  0
  -24.6371  -31.8404   23.1880 C   0  0  0  0  0  0
  -25.9057  -32.4660   23.8418 C   0  0  1  0  0  0
  -27.1790  -27.1770   20.0829 C   0  0  0  0  0  0
  -25.5790  -33.8509   24.2317 N   0  0  0  0  0  0
  -23.4431  -30.4856   21.5229 C   0  0  2  0  0  0
  -24.8814  -28.9208   20.1012 C   0  0  0  0  0  0
  -22.7506  -29.4660   22.4629 C   0  0  0  0  0  0
  -18.0345  -28.1167   22.8198 C   0  0  0  0  0  0
  -24.1521  -36.7429   23.2723 C   0  0  0  0  0  0
  -26.0097  -30.7187   21.3968 C   0  0  0  0  0  0
  -26.0633  -29.3450   20.7167 C   0  0  0  0  0  0
  -27.2254  -28.4866   20.6906 C   0  0  0  0  0  0
  -25.9197  -26.8059   19.5706 C   0  0  0  0  0  0
  -24.8185  -27.6609   19.5046 C   0  0  0  0  0  0
  -23.6552  -29.8045   20.1478 C   0  0  0  0  0  0
  -25.4087  -36.3164   24.0422 C   0  0  1  0  0  0
  -20.5946  -28.3636   23.0847 C   0  0  2  0  0  0
  -20.6817  -26.9284   22.5137 C   0  0  0  0  0  0
  -19.5895  -26.6148   21.4904 C   0  0  0  0  0  0
  -18.2067  -26.7642   22.1371 C   0  0  0  0  0  0
  -19.1590  -28.8696   23.2518 C   0  0  0  0  0  0
  -18.9590  -30.1295   23.8537 C   0  0  0  0  0  0
  -17.6624  -30.6372   24.0446 C   0  0  0  0  0  0
  -25.8980  -34.9454   23.5219 C   0  0  0  0  0  0
  -16.5489  -29.8845   23.6313 C   0  0  0  0  0  0
  -16.7342  -28.6301   23.0177 C   0  0  0  0  0  0
  -26.4348  -31.6580   25.0930 C   0  0  0  0  0  0
  -25.3452  -31.3463   26.1528 C   0  0  0  0  0  0
  -27.0362  -30.3026   24.6687 C   0  0  0  0  0  0
  -27.6065  -32.4308   25.7359 C   0  0  0  0  0  0
  -27.5536  -37.1869   24.8398 C   0  0  0  0  0  0
  -21.4222  -29.3090   22.3294 N   0  0  0  0  0  0
  -26.4267  -37.3838   23.9352 N   0  0  0  0  0  0
  -24.7184  -31.0391   22.0862 N   0  0  0  0  0  0
  -23.4134  -28.8144   23.2740 O   0  0  0  0  0  0
  -28.2700  -26.2561   19.9727 O   0  0  0  0  0  0
  -26.5658  -34.8907   22.4861 O   0  0  0  0  0  0
  -23.5497  -32.1234   23.7080 O   0  0  0  0  0  0
  -28.4319  -21.9045   22.0665 C   0  0  0  0  0  0
  -28.3018  -20.8893   22.9908 C   0  0  0  0  0  0
  -28.9218  -19.9375   21.0768 C   0  0  0  0  0  0
  -27.9924  -20.7475   24.4261 C   0  0  0  0  0  0
  -27.6037  -24.9037   17.9321 C   0  0  0  0  0  0
  -29.1714  -18.6225   20.2613 C   0  0  0  0  0  0
  -29.3281  -23.7868   19.5924 C   0  0  0  0  0  0
  -29.1338  -22.1160   19.5647 C   0  0  0  0  0  0
  -30.0296  -17.3496   20.8839 C   0  0  0  0  0  0
  -28.0907  -24.8323   19.4154 C   0  0  1  0  0  0
  -28.8300  -21.3245   20.8587 N   0  0  0  0  0  0
  -28.5361  -19.7396   22.3314 N   0  3  0  0  0  0
  -29.6779  -15.8604   20.6644 N   0  0  0  0  0  0
  -31.4357  -12.5470   19.1823 H   0  0  0  0  0  0
  -30.3082  -11.4626   19.9461 H   0  0  0  0  0  0
  -29.7350  -11.7200   17.5060 H   0  0  0  0  0  0
  -29.5700  -13.4490   17.7182 H   0  0  0  0  0  0
  -27.8503  -11.2598   18.9219 H   0  0  0  0  0  0
  -27.3174  -12.4923   17.8168 H   0  0  0  0  0  0
  -27.6103  -14.2298   19.4836 H   0  0  0  0  0  0
  -28.7047  -12.0874   21.3617 H   0  0  0  0  0  0
  -28.3928  -13.7348   21.8407 H   0  0  0  0  0  0
  -25.2611   -9.5647   22.4810 H   0  0  0  0  0  0
  -23.9947   -7.4524   22.7436 H   0  0  0  0  0  0
  -21.0758   -8.8545   19.8943 H   0  0  0  0  0  0
  -22.3466  -10.9542   19.6195 H   0  0  0  0  0  0
  -21.1973   -7.6082   23.9591 H   0  0  0  0  0  0
  -21.1589   -6.0571   25.9056 H   0  0  0  0  0  0
  -22.0576   -2.7533   23.2918 H   0  0  0  0  0  0
  -22.4167  -11.9629   22.4708 H   0  0  0  0  0  0
  -21.1099  -13.0981   22.3055 H   0  0  0  0  0  0
  -24.6316  -15.8286   20.4139 H   0  0  0  0  0  0
  -26.2363  -15.5603   19.9497 H   0  0  0  0  0  0
  -26.7157  -32.5257   23.1189 H   0  0  0  0  0  0
  -24.9854  -33.9632   25.0420 H   0  0  0  0  0  0
  -22.7614  -31.3242   21.3602 H   0  0  0  0  0  0
  -23.3724  -35.9821   23.3360 H   0  0  0  0  0  0
  -24.3718  -36.9026   22.2160 H   0  0  0  0  0  0
  -23.7346  -37.6692   23.6680 H   0  0  0  0  0  0
  -26.2067  -31.4689   20.6301 H   0  0  0  0  0  0
  -26.8692  -30.7317   22.0586 H   0  0  0  0  0  0
  -28.1493  -28.7915   21.1697 H   0  0  0  0  0  0
  -25.7137  -25.8268   19.1855 H   0  0  0  0  0  0
  -23.9156  -27.3086   19.0273 H   0  0  0  0  0  0
  -23.7079  -30.5477   19.3497 H   0  0  0  0  0  0
  -22.7844  -29.1896   19.9016 H   0  0  0  0  0  0
  -25.1283  -36.2172   25.0941 H   0  0  0  0  0  0
  -21.0123  -28.3264   24.0911 H   0  0  0  0  0  0
  -20.5396  -26.2353   23.3419 H   0  0  0  0  0  0
  -21.6743  -26.7009   22.1197 H   0  0  0  0  0  0
  -19.7161  -25.6016   21.1018 H   0  0  0  0  0  0
  -19.6839  -27.2817   20.6313 H   0  0  0  0  0  0
  -17.4297  -26.6084   21.3853 H   0  0  0  0  0  0
  -18.0736  -25.9740   22.8777 H   0  0  0  0  0  0
  -19.8171  -30.7120   24.1586 H   0  0  0  0  0  0
  -17.5276  -31.5990   24.5176 H   0  0  0  0  0  0
  -15.5507  -30.2732   23.7774 H   0  0  0  0  0  0
  -15.8707  -28.0684   22.6859 H   0  0  0  0  0  0
  -24.5809  -30.6726   25.7634 H   0  0  0  0  0  0
  -24.8333  -32.2370   26.5189 H   0  0  0  0  0  0
  -25.7644  -30.8415   27.0235 H   0  0  0  0  0  0
  -26.3129  -29.6529   24.1777 H   0  0  0  0  0  0
  -27.3976  -29.7652   25.5479 H   0  0  0  0  0  0
  -27.8957  -30.4334   24.0111 H   0  0  0  0  0  0
  -27.3029  -33.3776   26.1771 H   0  0  0  0  0  0
  -28.3583  -32.6512   24.9785 H   0  0  0  0  0  0
  -28.0944  -31.8486   26.5156 H   0  0  0  0  0  0
  -28.2544  -38.0184   24.7502 H   0  0  0  0  0  0
  -28.1017  -36.2732   24.6104 H   0  0  0  0  0  0
  -27.2235  -37.1376   25.8790 H   0  0  0  0  0  0
  -20.9386  -29.9032   21.6700 H   0  0  0  0  0  0
  -26.0212  -38.2965   24.1257 H   0  0  0  0  0  0
  -28.2732  -22.9699   22.2513 H   0  0  0  0  0  0
  -27.2475  -19.9473   24.5427 H   0  0  0  0  0  0
  -27.6260  -21.6901   24.8283 H   0  0  0  0  0  0
  -28.9178  -20.4341   24.9238 H   0  0  0  0  0  0
  -26.8310  -24.1470   17.7477 H   0  0  0  0  0  0
  -28.3722  -24.8016   17.1726 H   0  0  0  0  0  0
  -27.1550  -25.8651   17.6800 H   0  0  0  0  0  0
  -29.6513  -18.9929   19.3567 H   0  0  0  0  0  0
  -28.1492  -18.3230   20.0077 H   0  0  0  0  0  0
  -30.0914  -24.0686   18.7895 H   0  0  0  0  0  0
  -29.7906  -24.0604   20.5841 H   0  0  0  0  0  0
  -30.1902  -21.8445   19.4659 H   0  0  0  0  0  0
  -28.7502  -21.5351   18.6772 H   0  0  0  0  0  0
  -30.1153  -17.4476   21.9710 H   0  0  0  0  0  0
  -31.0503  -17.4843   20.5252 H   0  0  0  0  0  0
  -27.2604  -24.3398   19.9243 H   0  0  0  0  0  0
  -28.4147  -18.8334   22.7622 H   0  0  0  0  0  0
  -28.7172  -15.6123   20.8755 H   0  0  0  0  0  0
  1 25  1  0  0  0
  1 30  2  0  0  0
  1 83  1  0  0  0
  2  3  1  0  0  0
  2 25  1  0  0  0
  2 84  1  0  0  0
  2 85  1  0  0  0
  3  4  1  0  0  0
  3 86  1  0  0  0
  3 87  1  0  0  0
  4  5  1  0  0  0
  4 88  1  0  0  0
  4 89  1  0  0  0
  5  6  1  0  0  0
  5 26  1  0  0  0
  5 90  1  0  0  0
  6 25  1  0  0  0
  6 91  1  0  0  0
  6 92  1  0  0  0
  7  8  2  0  0  0
  7 26  1  0  0  0
  7 29  1  0  0  0
  8  9  1  0  0  0
  8 22  1  0  0  0
  9 10  1  0  0  0
  9 27  2  0  0  0
 10 11  2  0  0  0
 10 15  1  0  0  0
 11 12  1  0  0  0
 11 93  1  0  0  0
 12 13  2  0  0  0
 12 94  1  0  0  0
 13 14  1  0  0  0
 13 31  1  0  0  0
 14 15  2  0  0  0
 14 95  1  0  0  0
 15 96  1  0  0  0
 16 17  2  0  0  0
 16 21  1  0  0  0
 16 31  1  0  0  0
 17 18  1  0  0  0
 17 97  1  0  0  0
 18 19  2  0  0  0
 18 98  1  0  0  0
 19 20  1  0  0  0
 19 24  1  0  0  0
 20 21  2  0  0  0
 20 99  1  0  0  0
 21 23  1  0  0  0
 22 28  1  0  0  0
 22 32  2  0  0  0
 26 27  1  0  0  0
 28100  1  0  0  0
 28101  1  0  0  0
 29102  1  0  0  0
 29103  1  0  0  0
 33 34  1  0  0  0
 33 66  1  0  0  0
 33 70  2  0  0  0
 34 36  1  0  0  0
 34 59  1  0  0  0
 34104  1  0  0  0
 35 44  2  0  0  0
 35 45  1  0  0  0
 35 68  1  0  0  0
 36 56  1  0  0  0
 36105  1  0  0  0
 37 39  1  0  0  0
 37 47  1  0  0  0
 37 66  1  0  0  0
 37106  1  0  0  0
 38 43  2  0  0  0
 38 46  1  0  0  0
 38 47  1  0  0  0
 39 64  1  0  0  0
 39 67  2  0  0  0
 40 52  1  0  0  0
 40 53  2  0  0  0
 40 58  1  0  0  0
 41107  1  0  0  0
 41108  1  0  0  0
 41109  1  0  0  0
 41 48  1  0  0  0
 42 43  1  0  0  0
 42 66  1  0  0  0
 42110  1  0  0  0
 42111  1  0  0  0
 43 44  1  0  0  0
 44112  1  0  0  0
 45 46  2  0  0  0
 45113  1  0  0  0
 46114  1  0  0  0
 47115  1  0  0  0
 47116  1  0  0  0
 48 56  1  0  0  0
 48 65  1  0  0  0
 48117  1  0  0  0
 49 50  1  0  0  0
 49 53  1  0  0  0
 49 64  1  0  0  0
 49118  1  0  0  0
 50 51  1  0  0  0
 50119  1  0  0  0
 50120  1  0  0  0
 51 52  1  0  0  0
 51121  1  0  0  0
 51122  1  0  0  0
 52123  1  0  0  0
 52124  1  0  0  0
 53 54  1  0  0  0
 54 55  2  0  0  0
 54125  1  0  0  0
 55 57  1  0  0  0
 55126  1  0  0  0
 56 69  2  0  0  0
 57 58  2  0  0  0
 57127  1  0  0  0
 58128  1  0  0  0
 59 60  1  0  0  0
 59 61  1  0  0  0
 59 62  1  0  0  0
 60129  1  0  0  0
 60130  1  0  0  0
 60131  1  0  0  0
 61132  1  0  0  0
 61133  1  0  0  0
 61134  1  0  0  0
 62135  1  0  0  0
 62136  1  0  0  0
 62137  1  0  0  0
 63 65  1  0  0  0
 63138  1  0  0  0
 63139  1  0  0  0
 63140  1  0  0  0
 64141  1  0  0  0
 65142  1  0  0  0
 68 80  1  0  0  0
 71 72  2  0  0  0
 71 81  1  0  0  0
 71143  1  0  0  0
 72 74  1  0  0  0
 72 82  1  0  0  0
 73 76  1  0  0  0
 73 81  1  0  0  0
 73 82  2  0  0  0
 74144  1  0  0  0
 74145  1  0  0  0
 74146  1  0  0  0
 75147  1  0  0  0
 75148  1  0  0  0
 75149  1  0  0  0
 75 80  1  0  0  0
 76 79  1  0  0  0
 76150  1  0  0  0
 76151  1  0  0  0
 77 78  1  0  0  0
 77 80  1  0  0  0
 77152  1  0  0  0
 77153  1  0  0  0
 78 81  1  0  0  0
 78154  1  0  0  0
 78155  1  0  0  0
 79 83  1  0  0  0
 79156  1  0  0  0
 79157  1  0  0  0
 80158  1  0  0  0
 82159  1  0  0  0
 83160  1  0  0  0
M  CHG  1  82   1
M  ISO  4   1 100  68 101  80 101  83 100
M  END
> <chiral flag>
0

> <version>
0

> <s_m_source_file>
/data/baiqing/PycharmProjects/Reinvent-master-3.2/result/LINK_invent/BTK/process_docking_weight1_custom_sum_contain_oxygen_bond_distance_aromatic_linkinvent_7_9_3/rearranged_h_0082.sdf

> <i_m_source_file_index>
59

> <r_mmod_Potential_Energy-OPLS-2005>
315.001892089844

> <r_mmod_Stretch_Energy-OPLS-2005>
192.513320922852

> <r_mmod_Bend_Energy-OPLS-2005>
252.297561645508

> <r_mmod_Torsional_Energy-OPLS-2005>
245.572998046875

> <r_mmod_Improper_Torsional_Energy-OPLS-2005>
5.67551469802856

> <r_mmod_Van_der_Waal_Energy-OPLS-2005>
130.857894897461

> <r_mmod_Electrostatic_Energy-OPLS-2005>
-203.686981201172

> <r_mmod_Solvation_Energy-OPLS-2005>
-430.963928222656

> <b_mmod_Minimization_Converged-OPLS-2005>
0

> <r_mmod_RMS_Derivative-OPLS-2005>
33.0139541625977

$$$$
60
                    3D
 Structure written by MMmdl.
170178  0  0  1  0            999 V2000
  -30.8616  -14.4907   20.5296 C   0  0  0  0  0  0
  -30.3564  -12.3046   19.5043 C   0  0  0  0  0  0
  -29.4921  -12.4655   18.2421 C   0  0  0  0  0  0
  -28.0152  -12.3341   18.6341 C   0  0  0  0  0  0
  -27.6417  -13.2359   19.8387 C   0  0  2  0  0  0
  -28.6705  -13.1835   20.9868 C   0  0  0  0  0  0
  -25.2543  -13.8233   20.5689 C   0  0  0  0  0  0
  -24.1826  -13.0460   20.9170 C   0  0  0  0  0  0
  -24.6421  -11.6935   20.8737 C   0  0  0  0  0  0
  -23.9101  -10.4295   21.0409 C   0  0  0  0  0  0
  -24.3646   -9.4214   21.9184 C   0  0  0  0  0  0
  -23.6309   -8.2257   22.0761 C   0  0  0  0  0  0
  -22.4287   -8.0292   21.3551 C   0  0  0  0  0  0
  -21.9930   -9.0276   20.4663 C   0  0  0  0  0  0
  -22.7273  -10.2149   20.3075 C   0  0  0  0  0  0
  -21.6858   -6.0748   22.5270 C   0  0  0  0  0  0
  -21.4030   -6.5653   23.8206 C   0  0  0  0  0  0
  -21.3662   -5.6799   24.9162 C   0  0  0  0  0  0
  -21.6038   -4.3060   24.7210 C   0  0  0  0  0  0
  -21.8826   -3.8159   23.4331 C   0  0  0  0  0  0
  -21.9202   -4.6977   22.3395 C   0  0  0  0  0  0
  -22.7855  -13.5252   21.1821 C   0  0  0  0  0  0
  -22.1671   -4.2166   21.0974 F   0  0  0  0  0  0
  -21.5604   -3.4546   25.7724 F   0  0  0  0  0  0
  -30.0175  -13.4071   20.4448 N   0  0  0  0  0  0
  -26.2940  -12.9445   20.3220 N   0  0  0  0  0  0
  -25.9350  -11.6573   20.5715 N   0  0  0  0  0  0
  -22.0536  -12.8256   22.0417 N   0  0  0  0  0  0
  -25.4279  -15.1951   20.4190 N   0  0  0  0  0  0
  -31.9669  -14.3682   20.0014 O   0  0  0  0  0  0
  -21.6650   -6.8894   21.4231 O   0  0  0  0  0  0
  -22.3539  -14.5538   20.6644 O   0  0  0  0  0  0
  -24.6216  -31.8704   23.2111 C   0  0  0  0  0  0
  -25.9104  -32.4822   23.8408 C   0  0  1  0  0  0
  -27.1370  -27.3241   20.1099 C   0  0  0  0  0  0
  -25.5934  -33.8619   24.2342 N   0  0  0  0  0  0
  -23.4069  -30.5108   21.5547 C   0  0  2  0  0  0
  -24.8350  -28.9960   20.0971 C   0  0  0  0  0  0
  -22.7443  -29.4709   22.4920 C   0  0  0  0  0  0
  -18.0300  -28.1377   22.8534 C   0  0  0  0  0  0
  -24.1454  -36.7305   23.2642 C   0  0  0  0  0  0
  -25.9509  -30.8081   21.3749 C   0  0  0  0  0  0
  -26.0109  -29.4406   20.7155 C   0  0  0  0  0  0
  -27.1702  -28.6100   20.7292 C   0  0  0  0  0  0
  -25.9654  -26.9874   19.3923 C   0  0  0  0  0  0
  -24.8122  -27.7745   19.4282 C   0  0  0  0  0  0
  -23.6091  -29.8739   20.1587 C   0  0  0  0  0  0
  -25.4072  -36.3112   24.0361 C   0  0  1  0  0  0
  -20.5920  -28.3673   23.1290 C   0  0  2  0  0  0
  -20.6768  -26.9411   22.5401 C   0  0  0  0  0  0
  -19.5731  -26.6381   21.5222 C   0  0  0  0  0  0
  -18.1918  -26.7930   22.1658 C   0  0  0  0  0  0
  -19.1547  -28.8850   23.2918 C   0  0  0  0  0  0
  -18.9484  -30.1458   23.8921 C   0  0  0  0  0  0
  -17.6484  -30.6587   24.0589 C   0  0  0  0  0  0
  -25.9026  -34.9487   23.5150 C   0  0  0  0  0  0
  -16.5382  -29.9099   23.6337 C   0  0  0  0  0  0
  -16.7285  -28.6517   23.0365 C   0  0  0  0  0  0
  -26.4482  -31.6597   25.0749 C   0  0  0  0  0  0
  -25.3751  -31.3717   26.1518 C   0  0  0  0  0  0
  -27.0296  -30.3020   24.6132 C   0  0  0  0  0  0
  -27.6059  -32.4304   25.7516 C   0  0  0  0  0  0
  -27.5554  -37.1804   24.8491 C   0  0  0  0  0  0
  -21.4173  -29.3059   22.3673 N   0  0  0  0  0  0
  -26.4264  -37.3809   23.9454 N   0  0  0  0  0  0
  -24.6798  -31.0791   22.1017 N   0  0  0  0  0  0
  -23.4234  -28.8204   23.2909 O   0  0  0  0  0  0
  -28.1726  -26.3830   20.2382 O   0  0  0  0  0  0
  -26.5595  -34.8966   22.4697 O   0  0  0  0  0  0
  -23.5414  -32.1448   23.7510 O   0  0  0  0  0  0
  -28.8809  -20.2650   21.0892 C   0  0  0  0  0  0
  -27.7043  -21.0663   20.9786 C   0  0  0  0  0  0
  -28.6232  -19.1138   21.7933 C   0  0  0  0  0  0
  -26.7151  -20.3261   21.5928 C   0  0  0  0  0  0
  -25.2420  -20.5767   21.7584 C   0  0  0  0  0  0
  -29.4143  -15.7321   23.3044 C   0  0  0  0  0  0
  -32.0041  -16.1801   21.9388 C   0  0  0  0  0  0
  -30.7659  -16.8676   19.8043 C   0  0  0  0  0  0
  -26.5780  -18.1722   22.9493 C   0  0  0  0  0  0
  -27.5647  -22.4151   20.2324 C   0  0  0  0  0  0
  -29.6011  -18.0655   22.3052 C   0  0  0  0  0  0
  -28.2584  -23.7240   20.7877 C   0  0  0  0  0  0
  -27.7825  -24.9786   19.9683 C   0  0  0  0  0  0
  -29.4913  -16.5031   21.9592 C   0  0  1  0  0  0
  -30.7020  -15.9763   21.0874 C   0  0  0  0  0  0
  -27.2779  -19.1621   22.1280 N   0  0  0  0  0  0
  -31.4064  -12.2474   19.2148 H   0  0  0  0  0  0
  -30.1559  -11.3418   19.9762 H   0  0  0  0  0  0
  -29.7502  -11.6994   17.5082 H   0  0  0  0  0  0
  -29.6803  -13.4308   17.7697 H   0  0  0  0  0  0
  -27.8405  -11.2842   18.8785 H   0  0  0  0  0  0
  -27.3718  -12.5578   17.7822 H   0  0  0  0  0  0
  -27.6444  -14.2588   19.4594 H   0  0  0  0  0  0
  -28.6285  -12.2281   21.5121 H   0  0  0  0  0  0
  -28.3772  -13.9423   21.7017 H   0  0  0  0  0  0
  -25.2800   -9.5663   22.4746 H   0  0  0  0  0  0
  -23.9997   -7.4650   22.7493 H   0  0  0  0  0  0
  -21.0855   -8.8832   19.8982 H   0  0  0  0  0  0
  -22.3755  -10.9693   19.6190 H   0  0  0  0  0  0
  -21.2054   -7.6168   23.9721 H   0  0  0  0  0  0
  -21.1458   -6.0521   25.9065 H   0  0  0  0  0  0
  -22.0612   -2.7623   23.2820 H   0  0  0  0  0  0
  -22.4167  -11.9937   22.4803 H   0  0  0  0  0  0
  -21.1174  -13.1273   22.2679 H   0  0  0  0  0  0
  -24.6705  -15.8550   20.5491 H   0  0  0  0  0  0
  -26.2863  -15.6341   20.1122 H   0  0  0  0  0  0
  -26.7175  -32.5524   23.1172 H   0  0  0  0  0  0
  -25.0149  -33.9746   25.0531 H   0  0  0  0  0  0
  -22.6969  -31.3306   21.4290 H   0  0  0  0  0  0
  -23.3732  -35.9626   23.3313 H   0  0  0  0  0  0
  -24.3565  -36.8878   22.2054 H   0  0  0  0  0  0
  -23.7180  -37.6500   23.6625 H   0  0  0  0  0  0
  -26.0758  -31.5702   20.6059 H   0  0  0  0  0  0
  -26.8387  -30.8512   21.9963 H   0  0  0  0  0  0
  -28.0566  -28.9312   21.2563 H   0  0  0  0  0  0
  -25.8610  -26.0882   18.8043 H   0  0  0  0  0  0
  -23.9185  -27.4360   18.9220 H   0  0  0  0  0  0
  -23.7290  -30.6582   19.4102 H   0  0  0  0  0  0
  -22.7246  -29.3121   19.8505 H   0  0  0  0  0  0
  -25.1230  -36.1969   25.0857 H   0  0  0  0  0  0
  -21.0055  -28.3256   24.1391 H   0  0  0  0  0  0
  -20.5633  -26.2324   23.3615 H   0  0  0  0  0  0
  -21.6636  -26.7402   22.1217 H   0  0  0  0  0  0
  -19.6854  -25.6293   21.1219 H   0  0  0  0  0  0
  -19.6611  -27.3232   20.6784 H   0  0  0  0  0  0
  -17.4168  -26.6726   21.4055 H   0  0  0  0  0  0
  -18.0316  -26.0044   22.9032 H   0  0  0  0  0  0
  -19.7950  -30.7293   24.2256 H   0  0  0  0  0  0
  -17.5028  -31.6266   24.5193 H   0  0  0  0  0  0
  -15.5374  -30.3016   23.7591 H   0  0  0  0  0  0
  -15.8707  -28.0825   22.7058 H   0  0  0  0  0  0
  -24.5948  -30.7007   25.7896 H   0  0  0  0  0  0
  -24.8924  -32.2882   26.4891 H   0  0  0  0  0  0
  -25.8140  -30.8963   27.0310 H   0  0  0  0  0  0
  -26.2845  -29.6794   24.1159 H   0  0  0  0  0  0
  -27.3983  -29.7233   25.4601 H   0  0  0  0  0  0
  -27.8747  -30.4291   23.9388 H   0  0  0  0  0  0
  -27.2676  -33.3603   26.2103 H   0  0  0  0  0  0
  -28.3898  -32.6801   25.0359 H   0  0  0  0  0  0
  -28.0714  -31.8409   26.5417 H   0  0  0  0  0  0
  -28.2613  -38.0063   24.7556 H   0  0  0  0  0  0
  -28.0999  -36.2605   24.6285 H   0  0  0  0  0  0
  -27.2330  -37.1481   25.8914 H   0  0  0  0  0  0
  -20.9290  -29.8841   21.6992 H   0  0  0  0  0  0
  -26.0137  -38.2886   24.1433 H   0  0  0  0  0  0
  -29.8553  -20.5289   20.7046 H   0  0  0  0  0  0
  -24.9775  -20.6960   22.8095 H   0  0  0  0  0  0
  -24.6677  -19.7351   21.3662 H   0  0  0  0  0  0
  -24.8974  -21.4575   21.2196 H   0  0  0  0  0  0
  -28.4504  -15.8672   23.7915 H   0  0  0  0  0  0
  -30.1700  -16.0809   24.0088 H   0  0  0  0  0  0
  -29.5999  -14.6672   23.2030 H   0  0  0  0  0  0
  -32.0189  -17.0637   22.5675 H   0  0  0  0  0  0
  -32.9001  -16.2426   21.3201 H   0  0  0  0  0  0
  -32.1499  -15.3414   22.6231 H   0  0  0  0  0  0
  -31.0666  -17.8934   20.0056 H   0  0  0  0  0  0
  -29.7975  -16.9012   19.3035 H   0  0  0  0  0  0
  -31.4749  -16.5161   19.0531 H   0  0  0  0  0  0
  -26.9187  -17.1629   22.7328 H   0  0  0  0  0  0
  -25.5059  -18.1798   22.7641 H   0  0  0  0  0  0
  -26.7487  -18.3843   24.0061 H   0  0  0  0  0  0
  -26.4987  -22.6041   20.1218 H   0  0  0  0  0  0
  -27.9253  -22.2536   19.2149 H   0  0  0  0  0  0
  -29.6456  -18.1884   23.3872 H   0  0  0  0  0  0
  -30.5742  -18.4435   22.0097 H   0  0  0  0  0  0
  -29.3428  -23.6322   20.7768 H   0  0  0  0  0  0
  -27.9648  -23.8653   21.8259 H   0  0  0  0  0  0
  -26.7197  -24.8501   20.1653 H   0  0  0  0  0  0
  -27.9419  -24.7952   18.9044 H   0  0  0  0  0  0
  -28.5738  -16.3268   21.3981 H   0  0  0  0  0  0
  1 25  1  0  0  0
  1 30  2  0  0  0
  1 85  1  0  0  0
  2  3  1  0  0  0
  2 25  1  0  0  0
  2 87  1  0  0  0
  2 88  1  0  0  0
  3  4  1  0  0  0
  3 89  1  0  0  0
  3 90  1  0  0  0
  4  5  1  0  0  0
  4 91  1  0  0  0
  4 92  1  0  0  0
  5  6  1  0  0  0
  5 26  1  0  0  0
  5 93  1  0  0  0
  6 25  1  0  0  0
  6 94  1  0  0  0
  6 95  1  0  0  0
  7  8  2  0  0  0
  7 26  1  0  0  0
  7 29  1  0  0  0
  8  9  1  0  0  0
  8 22  1  0  0  0
  9 10  1  0  0  0
  9 27  2  0  0  0
 10 11  2  0  0  0
 10 15  1  0  0  0
 11 12  1  0  0  0
 11 96  1  0  0  0
 12 13  2  0  0  0
 12 97  1  0  0  0
 13 14  1  0  0  0
 13 31  1  0  0  0
 14 15  2  0  0  0
 14 98  1  0  0  0
 15 99  1  0  0  0
 16 17  2  0  0  0
 16 21  1  0  0  0
 16 31  1  0  0  0
 17 18  1  0  0  0
 17100  1  0  0  0
 18 19  2  0  0  0
 18101  1  0  0  0
 19 20  1  0  0  0
 19 24  1  0  0  0
 20 21  2  0  0  0
 20102  1  0  0  0
 21 23  1  0  0  0
 22 28  1  0  0  0
 22 32  2  0  0  0
 26 27  1  0  0  0
 28103  1  0  0  0
 28104  1  0  0  0
 29105  1  0  0  0
 29106  1  0  0  0
 33 34  1  0  0  0
 33 66  1  0  0  0
 33 70  2  0  0  0
 34 36  1  0  0  0
 34 59  1  0  0  0
 34107  1  0  0  0
 35 44  2  0  0  0
 35 45  1  0  0  0
 35 68  1  0  0  0
 36 56  1  0  0  0
 36108  1  0  0  0
 37 39  1  0  0  0
 37 47  1  0  0  0
 37 66  1  0  0  0
 37109  1  0  0  0
 38 43  2  0  0  0
 38 46  1  0  0  0
 38 47  1  0  0  0
 39 64  1  0  0  0
 39 67  2  0  0  0
 40 52  1  0  0  0
 40 53  2  0  0  0
 40 58  1  0  0  0
 41110  1  0  0  0
 41111  1  0  0  0
 41112  1  0  0  0
 41 48  1  0  0  0
 42 43  1  0  0  0
 42 66  1  0  0  0
 42113  1  0  0  0
 42114  1  0  0  0
 43 44  1  0  0  0
 44115  1  0  0  0
 45 46  2  0  0  0
 45116  1  0  0  0
 46117  1  0  0  0
 47118  1  0  0  0
 47119  1  0  0  0
 48 56  1  0  0  0
 48 65  1  0  0  0
 48120  1  0  0  0
 49 50  1  0  0  0
 49 53  1  0  0  0
 49 64  1  0  0  0
 49121  1  0  0  0
 50 51  1  0  0  0
 50122  1  0  0  0
 50123  1  0  0  0
 51 52  1  0  0  0
 51124  1  0  0  0
 51125  1  0  0  0
 52126  1  0  0  0
 52127  1  0  0  0
 53 54  1  0  0  0
 54 55  2  0  0  0
 54128  1  0  0  0
 55 57  1  0  0  0
 55129  1  0  0  0
 56 69  2  0  0  0
 57 58  2  0  0  0
 57130  1  0  0  0
 58131  1  0  0  0
 59 60  1  0  0  0
 59 61  1  0  0  0
 59 62  1  0  0  0
 60132  1  0  0  0
 60133  1  0  0  0
 60134  1  0  0  0
 61135  1  0  0  0
 61136  1  0  0  0
 61137  1  0  0  0
 62138  1  0  0  0
 62139  1  0  0  0
 62140  1  0  0  0
 63 65  1  0  0  0
 63141  1  0  0  0
 63142  1  0  0  0
 63143  1  0  0  0
 64144  1  0  0  0
 65145  1  0  0  0
 68 83  1  0  0  0
 71 72  1  0  0  0
 71 73  2  0  0  0
 71146  1  0  0  0
 72 74  2  0  0  0
 72 80  1  0  0  0
 73 81  1  0  0  0
 73 86  1  0  0  0
 74 75  1  0  0  0
 74 86  1  0  0  0
 75147  1  0  0  0
 75148  1  0  0  0
 75149  1  0  0  0
 76150  1  0  0  0
 76151  1  0  0  0
 76152  1  0  0  0
 76 84  1  0  0  0
 77153  1  0  0  0
 77154  1  0  0  0
 77155  1  0  0  0
 77 85  1  0  0  0
 78 85  1  0  0  0
 78156  1  0  0  0
 78157  1  0  0  0
 78158  1  0  0  0
 79 86  1  0  0  0
 79159  1  0  0  0
 79160  1  0  0  0
 79161  1  0  0  0
 80 82  1  0  0  0
 80162  1  0  0  0
 80163  1  0  0  0
 81 84  1  0  0  0
 81164  1  0  0  0
 81165  1  0  0  0
 82 83  1  0  0  0
 82166  1  0  0  0
 82167  1  0  0  0
 83168  1  0  0  0
 83169  1  0  0  0
 84 85  1  0  0  0
 84170  1  0  0  0
M  ISO  4   1 100  68 101  83 101  85 100
M  END
> <chiral flag>
0

> <version>
0

> <s_m_source_file>
/data/baiqing/PycharmProjects/Reinvent-master-3.2/result/LINK_invent/BTK/process_docking_weight1_custom_sum_contain_oxygen_bond_distance_aromatic_linkinvent_7_9_3/rearranged_h_0082.sdf

> <i_m_source_file_index>
60

> <r_mmod_Potential_Energy-OPLS-2005>
231.673568725586

> <r_mmod_Stretch_Energy-OPLS-2005>
76.7100524902344

> <r_mmod_Bend_Energy-OPLS-2005>
231.104049682617

> <r_mmod_Torsional_Energy-OPLS-2005>
205.656280517578

> <r_mmod_Improper_Torsional_Energy-OPLS-2005>
3.19566321372986

> <r_mmod_Van_der_Waal_Energy-OPLS-2005>
171.637741088867

> <r_mmod_Electrostatic_Energy-OPLS-2005>
-346.021789550781

> <r_mmod_Solvation_Energy-OPLS-2005>
-183.88606262207

> <b_mmod_Minimization_Converged-OPLS-2005>
0

> <r_mmod_RMS_Derivative-OPLS-2005>
5.83989572525024

$$$$
61
                    3D
 Structure written by MMmdl.
170178  0  0  1  0            999 V2000
  -30.8032  -14.3956   20.6907 C   0  0  0  0  0  0
  -30.4203  -12.3059   19.4194 C   0  0  0  0  0  0
  -29.4922  -12.5285   18.2100 C   0  0  0  0  0  0
  -28.0187  -12.3679   18.6197 C   0  0  0  0  0  0
  -27.6683  -13.2060   19.8732 C   0  0  2  0  0  0
  -28.7029  -12.9844   20.9955 C   0  0  0  0  0  0
  -25.2637  -13.8180   20.5675 C   0  0  0  0  0  0
  -24.1882  -13.0465   20.9174 C   0  0  0  0  0  0
  -24.6437  -11.6928   20.8745 C   0  0  0  0  0  0
  -23.9109  -10.4313   21.0418 C   0  0  0  0  0  0
  -24.3649   -9.4225   21.9200 C   0  0  0  0  0  0
  -23.6317   -8.2266   22.0773 C   0  0  0  0  0  0
  -22.4293   -8.0315   21.3566 C   0  0  0  0  0  0
  -21.9942   -9.0298   20.4664 C   0  0  0  0  0  0
  -22.7286  -10.2164   20.3069 C   0  0  0  0  0  0
  -21.6860   -6.0772   22.5307 C   0  0  0  0  0  0
  -21.4007   -6.5661   23.8247 C   0  0  0  0  0  0
  -21.3648   -5.6803   24.9203 C   0  0  0  0  0  0
  -21.6041   -4.3071   24.7236 C   0  0  0  0  0  0
  -21.8817   -3.8174   23.4354 C   0  0  0  0  0  0
  -21.9194   -4.7000   22.3419 C   0  0  0  0  0  0
  -22.7902  -13.5267   21.1846 C   0  0  0  0  0  0
  -22.1664   -4.2190   21.0990 F   0  0  0  0  0  0
  -21.5629   -3.4544   25.7739 F   0  0  0  0  0  0
  -30.0584  -13.2660   20.4770 N   0  0  0  0  0  0
  -26.3077  -12.9343   20.3365 N   0  0  0  0  0  0
  -25.9358  -11.6505   20.5772 N   0  0  0  0  0  0
  -22.0513  -12.8271   22.0376 N   0  0  0  0  0  0
  -25.4365  -15.1904   20.4089 N   0  0  0  0  0  0
  -31.7689  -14.6835   19.9776 O   0  0  0  0  0  0
  -21.6646   -6.8915   21.4269 O   0  0  0  0  0  0
  -22.3606  -14.5586   20.6708 O   0  0  0  0  0  0
  -24.6132  -31.8719   23.2145 C   0  0  0  0  0  0
  -25.9050  -32.4819   23.8426 C   0  0  1  0  0  0
  -27.2247  -27.4322   20.0841 C   0  0  0  0  0  0
  -25.5920  -33.8621   24.2344 N   0  0  0  0  0  0
  -23.3980  -30.5002   21.5551 C   0  0  2  0  0  0
  -24.8411  -28.9746   20.1149 C   0  0  0  0  0  0
  -22.7412  -29.4686   22.4996 C   0  0  0  0  0  0
  -18.0281  -28.1370   22.8465 C   0  0  0  0  0  0
  -24.1480  -36.7296   23.2635 C   0  0  0  0  0  0
  -25.9337  -30.8330   21.3738 C   0  0  0  0  0  0
  -26.0060  -29.4732   20.7096 C   0  0  0  0  0  0
  -27.1992  -28.7108   20.6923 C   0  0  0  0  0  0
  -26.0306  -26.9583   19.4812 C   0  0  0  0  0  0
  -24.8484  -27.7140   19.5025 C   0  0  0  0  0  0
  -23.6040  -29.8409   20.1675 C   0  0  0  0  0  0
  -25.4110  -36.3099   24.0325 C   0  0  1  0  0  0
  -20.5874  -28.3665   23.1308 C   0  0  2  0  0  0
  -20.6777  -26.9397   22.5413 C   0  0  0  0  0  0
  -19.5757  -26.6369   21.5208 C   0  0  0  0  0  0
  -18.1929  -26.7909   22.1605 C   0  0  0  0  0  0
  -19.1531  -28.8835   23.2869 C   0  0  0  0  0  0
  -18.9467  -30.1449   23.8876 C   0  0  0  0  0  0
  -17.6467  -30.6577   24.0562 C   0  0  0  0  0  0
  -25.9052  -34.9468   23.5120 C   0  0  0  0  0  0
  -16.5361  -29.9069   23.6342 C   0  0  0  0  0  0
  -16.7274  -28.6499   23.0338 C   0  0  0  0  0  0
  -26.4472  -31.6609   25.0758 C   0  0  0  0  0  0
  -25.3726  -31.3731   26.1498 C   0  0  0  0  0  0
  -27.0341  -30.3049   24.6190 C   0  0  0  0  0  0
  -27.6055  -32.4341   25.7503 C   0  0  0  0  0  0
  -27.5575  -37.1798   24.8464 C   0  0  0  0  0  0
  -21.4147  -29.3032   22.3731 N   0  0  0  0  0  0
  -26.4295  -37.3788   23.9403 N   0  0  0  0  0  0
  -24.6662  -31.0822   22.1038 N   0  0  0  0  0  0
  -23.4202  -28.8232   23.3020 O   0  0  0  0  0  0
  -28.3924  -26.6862   20.1207 O   0  0  0  0  0  0
  -26.5599  -34.8901   22.4677 O   0  0  0  0  0  0
  -23.5336  -32.1493   23.7534 O   0  0  0  0  0  0
  -30.6183  -24.2670   19.4086 C   0  0  0  0  0  0
  -30.0424  -22.6632   21.5567 C   0  0  0  0  0  0
  -31.5587  -23.2800   19.7774 C   0  0  0  0  0  0
  -31.2529  -22.4329   20.8755 C   0  0  0  0  0  0
  -29.4235  -24.3956   20.1414 C   0  0  0  0  0  0
  -32.8400  -23.1534   18.9720 C   0  0  0  0  0  0
  -30.9678  -19.7366   19.7986 C   0  0  0  0  0  0
  -33.4362  -19.5491   20.1613 C   0  0  0  0  0  0
  -30.2689  -14.7707   23.0609 C   0  0  0  0  0  0
  -32.1967  -21.3444   21.4131 C   0  0  0  0  0  0
  -28.2948  -25.3182   19.6903 C   0  0  0  0  0  0
  -31.8373  -17.3510   21.8156 C   0  0  0  0  0  0
  -31.8613  -18.8951   22.0425 C   0  0  0  0  0  0
  -30.4473  -16.7162   21.5400 C   0  0  0  0  0  0
  -32.0918  -19.8780   20.8444 C   0  0  0  0  0  0
  -29.1532  -23.6140   21.2093 N   0  0  0  0  0  0
  -30.4044  -15.2395   21.6761 N   0  0  0  0  0  0
  -31.4635  -12.3966   19.1112 H   0  0  0  0  0  0
  -30.3212  -11.2873   19.7977 H   0  0  0  0  0  0
  -29.7379  -11.8281   17.4111 H   0  0  0  0  0  0
  -29.6541  -13.5282   17.8042 H   0  0  0  0  0  0
  -27.8378  -11.3093   18.8169 H   0  0  0  0  0  0
  -27.3635  -12.6401   17.7907 H   0  0  0  0  0  0
  -27.7178  -14.2563   19.5829 H   0  0  0  0  0  0
  -28.6625  -11.9583   21.3622 H   0  0  0  0  0  0
  -28.4103  -13.6046   21.8379 H   0  0  0  0  0  0
  -25.2789   -9.5710   22.4782 H   0  0  0  0  0  0
  -24.0041   -7.4654   22.7483 H   0  0  0  0  0  0
  -21.0887   -8.8837   19.8947 H   0  0  0  0  0  0
  -22.3776  -10.9722   19.6184 H   0  0  0  0  0  0
  -21.1978   -7.6164   23.9769 H   0  0  0  0  0  0
  -21.1466   -6.0520   25.9108 H   0  0  0  0  0  0
  -22.0591   -2.7638   23.2846 H   0  0  0  0  0  0
  -22.4078  -11.9892   22.4732 H   0  0  0  0  0  0
  -21.1150  -13.1358   22.2570 H   0  0  0  0  0  0
  -24.6745  -15.8499   20.5190 H   0  0  0  0  0  0
  -26.3027  -15.6321   20.1260 H   0  0  0  0  0  0
  -26.7114  -32.5506   23.1193 H   0  0  0  0  0  0
  -25.0105  -33.9823   25.0501 H   0  0  0  0  0  0
  -22.6843  -31.3166   21.4220 H   0  0  0  0  0  0
  -23.3744  -35.9628   23.3325 H   0  0  0  0  0  0
  -24.3572  -36.8890   22.2046 H   0  0  0  0  0  0
  -23.7242  -37.6498   23.6657 H   0  0  0  0  0  0
  -26.0661  -31.6097   20.6180 H   0  0  0  0  0  0
  -26.8093  -30.8639   22.0089 H   0  0  0  0  0  0
  -28.0958  -29.0930   21.1594 H   0  0  0  0  0  0
  -25.9649  -25.9991   18.9884 H   0  0  0  0  0  0
  -23.9507  -27.3236   19.0431 H   0  0  0  0  0  0
  -23.7068  -30.6194   19.4119 H   0  0  0  0  0  0
  -22.7266  -29.2631   19.8706 H   0  0  0  0  0  0
  -25.1280  -36.1967   25.0819 H   0  0  0  0  0  0
  -20.9944  -28.3237   24.1433 H   0  0  0  0  0  0
  -20.5702  -26.2259   23.3597 H   0  0  0  0  0  0
  -21.6646  -26.7451   22.1198 H   0  0  0  0  0  0
  -19.6930  -25.6279   21.1238 H   0  0  0  0  0  0
  -19.6714  -27.3179   20.6742 H   0  0  0  0  0  0
  -17.4208  -26.6653   21.4001 H   0  0  0  0  0  0
  -18.0339  -26.0040   22.8994 H   0  0  0  0  0  0
  -19.7954  -30.7263   24.2207 H   0  0  0  0  0  0
  -17.5041  -31.6255   24.5160 H   0  0  0  0  0  0
  -15.5362  -30.2971   23.7697 H   0  0  0  0  0  0
  -15.8662  -28.0837   22.7041 H   0  0  0  0  0  0
  -24.5897  -30.7076   25.7842 H   0  0  0  0  0  0
  -24.8910  -32.2892   26.4939 H   0  0  0  0  0  0
  -25.8047  -30.8910   27.0282 H   0  0  0  0  0  0
  -26.2939  -29.6764   24.1225 H   0  0  0  0  0  0
  -27.4075  -29.7328   25.4699 H   0  0  0  0  0  0
  -27.8779  -30.4329   23.9397 H   0  0  0  0  0  0
  -27.2698  -33.3654   26.2082 H   0  0  0  0  0  0
  -28.3863  -32.6894   25.0319 H   0  0  0  0  0  0
  -28.0733  -31.8467   26.5414 H   0  0  0  0  0  0
  -28.2595  -38.0091   24.7517 H   0  0  0  0  0  0
  -28.1062  -36.2624   24.6292 H   0  0  0  0  0  0
  -27.2287  -37.1447   25.8863 H   0  0  0  0  0  0
  -20.9321  -29.8763   21.6953 H   0  0  0  0  0  0
  -26.0174  -38.2853   24.1434 H   0  0  0  0  0  0
  -30.7895  -24.9024   18.5492 H   0  0  0  0  0  0
  -29.7721  -22.0638   22.4138 H   0  0  0  0  0  0
  -33.0885  -24.1036   18.4979 H   0  0  0  0  0  0
  -32.7167  -22.4103   18.1846 H   0  0  0  0  0  0
  -33.6946  -22.8743   19.5848 H   0  0  0  0  0  0
  -31.1238  -20.4196   18.9630 H   0  0  0  0  0  0
  -29.9885  -19.9486   20.2293 H   0  0  0  0  0  0
  -30.9352  -18.7336   19.3736 H   0  0  0  0  0  0
  -33.6543  -20.2532   19.3572 H   0  0  0  0  0  0
  -33.4379  -18.5585   19.7106 H   0  0  0  0  0  0
  -34.2668  -19.5894   20.8688 H   0  0  0  0  0  0
  -29.2743  -15.0048   23.4394 H   0  0  0  0  0  0
  -30.9990  -15.2452   23.7153 H   0  0  0  0  0  0
  -30.4149  -13.6922   23.1552 H   0  0  0  0  0  0
  -32.0216  -21.3142   22.4897 H   0  0  0  0  0  0
  -33.2224  -21.7075   21.3591 H   0  0  0  0  0  0
  -27.3851  -24.8619   20.0844 H   0  0  0  0  0  0
  -28.2236  -25.2908   18.6027 H   0  0  0  0  0  0
  -32.2060  -16.9133   22.7431 H   0  0  0  0  0  0
  -32.5590  -17.0399   21.0640 H   0  0  0  0  0  0
  -32.6706  -19.0780   22.7543 H   0  0  0  0  0  0
  -30.9592  -19.1867   22.5816 H   0  0  0  0  0  0
  -30.0994  -16.9884   20.5434 H   0  0  0  0  0  0
  -29.7139  -17.1434   22.2247 H   0  0  0  0  0  0
  1 25  1  0  0  0
  1 30  2  0  0  0
  1 87  1  0  0  0
  2  3  1  0  0  0
  2 25  1  0  0  0
  2 88  1  0  0  0
  2 89  1  0  0  0
  3  4  1  0  0  0
  3 90  1  0  0  0
  3 91  1  0  0  0
  4  5  1  0  0  0
  4 92  1  0  0  0
  4 93  1  0  0  0
  5  6  1  0  0  0
  5 26  1  0  0  0
  5 94  1  0  0  0
  6 25  1  0  0  0
  6 95  1  0  0  0
  6 96  1  0  0  0
  7  8  2  0  0  0
  7 26  1  0  0  0
  7 29  1  0  0  0
  8  9  1  0  0  0
  8 22  1  0  0  0
  9 10  1  0  0  0
  9 27  2  0  0  0
 10 11  2  0  0  0
 10 15  1  0  0  0
 11 12  1  0  0  0
 11 97  1  0  0  0
 12 13  2  0  0  0
 12 98  1  0  0  0
 13 14  1  0  0  0
 13 31  1  0  0  0
 14 15  2  0  0  0
 14 99  1  0  0  0
 15100  1  0  0  0
 16 17  2  0  0  0
 16 21  1  0  0  0
 16 31  1  0  0  0
 17 18  1  0  0  0
 17101  1  0  0  0
 18 19  2  0  0  0
 18102  1  0  0  0
 19 20  1  0  0  0
 19 24  1  0  0  0
 20 21  2  0  0  0
 20103  1  0  0  0
 21 23  1  0  0  0
 22 28  1  0  0  0
 22 32  2  0  0  0
 26 27  1  0  0  0
 28104  1  0  0  0
 28105  1  0  0  0
 29106  1  0  0  0
 29107  1  0  0  0
 33 34  1  0  0  0
 33 66  1  0  0  0
 33 70  2  0  0  0
 34 36  1  0  0  0
 34 59  1  0  0  0
 34108  1  0  0  0
 35 44  2  0  0  0
 35 45  1  0  0  0
 35 68  1  0  0  0
 36 56  1  0  0  0
 36109  1  0  0  0
 37 39  1  0  0  0
 37 47  1  0  0  0
 37 66  1  0  0  0
 37110  1  0  0  0
 38 43  2  0  0  0
 38 46  1  0  0  0
 38 47  1  0  0  0
 39 64  1  0  0  0
 39 67  2  0  0  0
 40 52  1  0  0  0
 40 53  2  0  0  0
 40 58  1  0  0  0
 41111  1  0  0  0
 41112  1  0  0  0
 41113  1  0  0  0
 41 48  1  0  0  0
 42 43  1  0  0  0
 42 66  1  0  0  0
 42114  1  0  0  0
 42115  1  0  0  0
 43 44  1  0  0  0
 44116  1  0  0  0
 45 46  2  0  0  0
 45117  1  0  0  0
 46118  1  0  0  0
 47119  1  0  0  0
 47120  1  0  0  0
 48 56  1  0  0  0
 48 65  1  0  0  0
 48121  1  0  0  0
 49 50  1  0  0  0
 49 53  1  0  0  0
 49 64  1  0  0  0
 49122  1  0  0  0
 50 51  1  0  0  0
 50123  1  0  0  0
 50124  1  0  0  0
 51 52  1  0  0  0
 51125  1  0  0  0
 51126  1  0  0  0
 52127  1  0  0  0
 52128  1  0  0  0
 53 54  1  0  0  0
 54 55  2  0  0  0
 54129  1  0  0  0
 55 57  1  0  0  0
 55130  1  0  0  0
 56 69  2  0  0  0
 57 58  2  0  0  0
 57131  1  0  0  0
 58132  1  0  0  0
 59 60  1  0  0  0
 59 61  1  0  0  0
 59 62  1  0  0  0
 60133  1  0  0  0
 60134  1  0  0  0
 60135  1  0  0  0
 61136  1  0  0  0
 61137  1  0  0  0
 61138  1  0  0  0
 62139  1  0  0  0
 62140  1  0  0  0
 62141  1  0  0  0
 63 65  1  0  0  0
 63142  1  0  0  0
 63143  1  0  0  0
 63144  1  0  0  0
 64145  1  0  0  0
 65146  1  0  0  0
 68 81  1  0  0  0
 71 73  2  0  0  0
 71 75  1  0  0  0
 71147  1  0  0  0
 72 74  2  0  0  0
 72 86  1  0  0  0
 72148  1  0  0  0
 73 74  1  0  0  0
 73 76  1  0  0  0
 74 80  1  0  0  0
 75 81  1  0  0  0
 75 86  2  0  0  0
 76149  1  0  0  0
 76150  1  0  0  0
 76151  1  0  0  0
 77152  1  0  0  0
 77153  1  0  0  0
 77154  1  0  0  0
 77 85  1  0  0  0
 78 85  1  0  0  0
 78155  1  0  0  0
 78156  1  0  0  0
 78157  1  0  0  0
 79 87  1  0  0  0
 79158  1  0  0  0
 79159  1  0  0  0
 79160  1  0  0  0
 80 85  1  0  0  0
 80161  1  0  0  0
 80162  1  0  0  0
 81163  1  0  0  0
 81164  1  0  0  0
 82 83  1  0  0  0
 82 84  1  0  0  0
 82165  1  0  0  0
 82166  1  0  0  0
 83 85  1  0  0  0
 83167  1  0  0  0
 83168  1  0  0  0
 84 87  1  0  0  0
 84169  1  0  0  0
 84170  1  0  0  0
M  ISO  4   1 100  68 101  81 101  87 100
M  END
> <chiral flag>
0

> <version>
0

> <s_m_source_file>
/data/baiqing/PycharmProjects/Reinvent-master-3.2/result/LINK_invent/BTK/process_docking_weight1_custom_sum_contain_oxygen_bond_distance_aromatic_linkinvent_7_9_3/rearranged_h_0082.sdf

> <i_m_source_file_index>
61

> <r_mmod_Potential_Energy-OPLS-2005>
1.60548043251038

> <r_mmod_Stretch_Energy-OPLS-2005>
45.7841911315918

> <r_mmod_Bend_Energy-OPLS-2005>
120.629859924316

> <r_mmod_Torsional_Energy-OPLS-2005>
277.393859863281

> <r_mmod_Improper_Torsional_Energy-OPLS-2005>
3.30268096923828

> <r_mmod_Van_der_Waal_Energy-OPLS-2005>
171.918838500977

> <r_mmod_Electrostatic_Energy-OPLS-2005>
-428.615661621094

> <r_mmod_Solvation_Energy-OPLS-2005>
-200.3173828125

> <b_mmod_Minimization_Converged-OPLS-2005>
0

> <r_mmod_RMS_Derivative-OPLS-2005>
2.99140238761902

$$$$
62
                    3D
 Structure written by MMmdl.
175183  0  0  1  0            999 V2000
  -30.6885  -14.4889   20.5067 C   0  0  0  0  0  0
  -30.4208  -12.2992   19.4389 C   0  0  0  0  0  0
  -29.4994  -12.4893   18.2150 C   0  0  0  0  0  0
  -28.0207  -12.3546   18.6273 C   0  0  0  0  0  0
  -27.6605  -13.2091   19.8733 C   0  0  2  0  0  0
  -28.7012  -13.0221   21.0026 C   0  0  0  0  0  0
  -25.2606  -13.8171   20.5704 C   0  0  0  0  0  0
  -24.1859  -13.0445   20.9187 C   0  0  0  0  0  0
  -24.6409  -11.6906   20.8736 C   0  0  0  0  0  0
  -23.9086  -10.4293   21.0409 C   0  0  0  0  0  0
  -24.3630   -9.4206   21.9199 C   0  0  0  0  0  0
  -23.6289   -8.2254   22.0778 C   0  0  0  0  0  0
  -22.4266   -8.0306   21.3576 C   0  0  0  0  0  0
  -21.9901   -9.0286   20.4677 C   0  0  0  0  0  0
  -22.7247  -10.2145   20.3072 C   0  0  0  0  0  0
  -21.6846   -6.0749   22.5285 C   0  0  0  0  0  0
  -21.4023   -6.5649   23.8216 C   0  0  0  0  0  0
  -21.3649   -5.6794   24.9182 C   0  0  0  0  0  0
  -21.6023   -4.3062   24.7216 C   0  0  0  0  0  0
  -21.8822   -3.8160   23.4345 C   0  0  0  0  0  0
  -21.9187   -4.6984   22.3388 C   0  0  0  0  0  0
  -22.7876  -13.5267   21.1815 C   0  0  0  0  0  0
  -22.1669   -4.2180   21.0970 F   0  0  0  0  0  0
  -21.5601   -3.4538   25.7728 F   0  0  0  0  0  0
  -30.0319  -13.3014   20.4439 N   0  0  0  0  0  0
  -26.3029  -12.9335   20.3363 N   0  0  0  0  0  0
  -25.9334  -11.6504   20.5778 N   0  0  0  0  0  0
  -22.0490  -12.8292   22.0366 N   0  0  0  0  0  0
  -25.4329  -15.1890   20.4128 N   0  0  0  0  0  0
  -31.8442  -14.6331   20.1013 O   0  0  0  0  0  0
  -21.6639   -6.8903   21.4248 O   0  0  0  0  0  0
  -22.3555  -14.5568   20.6659 O   0  0  0  0  0  0
  -24.6107  -31.8682   23.2120 C   0  0  0  0  0  0
  -25.9008  -32.4825   23.8391 C   0  0  1  0  0  0
  -27.2282  -27.4321   20.0716 C   0  0  0  0  0  0
  -25.5896  -33.8634   24.2337 N   0  0  0  0  0  0
  -23.3947  -30.4917   21.5578 C   0  0  2  0  0  0
  -24.8358  -28.9540   20.1153 C   0  0  0  0  0  0
  -22.7343  -29.4640   22.5043 C   0  0  0  0  0  0
  -18.0264  -28.1313   22.8491 C   0  0  0  0  0  0
  -24.1490  -36.7306   23.2628 C   0  0  0  0  0  0
  -25.9236  -30.8286   21.3657 C   0  0  0  0  0  0
  -25.9973  -29.4622   20.7096 C   0  0  0  0  0  0
  -27.1912  -28.7041   20.6898 C   0  0  0  0  0  0
  -26.0423  -26.9361   19.4831 C   0  0  0  0  0  0
  -24.8531  -27.6895   19.5044 C   0  0  0  0  0  0
  -23.5976  -29.8239   20.1721 C   0  0  0  0  0  0
  -25.4130  -36.3123   24.0322 C   0  0  1  0  0  0
  -20.5840  -28.3590   23.1365 C   0  0  2  0  0  0
  -20.6746  -26.9347   22.5427 C   0  0  0  0  0  0
  -19.5736  -26.6344   21.5208 C   0  0  0  0  0  0
  -18.1915  -26.7868   22.1608 C   0  0  0  0  0  0
  -19.1504  -28.8772   23.2921 C   0  0  0  0  0  0
  -18.9425  -30.1384   23.8911 C   0  0  0  0  0  0
  -17.6433  -30.6538   24.0560 C   0  0  0  0  0  0
  -25.9029  -34.9482   23.5133 C   0  0  0  0  0  0
  -16.5320  -29.9027   23.6341 C   0  0  0  0  0  0
  -16.7251  -28.6431   23.0371 C   0  0  0  0  0  0
  -26.4453  -31.6605   25.0710 C   0  0  0  0  0  0
  -25.3749  -31.3692   26.1469 C   0  0  0  0  0  0
  -27.0244  -30.3056   24.6039 C   0  0  0  0  0  0
  -27.6027  -32.4311   25.7460 C   0  0  0  0  0  0
  -27.5596  -37.1818   24.8460 C   0  0  0  0  0  0
  -21.4082  -29.2977   22.3774 N   0  0  0  0  0  0
  -26.4320  -37.3810   23.9390 N   0  0  0  0  0  0
  -24.6619  -31.0751   22.1040 N   0  0  0  0  0  0
  -23.4133  -28.8185   23.3072 O   0  0  0  0  0  0
  -28.4224  -26.7354   20.0710 O   0  0  0  0  0  0
  -26.5585  -34.8939   22.4692 O   0  0  0  0  0  0
  -23.5323  -32.1434   23.7550 O   0  0  0  0  0  0
  -28.6604  -21.8071   20.1374 C   0  0  0  0  0  0
  -28.8627  -23.1163   20.6196 C   0  0  0  0  0  0
  -29.5760  -20.8117   20.5367 C   0  0  0  0  0  0
  -30.7083  -22.3880   21.7680 C   0  0  0  0  0  0
  -30.7794  -19.4246   18.8606 C   0  0  0  0  0  0
  -31.1453  -21.8644   25.6316 C   0  0  0  0  0  0
  -30.1213  -24.1678   25.8241 C   0  0  0  0  0  0
  -30.0018  -18.2631   22.2356 C   0  0  0  0  0  0
  -27.9140  -24.2814   20.3230 C   0  0  0  0  0  0
  -31.9170  -22.7360   22.6223 C   0  0  0  0  0  0
  -31.6141  -23.6266   23.8482 C   0  0  0  0  0  0
  -30.1495  -16.8699   20.1103 C   0  0  0  0  0  0
  -28.5148  -25.4310   19.4676 C   0  0  0  0  0  0
  -29.6069  -19.4214   19.8679 C   0  0  1  0  0  0
  -30.5888  -23.0678   24.8582 C   0  0  0  0  0  0
  -29.5056  -18.1221   20.7789 C   0  0  2  0  0  0
  -29.9023  -23.3883   21.4271 N   0  0  0  0  0  0
  -30.6044  -21.1329   21.3469 N   0  0  0  0  0  0
  -29.9151  -15.5654   20.7613 N   0  0  0  0  0  0
  -31.4680  -12.3824   19.1434 H   0  0  0  0  0  0
  -30.3101  -11.2950   19.8518 H   0  0  0  0  0  0
  -29.7406  -11.7590   17.4408 H   0  0  0  0  0  0
  -29.6747  -13.4688   17.7674 H   0  0  0  0  0  0
  -27.8282  -11.3010   18.8322 H   0  0  0  0  0  0
  -27.3741  -12.6215   17.7921 H   0  0  0  0  0  0
  -27.6988  -14.2512   19.5532 H   0  0  0  0  0  0
  -28.6725  -12.0033   21.3922 H   0  0  0  0  0  0
  -28.4750  -13.6710   21.8510 H   0  0  0  0  0  0
  -25.2786   -9.5666   22.4771 H   0  0  0  0  0  0
  -23.9998   -7.4625   22.7479 H   0  0  0  0  0  0
  -21.0843   -8.8828   19.8964 H   0  0  0  0  0  0
  -22.3752  -10.9701   19.6184 H   0  0  0  0  0  0
  -21.2064   -7.6165   23.9741 H   0  0  0  0  0  0
  -21.1448   -6.0529   25.9083 H   0  0  0  0  0  0
  -22.0610   -2.7631   23.2828 H   0  0  0  0  0  0
  -22.4102  -11.9983   22.4801 H   0  0  0  0  0  0
  -21.1121  -13.1373   22.2556 H   0  0  0  0  0  0
  -24.6642  -15.8422   20.5160 H   0  0  0  0  0  0
  -26.2793  -15.6287   20.0737 H   0  0  0  0  0  0
  -26.7061  -32.5523   23.1125 H   0  0  0  0  0  0
  -25.0111  -33.9812   25.0531 H   0  0  0  0  0  0
  -22.6842  -31.3111   21.4283 H   0  0  0  0  0  0
  -23.3768  -35.9623   23.3306 H   0  0  0  0  0  0
  -24.3594  -36.8912   22.2042 H   0  0  0  0  0  0
  -23.7231  -37.6515   23.6630 H   0  0  0  0  0  0
  -26.0396  -31.6029   20.6070 H   0  0  0  0  0  0
  -26.8063  -30.8778   21.9884 H   0  0  0  0  0  0
  -28.0842  -29.0915   21.1584 H   0  0  0  0  0  0
  -26.0123  -25.9701   19.0020 H   0  0  0  0  0  0
  -23.9577  -27.2949   19.0438 H   0  0  0  0  0  0
  -23.6942  -30.5992   19.4123 H   0  0  0  0  0  0
  -22.7170  -29.2465   19.8836 H   0  0  0  0  0  0
  -25.1328  -36.1989   25.0821 H   0  0  0  0  0  0
  -20.9952  -28.3139   24.1480 H   0  0  0  0  0  0
  -20.5641  -26.2193   23.3589 H   0  0  0  0  0  0
  -21.6628  -26.7393   22.1241 H   0  0  0  0  0  0
  -19.6905  -25.6261   21.1223 H   0  0  0  0  0  0
  -19.6682  -27.3154   20.6744 H   0  0  0  0  0  0
  -17.4208  -26.6648   21.3988 H   0  0  0  0  0  0
  -18.0296  -25.9973   22.8956 H   0  0  0  0  0  0
  -19.7900  -30.7215   24.2262 H   0  0  0  0  0  0
  -17.4977  -31.6231   24.5111 H   0  0  0  0  0  0
  -15.5309  -30.2926   23.7626 H   0  0  0  0  0  0
  -15.8658  -28.0733   22.7103 H   0  0  0  0  0  0
  -24.5910  -30.7028   25.7827 H   0  0  0  0  0  0
  -24.8933  -32.2829   26.4956 H   0  0  0  0  0  0
  -25.8132  -30.8847   27.0200 H   0  0  0  0  0  0
  -26.2730  -29.6851   24.1111 H   0  0  0  0  0  0
  -27.4055  -29.7256   25.4452 H   0  0  0  0  0  0
  -27.8573  -30.4385   23.9131 H   0  0  0  0  0  0
  -27.2630  -33.3600   26.2059 H   0  0  0  0  0  0
  -28.3804  -32.6887   25.0253 H   0  0  0  0  0  0
  -28.0709  -31.8414   26.5353 H   0  0  0  0  0  0
  -28.2630  -38.0101   24.7536 H   0  0  0  0  0  0
  -28.1077  -36.2643   24.6264 H   0  0  0  0  0  0
  -27.2300  -37.1456   25.8857 H   0  0  0  0  0  0
  -20.9212  -29.8709   21.7030 H   0  0  0  0  0  0
  -26.0209  -38.2887   24.1424 H   0  0  0  0  0  0
  -27.8520  -21.5834   19.4530 H   0  0  0  0  0  0
  -30.7366  -20.3169   18.2334 H   0  0  0  0  0  0
  -30.7649  -18.5769   18.1789 H   0  0  0  0  0  0
  -31.7400  -19.4371   19.3743 H   0  0  0  0  0  0
  -30.4436  -21.5285   26.3948 H   0  0  0  0  0  0
  -32.0842  -22.1097   26.1290 H   0  0  0  0  0  0
  -31.3276  -21.0167   24.9706 H   0  0  0  0  0  0
  -29.4105  -23.7814   26.5543 H   0  0  0  0  0  0
  -29.6194  -24.9746   25.2890 H   0  0  0  0  0  0
  -30.9587  -24.6014   26.3723 H   0  0  0  0  0  0
  -29.8651  -17.3357   22.7920 H   0  0  0  0  0  0
  -29.4492  -19.0332   22.7715 H   0  0  0  0  0  0
  -31.0618  -18.5148   22.2737 H   0  0  0  0  0  0
  -27.5592  -24.6723   21.2761 H   0  0  0  0  0  0
  -27.0324  -23.8888   19.8191 H   0  0  0  0  0  0
  -32.6423  -23.2376   21.9803 H   0  0  0  0  0  0
  -32.4040  -21.8162   22.9500 H   0  0  0  0  0  0
  -31.2549  -24.5866   23.4754 H   0  0  0  0  0  0
  -32.5529  -23.8433   24.3572 H   0  0  0  0  0  0
  -31.2235  -17.0417   20.0208 H   0  0  0  0  0  0
  -29.7629  -16.7715   19.0930 H   0  0  0  0  0  0
  -28.0971  -25.4248   18.4604 H   0  0  0  0  0  0
  -29.5790  -25.2483   19.3189 H   0  0  0  0  0  0
  -28.7142  -19.3862   19.2407 H   0  0  0  0  0  0
  -29.7044  -22.7373   24.3134 H   0  0  0  0  0  0
  -28.4356  -17.9206   20.8704 H   0  0  0  0  0  0
  -28.9936  -15.3857   21.1298 H   0  0  0  0  0  0
  1 25  1  0  0  0
  1 30  2  0  0  0
  1 89  1  0  0  0
  2  3  1  0  0  0
  2 25  1  0  0  0
  2 90  1  0  0  0
  2 91  1  0  0  0
  3  4  1  0  0  0
  3 92  1  0  0  0
  3 93  1  0  0  0
  4  5  1  0  0  0
  4 94  1  0  0  0
  4 95  1  0  0  0
  5  6  1  0  0  0
  5 26  1  0  0  0
  5 96  1  0  0  0
  6 25  1  0  0  0
  6 97  1  0  0  0
  6 98  1  0  0  0
  7  8  2  0  0  0
  7 26  1  0  0  0
  7 29  1  0  0  0
  8  9  1  0  0  0
  8 22  1  0  0  0
  9 10  1  0  0  0
  9 27  2  0  0  0
 10 11  2  0  0  0
 10 15  1  0  0  0
 11 12  1  0  0  0
 11 99  1  0  0  0
 12 13  2  0  0  0
 12100  1  0  0  0
 13 14  1  0  0  0
 13 31  1  0  0  0
 14 15  2  0  0  0
 14101  1  0  0  0
 15102  1  0  0  0
 16 17  2  0  0  0
 16 21  1  0  0  0
 16 31  1  0  0  0
 17 18  1  0  0  0
 17103  1  0  0  0
 18 19  2  0  0  0
 18104  1  0  0  0
 19 20  1  0  0  0
 19 24  1  0  0  0
 20 21  2  0  0  0
 20105  1  0  0  0
 21 23  1  0  0  0
 22 28  1  0  0  0
 22 32  2  0  0  0
 26 27  1  0  0  0
 28106  1  0  0  0
 28107  1  0  0  0
 29108  1  0  0  0
 29109  1  0  0  0
 33 34  1  0  0  0
 33 66  1  0  0  0
 33 70  2  0  0  0
 34 36  1  0  0  0
 34 59  1  0  0  0
 34110  1  0  0  0
 35 44  2  0  0  0
 35 45  1  0  0  0
 35 68  1  0  0  0
 36 56  1  0  0  0
 36111  1  0  0  0
 37 39  1  0  0  0
 37 47  1  0  0  0
 37 66  1  0  0  0
 37112  1  0  0  0
 38 43  2  0  0  0
 38 46  1  0  0  0
 38 47  1  0  0  0
 39 64  1  0  0  0
 39 67  2  0  0  0
 40 52  1  0  0  0
 40 53  2  0  0  0
 40 58  1  0  0  0
 41113  1  0  0  0
 41114  1  0  0  0
 41115  1  0  0  0
 41 48  1  0  0  0
 42 43  1  0  0  0
 42 66  1  0  0  0
 42116  1  0  0  0
 42117  1  0  0  0
 43 44  1  0  0  0
 44118  1  0  0  0
 45 46  2  0  0  0
 45119  1  0  0  0
 46120  1  0  0  0
 47121  1  0  0  0
 47122  1  0  0  0
 48 56  1  0  0  0
 48 65  1  0  0  0
 48123  1  0  0  0
 49 50  1  0  0  0
 49 53  1  0  0  0
 49 64  1  0  0  0
 49124  1  0  0  0
 50 51  1  0  0  0
 50125  1  0  0  0
 50126  1  0  0  0
 51 52  1  0  0  0
 51127  1  0  0  0
 51128  1  0  0  0
 52129  1  0  0  0
 52130  1  0  0  0
 53 54  1  0  0  0
 54 55  2  0  0  0
 54131  1  0  0  0
 55 57  1  0  0  0
 55132  1  0  0  0
 56 69  2  0  0  0
 57 58  2  0  0  0
 57133  1  0  0  0
 58134  1  0  0  0
 59 60  1  0  0  0
 59 61  1  0  0  0
 59 62  1  0  0  0
 60135  1  0  0  0
 60136  1  0  0  0
 60137  1  0  0  0
 61138  1  0  0  0
 61139  1  0  0  0
 61140  1  0  0  0
 62141  1  0  0  0
 62142  1  0  0  0
 62143  1  0  0  0
 63 65  1  0  0  0
 63144  1  0  0  0
 63145  1  0  0  0
 63146  1  0  0  0
 64147  1  0  0  0
 65148  1  0  0  0
 68 83  1  0  0  0
 71 72  2  0  0  0
 71 73  1  0  0  0
 71149  1  0  0  0
 72 79  1  0  0  0
 72 87  1  0  0  0
 73 84  1  0  0  0
 73 88  2  0  0  0
 74 80  1  0  0  0
 74 87  2  0  0  0
 74 88  1  0  0  0
 75150  1  0  0  0
 75151  1  0  0  0
 75152  1  0  0  0
 75 84  1  0  0  0
 76153  1  0  0  0
 76154  1  0  0  0
 76155  1  0  0  0
 76 85  1  0  0  0
 77 85  1  0  0  0
 77156  1  0  0  0
 77157  1  0  0  0
 77158  1  0  0  0
 78159  1  0  0  0
 78160  1  0  0  0
 78161  1  0  0  0
 78 86  1  0  0  0
 79 83  1  0  0  0
 79162  1  0  0  0
 79163  1  0  0  0
 80 81  1  0  0  0
 80164  1  0  0  0
 80165  1  0  0  0
 81 85  1  0  0  0
 81166  1  0  0  0
 81167  1  0  0  0
 82 86  1  0  0  0
 82 89  1  0  0  0
 82168  1  0  0  0
 82169  1  0  0  0
 83170  1  0  0  0
 83171  1  0  0  0
 84 86  1  0  0  0
 84172  1  0  0  0
 85173  1  0  0  0
 86174  1  0  0  0
 89175  1  0  0  0
M  ISO  4   1 100  68 101  83 101  89 100
M  END
> <chiral flag>
0

> <version>
0

> <s_m_source_file>
/data/baiqing/PycharmProjects/Reinvent-master-3.2/result/LINK_invent/BTK/process_docking_weight1_custom_sum_contain_oxygen_bond_distance_aromatic_linkinvent_7_9_3/rearranged_h_0082.sdf

> <i_m_source_file_index>
62

> <r_mmod_Potential_Energy-OPLS-2005>
-415.535461425781

> <r_mmod_Stretch_Energy-OPLS-2005>
42.102596282959

> <r_mmod_Bend_Energy-OPLS-2005>
125.566337585449

> <r_mmod_Torsional_Energy-OPLS-2005>
217.070938110352

> <r_mmod_Improper_Torsional_Energy-OPLS-2005>
9.98374366760254

> <r_mmod_Van_der_Waal_Energy-OPLS-2005>
164.185577392578

> <r_mmod_Electrostatic_Energy-OPLS-2005>
-767.005004882812

> <r_mmod_Solvation_Energy-OPLS-2005>
-223.339981079102

> <b_mmod_Minimization_Converged-OPLS-2005>
0

> <r_mmod_RMS_Derivative-OPLS-2005>
3.77031302452087

$$$$
63
                    3D
 Structure written by MMmdl.
160168  0  0  1  0            999 V2000
  -30.6976  -14.5163   20.5611 C   0  0  0  0  0  0
  -30.4205  -12.3407   19.4180 C   0  0  0  0  0  0
  -29.4913  -12.5190   18.2027 C   0  0  0  0  0  0
  -28.0141  -12.3704   18.6158 C   0  0  0  0  0  0
  -27.6558  -13.2119   19.8701 C   0  0  2  0  0  0
  -28.7010  -13.0240   20.9927 C   0  0  0  0  0  0
  -25.2551  -13.8169   20.5632 C   0  0  0  0  0  0
  -24.1825  -13.0439   20.9178 C   0  0  0  0  0  0
  -24.6374  -11.6903   20.8708 C   0  0  0  0  0  0
  -23.9018  -10.4292   21.0341 C   0  0  0  0  0  0
  -24.3578   -9.4227   21.9131 C   0  0  0  0  0  0
  -23.6284   -8.2237   22.0722 C   0  0  0  0  0  0
  -22.4265   -8.0258   21.3504 C   0  0  0  0  0  0
  -21.9875   -9.0226   20.4607 C   0  0  0  0  0  0
  -22.7174  -10.2130   20.3009 C   0  0  0  0  0  0
  -21.6853   -6.0722   22.5263 C   0  0  0  0  0  0
  -21.4016   -6.5631   23.8200 C   0  0  0  0  0  0
  -21.3670   -5.6789   24.9161 C   0  0  0  0  0  0
  -21.6050   -4.3043   24.7207 C   0  0  0  0  0  0
  -21.8832   -3.8129   23.4327 C   0  0  0  0  0  0
  -21.9211   -4.6944   22.3392 C   0  0  0  0  0  0
  -22.7846  -13.5224   21.1867 C   0  0  0  0  0  0
  -22.1658   -4.2130   21.0959 F   0  0  0  0  0  0
  -21.5642   -3.4533   25.7721 F   0  0  0  0  0  0
  -30.0238  -13.3377   20.4298 N   0  0  0  0  0  0
  -26.2992  -12.9347   20.3339 N   0  0  0  0  0  0
  -25.9311  -11.6501   20.5756 N   0  0  0  0  0  0
  -22.0487  -12.8214   22.0425 N   0  0  0  0  0  0
  -25.4268  -15.1881   20.3933 N   0  0  0  0  0  0
  -31.8438  -14.6682   20.1317 O   0  0  0  0  0  0
  -21.6636   -6.8848   21.4221 O   0  0  0  0  0  0
  -22.3531  -14.5528   20.6736 O   0  0  0  0  0  0
  -24.6186  -31.8673   23.2096 C   0  0  0  0  0  0
  -25.9053  -32.4820   23.8404 C   0  0  1  0  0  0
  -27.2266  -27.3888   20.1145 C   0  0  0  0  0  0
  -25.5904  -33.8618   24.2326 N   0  0  0  0  0  0
  -23.4090  -30.4932   21.5513 C   0  0  2  0  0  0
  -24.8544  -28.9648   20.1070 C   0  0  0  0  0  0
  -22.7452  -29.4656   22.4975 C   0  0  0  0  0  0
  -18.0289  -28.1383   22.8500 C   0  0  0  0  0  0
  -24.1483  -36.7311   23.2640 C   0  0  0  0  0  0
  -25.9434  -30.8213   21.3685 C   0  0  0  0  0  0
  -26.0195  -29.4550   20.7132 C   0  0  0  0  0  0
  -27.2073  -28.6776   20.7114 C   0  0  0  0  0  0
  -26.0458  -26.9504   19.4653 C   0  0  0  0  0  0
  -24.8675  -27.7157   19.4747 C   0  0  0  0  0  0
  -23.6171  -29.8331   20.1636 C   0  0  0  0  0  0
  -25.4108  -36.3120   24.0349 C   0  0  1  0  0  0
  -20.5884  -28.3673   23.1306 C   0  0  2  0  0  0
  -20.6774  -26.9402   22.5421 C   0  0  0  0  0  0
  -19.5757  -26.6378   21.5216 C   0  0  0  0  0  0
  -18.1931  -26.7929   22.1620 C   0  0  0  0  0  0
  -19.1539  -28.8846   23.2897 C   0  0  0  0  0  0
  -18.9456  -30.1453   23.8909 C   0  0  0  0  0  0
  -17.6457  -30.6579   24.0570 C   0  0  0  0  0  0
  -25.9038  -34.9479   23.5130 C   0  0  0  0  0  0
  -16.5349  -29.9084   23.6322 C   0  0  0  0  0  0
  -16.7280  -28.6502   23.0341 C   0  0  0  0  0  0
  -26.4465  -31.6613   25.0746 C   0  0  0  0  0  0
  -25.3711  -31.3714   26.1476 C   0  0  0  0  0  0
  -27.0303  -30.3071   24.6119 C   0  0  0  0  0  0
  -27.6061  -32.4321   25.7484 C   0  0  0  0  0  0
  -27.5587  -37.1805   24.8463 C   0  0  0  0  0  0
  -21.4167  -29.3033   22.3697 N   0  0  0  0  0  0
  -26.4295  -37.3799   23.9413 N   0  0  0  0  0  0
  -24.6764  -31.0742   22.1007 N   0  0  0  0  0  0
  -23.4208  -28.8187   23.3011 O   0  0  0  0  0  0
  -28.3563  -26.5744   20.2082 O   0  0  0  0  0  0
  -26.5591  -34.8935   22.4697 O   0  0  0  0  0  0
  -23.5372  -32.1414   23.7476 O   0  0  0  0  0  0
  -28.8377  -20.1868   18.3159 C   0  0  0  0  0  0
  -28.6951  -18.9030   17.8730 C   0  0  0  0  0  0
  -29.3000  -18.8274   20.0192 C   0  0  0  0  0  0
  -30.5967  -24.4141   20.2038 C   0  0  0  0  0  0
  -29.6289  -18.1690   21.3486 C   0  0  0  0  0  0
  -28.7241  -22.6615   20.0485 C   0  0  0  0  0  0
  -29.4929  -21.3556   20.4902 C   0  0  0  0  0  0
  -30.5869  -16.9212   21.3233 C   0  0  0  0  0  0
  -28.1482  -25.1498   19.9765 C   0  0  0  0  0  0
  -29.1399  -24.0868   20.5663 C   0  0  2  0  0  0
  -29.1955  -20.1412   19.6495 N   0  0  0  0  0  0
  -28.9805  -18.1033   18.9387 N   0  3  0  0  0  0
  -30.0039  -15.5749   21.0489 N   0  0  0  0  0  0
  -31.4599  -12.4502   19.1044 H   0  0  0  0  0  0
  -30.3352  -11.3302   19.8208 H   0  0  0  0  0  0
  -29.7371  -11.7893   17.4298 H   0  0  0  0  0  0
  -29.6562  -13.5035   17.7591 H   0  0  0  0  0  0
  -27.8367  -11.3137   18.8201 H   0  0  0  0  0  0
  -27.3612  -12.6399   17.7847 H   0  0  0  0  0  0
  -27.6944  -14.2571   19.5652 H   0  0  0  0  0  0
  -28.6876  -11.9945   21.3569 H   0  0  0  0  0  0
  -28.4617  -13.6469   21.8563 H   0  0  0  0  0  0
  -25.2722   -9.5759   22.4711 H   0  0  0  0  0  0
  -24.0026   -7.4650   22.7469 H   0  0  0  0  0  0
  -21.0786   -8.8696   19.8935 H   0  0  0  0  0  0
  -22.3560  -10.9650   19.6127 H   0  0  0  0  0  0
  -21.1976   -7.6134   23.9685 H   0  0  0  0  0  0
  -21.1487   -6.0510   25.9074 H   0  0  0  0  0  0
  -22.0603   -2.7589   23.2822 H   0  0  0  0  0  0
  -22.4069  -11.9893   22.4866 H   0  0  0  0  0  0
  -21.1095  -13.1234   22.2549 H   0  0  0  0  0  0
  -24.6565  -15.8441   20.4717 H   0  0  0  0  0  0
  -26.2691  -15.6151   20.0311 H   0  0  0  0  0  0
  -26.7128  -32.5513   23.1168 H   0  0  0  0  0  0
  -25.0070  -33.9770   25.0485 H   0  0  0  0  0  0
  -22.7001  -31.3122   21.4153 H   0  0  0  0  0  0
  -23.3753  -35.9634   23.3308 H   0  0  0  0  0  0
  -24.3577  -36.8906   22.2051 H   0  0  0  0  0  0
  -23.7217  -37.6518   23.6641 H   0  0  0  0  0  0
  -26.0584  -31.5863   20.5994 H   0  0  0  0  0  0
  -26.8302  -30.8755   21.9870 H   0  0  0  0  0  0
  -28.0993  -29.0492   21.1953 H   0  0  0  0  0  0
  -25.9961  -26.0045   18.9479 H   0  0  0  0  0  0
  -23.9813  -27.3360   18.9840 H   0  0  0  0  0  0
  -23.7209  -30.6091   19.4050 H   0  0  0  0  0  0
  -22.7396  -29.2535   19.8714 H   0  0  0  0  0  0
  -25.1279  -36.1991   25.0842 H   0  0  0  0  0  0
  -20.9998  -28.3230   24.1414 H   0  0  0  0  0  0
  -20.5646  -26.2292   23.3616 H   0  0  0  0  0  0
  -21.6645  -26.7406   22.1225 H   0  0  0  0  0  0
  -19.6912  -25.6281   21.1251 H   0  0  0  0  0  0
  -19.6702  -27.3183   20.6746 H   0  0  0  0  0  0
  -17.4207  -26.6699   21.4006 H   0  0  0  0  0  0
  -18.0312  -26.0061   22.9004 H   0  0  0  0  0  0
  -19.7931  -30.7279   24.2268 H   0  0  0  0  0  0
  -17.5004  -31.6256   24.5178 H   0  0  0  0  0  0
  -15.5348  -30.2986   23.7639 H   0  0  0  0  0  0
  -15.8681  -28.0831   22.7037 H   0  0  0  0  0  0
  -24.5904  -30.7047   25.7781 H   0  0  0  0  0  0
  -24.8871  -32.2866   26.4905 H   0  0  0  0  0  0
  -25.8040  -30.8882   27.0244 H   0  0  0  0  0  0
  -26.2860  -29.6833   24.1164 H   0  0  0  0  0  0
  -27.4083  -29.7300   25.4560 H   0  0  0  0  0  0
  -27.8683  -30.4411   23.9278 H   0  0  0  0  0  0
  -27.2733  -33.3637   26.2070 H   0  0  0  0  0  0
  -28.3861  -32.6846   25.0288 H   0  0  0  0  0  0
  -28.0752  -31.8438   26.5374 H   0  0  0  0  0  0
  -28.2603  -38.0105   24.7524 H   0  0  0  0  0  0
  -28.1084  -36.2638   24.6269 H   0  0  0  0  0  0
  -27.2308  -37.1428   25.8865 H   0  0  0  0  0  0
  -20.9334  -29.8782   21.6942 H   0  0  0  0  0  0
  -26.0195  -38.2879   24.1417 H   0  0  0  0  0  0
  -28.6990  -21.0956   17.7538 H   0  0  0  0  0  0
  -28.4247  -18.5131   16.9012 H   0  0  0  0  0  0
  -31.2950  -23.6831   20.6140 H   0  0  0  0  0  0
  -30.8787  -25.3902   20.6002 H   0  0  0  0  0  0
  -30.7338  -24.4348   19.1225 H   0  0  0  0  0  0
  -28.6772  -17.9187   21.8191 H   0  0  0  0  0  0
  -30.0832  -18.9465   21.9618 H   0  0  0  0  0  0
  -27.6719  -22.5006   20.2902 H   0  0  0  0  0  0
  -28.7606  -22.7578   18.9674 H   0  0  0  0  0  0
  -29.2624  -21.1203   21.5289 H   0  0  0  0  0  0
  -30.5704  -21.5122   20.4362 H   0  0  0  0  0  0
  -31.0194  -16.8369   22.3228 H   0  0  0  0  0  0
  -31.4339  -17.1345   20.6688 H   0  0  0  0  0  0
  -27.1743  -24.8600   20.3775 H   0  0  0  0  0  0
  -28.0951  -25.0102   18.8958 H   0  0  0  0  0  0
  -29.0531  -24.1071   21.6543 H   0  0  0  0  0  0
  -28.9688  -17.0924   18.9079 H   0  0  0  0  0  0
  -29.0605  -15.3960   21.3608 H   0  0  0  0  0  0
  1 25  1  0  0  0
  1 30  2  0  0  0
  1 83  1  0  0  0
  2  3  1  0  0  0
  2 25  1  0  0  0
  2 84  1  0  0  0
  2 85  1  0  0  0
  3  4  1  0  0  0
  3 86  1  0  0  0
  3 87  1  0  0  0
  4  5  1  0  0  0
  4 88  1  0  0  0
  4 89  1  0  0  0
  5  6  1  0  0  0
  5 26  1  0  0  0
  5 90  1  0  0  0
  6 25  1  0  0  0
  6 91  1  0  0  0
  6 92  1  0  0  0
  7  8  2  0  0  0
  7 26  1  0  0  0
  7 29  1  0  0  0
  8  9  1  0  0  0
  8 22  1  0  0  0
  9 10  1  0  0  0
  9 27  2  0  0  0
 10 11  2  0  0  0
 10 15  1  0  0  0
 11 12  1  0  0  0
 11 93  1  0  0  0
 12 13  2  0  0  0
 12 94  1  0  0  0
 13 14  1  0  0  0
 13 31  1  0  0  0
 14 15  2  0  0  0
 14 95  1  0  0  0
 15 96  1  0  0  0
 16 17  2  0  0  0
 16 21  1  0  0  0
 16 31  1  0  0  0
 17 18  1  0  0  0
 17 97  1  0  0  0
 18 19  2  0  0  0
 18 98  1  0  0  0
 19 20  1  0  0  0
 19 24  1  0  0  0
 20 21  2  0  0  0
 20 99  1  0  0  0
 21 23  1  0  0  0
 22 28  1  0  0  0
 22 32  2  0  0  0
 26 27  1  0  0  0
 28100  1  0  0  0
 28101  1  0  0  0
 29102  1  0  0  0
 29103  1  0  0  0
 33 34  1  0  0  0
 33 66  1  0  0  0
 33 70  2  0  0  0
 34 36  1  0  0  0
 34 59  1  0  0  0
 34104  1  0  0  0
 35 44  2  0  0  0
 35 45  1  0  0  0
 35 68  1  0  0  0
 36 56  1  0  0  0
 36105  1  0  0  0
 37 39  1  0  0  0
 37 47  1  0  0  0
 37 66  1  0  0  0
 37106  1  0  0  0
 38 43  2  0  0  0
 38 46  1  0  0  0
 38 47  1  0  0  0
 39 64  1  0  0  0
 39 67  2  0  0  0
 40 52  1  0  0  0
 40 53  2  0  0  0
 40 58  1  0  0  0
 41107  1  0  0  0
 41108  1  0  0  0
 41109  1  0  0  0
 41 48  1  0  0  0
 42 43  1  0  0  0
 42 66  1  0  0  0
 42110  1  0  0  0
 42111  1  0  0  0
 43 44  1  0  0  0
 44112  1  0  0  0
 45 46  2  0  0  0
 45113  1  0  0  0
 46114  1  0  0  0
 47115  1  0  0  0
 47116  1  0  0  0
 48 56  1  0  0  0
 48 65  1  0  0  0
 48117  1  0  0  0
 49 50  1  0  0  0
 49 53  1  0  0  0
 49 64  1  0  0  0
 49118  1  0  0  0
 50 51  1  0  0  0
 50119  1  0  0  0
 50120  1  0  0  0
 51 52  1  0  0  0
 51121  1  0  0  0
 51122  1  0  0  0
 52123  1  0  0  0
 52124  1  0  0  0
 53 54  1  0  0  0
 54 55  2  0  0  0
 54125  1  0  0  0
 55 57  1  0  0  0
 55126  1  0  0  0
 56 69  2  0  0  0
 57 58  2  0  0  0
 57127  1  0  0  0
 58128  1  0  0  0
 59 60  1  0  0  0
 59 61  1  0  0  0
 59 62  1  0  0  0
 60129  1  0  0  0
 60130  1  0  0  0
 60131  1  0  0  0
 61132  1  0  0  0
 61133  1  0  0  0
 61134  1  0  0  0
 62135  1  0  0  0
 62136  1  0  0  0
 62137  1  0  0  0
 63 65  1  0  0  0
 63138  1  0  0  0
 63139  1  0  0  0
 63140  1  0  0  0
 64141  1  0  0  0
 65142  1  0  0  0
 68 79  1  0  0  0
 71 72  2  0  0  0
 71 81  1  0  0  0
 71143  1  0  0  0
 72 82  1  0  0  0
 72144  1  0  0  0
 73 75  1  0  0  0
 73 81  1  0  0  0
 73 82  2  0  0  0
 74145  1  0  0  0
 74146  1  0  0  0
 74147  1  0  0  0
 74 80  1  0  0  0
 75 78  1  0  0  0
 75148  1  0  0  0
 75149  1  0  0  0
 76 77  1  0  0  0
 76 80  1  0  0  0
 76150  1  0  0  0
 76151  1  0  0  0
 77 81  1  0  0  0
 77152  1  0  0  0
 77153  1  0  0  0
 78 83  1  0  0  0
 78154  1  0  0  0
 78155  1  0  0  0
 79 80  1  0  0  0
 79156  1  0  0  0
 79157  1  0  0  0
 80158  1  0  0  0
 82159  1  0  0  0
 83160  1  0  0  0
M  CHG  1  82   1
M  ISO  4   1 100  68 101  79 101  83 100
M  END
> <chiral flag>
0

> <version>
0

> <s_m_source_file>
/data/baiqing/PycharmProjects/Reinvent-master-3.2/result/LINK_invent/BTK/process_docking_weight1_custom_sum_contain_oxygen_bond_distance_aromatic_linkinvent_7_9_3/rearranged_h_0082.sdf

> <i_m_source_file_index>
63

> <r_mmod_Potential_Energy-OPLS-2005>
-65.5716171264648

> <r_mmod_Stretch_Energy-OPLS-2005>
55.3895149230957

> <r_mmod_Bend_Energy-OPLS-2005>
128.132781982422

> <r_mmod_Torsional_Energy-OPLS-2005>
230.998413085938

> <r_mmod_Improper_Torsional_Energy-OPLS-2005>
3.84936690330505

> <r_mmod_Van_der_Waal_Energy-OPLS-2005>
133.950103759766

> <r_mmod_Electrostatic_Energy-OPLS-2005>
-200.07991027832

> <r_mmod_Solvation_Energy-OPLS-2005>
-442.289154052734

> <b_mmod_Minimization_Converged-OPLS-2005>
0

> <r_mmod_RMS_Derivative-OPLS-2005>
3.8408477306366

$$$$
64
                    3D
 Structure written by MMmdl.
164172  0  0  1  0            999 V2000
  -31.0964  -13.2633   20.9301 C   0  0  0  0  0  0
  -30.5537  -12.6254   18.8369 C   0  0  0  0  0  0
  -29.4308  -12.5245   17.8687 C   0  0  0  0  0  0
  -28.1590  -13.2720   18.2569 C   0  0  0  0  0  0
  -27.9699  -13.9758   19.7015 C   0  0  2  0  0  0
  -29.0835  -13.9226   20.6113 C   0  0  0  0  0  0
  -25.9310  -14.2408   21.0001 C   0  0  0  0  0  0
  -24.1909  -13.6030   20.8527 C   0  0  0  0  0  0
  -24.0593  -12.3203   20.5601 C   0  0  0  0  0  0
  -23.7068  -10.8075   20.9855 C   0  0  0  0  0  0
  -24.2092   -9.8063   21.9184 C   0  0  0  0  0  0
  -23.6235   -8.5015   22.0786 C   0  0  0  0  0  0
  -22.4672   -8.1354   21.3475 C   0  0  0  0  0  0
  -21.9992   -9.0667   20.4097 C   0  0  0  0  0  0
  -22.6111  -10.3270   20.2313 C   0  0  0  0  0  0
  -21.7515   -6.1134   22.5226 C   0  0  0  0  0  0
  -21.4476   -6.5938   23.8155 C   0  0  0  0  0  0
  -21.3785   -5.7008   24.9066 C   0  0  0  0  0  0
  -21.6011   -4.3239   24.7113 C   0  0  0  0  0  0
  -21.8763   -3.8369   23.4224 C   0  0  0  0  0  0
  -21.9408   -4.7255   22.3334 C   0  0  0  0  0  0
  -22.6255  -13.9421   21.1815 C   0  0  0  0  0  0
  -22.1773   -4.2365   21.0920 F   0  0  0  0  0  0
  -21.5492   -3.4681   25.7604 F   0  0  0  0  0  0
  -30.2192  -13.3261   20.0548 N   0  0  0  0  0  0
  -26.8433  -13.8882   20.7865 N   0  0  0  0  0  0
  -24.9764  -13.5315   20.7970 N   0  0  0  0  0  0
  -21.9697  -13.1300   22.0342 N   0  0  0  0  0  0
  -26.8301  -15.3519   21.4369 N   0  0  0  0  0  0
  -32.0395  -14.0736   20.8803 O   0  0  0  0  0  0
  -21.7776   -6.9332   21.4151 O   0  0  0  0  0  0
  -22.0600  -14.8539   20.6056 O   0  0  0  0  0  0
  -24.7236  -31.7442   23.1274 C   0  0  0  0  0  0
  -25.9674  -32.4125   23.7874 C   0  0  1  0  0  0
  -26.5495  -26.0221   20.2491 C   0  0  0  0  0  0
  -25.6095  -33.8011   24.1674 N   0  0  0  0  0  0
  -23.5310  -30.3786   21.5000 C   0  0  2  0  0  0
  -24.8633  -28.6360   20.0686 C   0  0  0  0  0  0
  -22.7791  -29.4109   22.4557 C   0  0  0  0  0  0
  -18.0338  -28.1428   22.8445 C   0  0  0  0  0  0
  -24.1509  -36.7003   23.2661 C   0  0  0  0  0  0
  -26.1104  -30.2150   21.4906 C   0  0  0  0  0  0
  -26.0322  -28.7367   20.8182 C   0  0  0  0  0  0
  -26.8810  -27.4490   20.8782 C   0  0  0  0  0  0
  -25.5390  -26.3354   19.3301 C   0  0  0  0  0  0
  -24.7117  -27.4912   19.2810 C   0  0  0  0  0  0
  -23.7712  -29.7186   20.1130 C   0  0  0  0  0  0
  -25.4180  -36.2699   24.0234 C   0  0  1  0  0  0
  -20.5976  -28.3781   23.1081 C   0  0  2  0  0  0
  -20.6781  -26.9413   22.5402 C   0  0  0  0  0  0
  -19.5761  -26.6347   21.5218 C   0  0  0  0  0  0
  -18.1947  -26.7953   22.1617 C   0  0  0  0  0  0
  -19.1610  -28.8936   23.2748 C   0  0  0  0  0  0
  -18.9519  -30.1519   23.8798 C   0  0  0  0  0  0
  -17.6507  -30.6602   24.0546 C   0  0  0  0  0  0
  -25.9204  -34.9106   23.4818 C   0  0  0  0  0  0
  -16.5393  -29.9082   23.6361 C   0  0  0  0  0  0
  -16.7320  -28.6512   23.0366 C   0  0  0  0  0  0
  -26.4689  -31.6437   25.0734 C   0  0  0  0  0  0
  -25.3622  -31.3923   26.1258 C   0  0  0  0  0  0
  -27.0710  -30.2716   24.7102 C   0  0  0  0  0  0
  -27.6049  -32.4452   25.7532 C   0  0  0  0  0  0
  -27.5552  -37.1663   24.8463 C   0  0  0  0  0  0
  -21.4424  -29.2976   22.3343 N   0  0  0  0  0  0
  -26.4252  -37.3524   23.9405 N   0  0  0  0  0  0
  -24.8280  -30.8352   22.0840 N   0  0  0  0  0  0
  -23.4127  -28.7690   23.2973 O   0  0  0  0  0  0
  -26.9033  -24.3775   20.3383 O   0  0  0  0  0  0
  -26.5896  -34.8777   22.4474 O   0  0  0  0  0  0
  -23.6221  -32.0890   23.5970 O   0  0  0  0  0  0
  -24.5999  -15.4486   22.2969 C   0  0  0  0  0  0
  -25.5219  -14.2331   18.7754 C   0  0  0  0  0  0
  -24.8386  -15.9946   20.1650 C   0  0  0  0  0  0
  -25.3384  -13.5184   23.0485 C   0  0  0  0  0  0
  -26.2212  -12.0983   19.6859 C   0  0  0  0  0  0
  -25.2976  -13.2198   24.5276 C   0  0  0  0  0  0
  -26.4087   -9.5902   19.3560 C   0  0  0  0  0  0
  -25.0597  -18.1343   19.9019 C   0  0  0  0  0  0
  -25.9665  -20.2090   20.3013 C   0  0  0  0  0  0
  -28.6570  -10.6260   20.1929 C   0  0  0  0  0  0
  -29.4434  -11.2542   21.5224 C   0  0  0  0  0  0
  -26.0767  -22.5024   20.0967 C   0  0  0  0  0  0
  -27.2120  -10.9002   19.3540 C   0  0  2  0  0  0
  -26.1349  -11.9873   21.8565 N   0  0  0  0  0  0
  -30.8035  -12.0592   21.5542 N   0  0  0  0  0  0
  -31.3431  -13.2015   18.3496 H   0  0  0  0  0  0
  -31.0101  -11.6445   18.9970 H   0  0  0  0  0  0
  -29.2624  -11.4816   17.6152 H   0  0  0  0  0  0
  -29.7820  -12.9242   16.9143 H   0  0  0  0  0  0
  -27.3051  -12.9037   17.6961 H   0  0  0  0  0  0
  -28.2832  -14.1587   17.6317 H   0  0  0  0  0  0
  -27.9543  -15.0162   19.3603 H   0  0  0  0  0  0
  -28.8552  -13.6680   21.6530 H   0  0  0  0  0  0
  -29.3708  -14.9724   20.7486 H   0  0  0  0  0  0
  -25.0477  -10.0204   22.5596 H   0  0  0  0  0  0
  -24.0505   -7.8115   22.7927 H   0  0  0  0  0  0
  -21.1419   -8.8101   19.8032 H   0  0  0  0  0  0
  -22.1730  -10.9818   19.4901 H   0  0  0  0  0  0
  -21.2671   -7.6472   23.9721 H   0  0  0  0  0  0
  -21.1571   -6.0739   25.8959 H   0  0  0  0  0  0
  -22.0339   -2.7810   23.2657 H   0  0  0  0  0  0
  -22.4516  -12.3702   22.4913 H   0  0  0  0  0  0
  -20.9964  -13.2951   22.2456 H   0  0  0  0  0  0
  -26.0679  -15.8191   21.9309 H   0  0  0  0  0  0
  -27.0695  -15.9095   20.6318 H   0  0  0  0  0  0
  -26.7744  -32.4351   23.0537 H   0  0  0  0  0  0
  -25.0080  -33.8975   24.9722 H   0  0  0  0  0  0
  -22.8859  -31.2437   21.3303 H   0  0  0  0  0  0
  -23.3807  -35.9293   23.3215 H   0  0  0  0  0  0
  -24.3561  -36.8811   22.2098 H   0  0  0  0  0  0
  -23.7243  -37.6117   23.6858 H   0  0  0  0  0  0
  -26.4395  -30.8960   20.7048 H   0  0  0  0  0  0
  -26.9346  -30.2116   22.1875 H   0  0  0  0  0  0
  -27.7226  -27.4772   21.5563 H   0  0  0  0  0  0
  -25.2171  -25.5185   18.6999 H   0  0  0  0  0  0
  -23.8570  -27.4460   18.6192 H   0  0  0  0  0  0
  -24.0482  -30.4913   19.3943 H   0  0  0  0  0  0
  -22.8352  -29.2986   19.7409 H   0  0  0  0  0  0
  -25.1418  -36.1379   25.0721 H   0  0  0  0  0  0
  -21.0073  -28.3443   24.1206 H   0  0  0  0  0  0
  -20.5624  -26.2413   23.3690 H   0  0  0  0  0  0
  -21.6637  -26.7310   22.1234 H   0  0  0  0  0  0
  -19.6890  -25.6235   21.1307 H   0  0  0  0  0  0
  -19.6711  -27.3112   20.6715 H   0  0  0  0  0  0
  -17.4216  -26.6721   21.4016 H   0  0  0  0  0  0
  -18.0304  -26.0121   22.9034 H   0  0  0  0  0  0
  -19.7993  -30.7364   24.2118 H   0  0  0  0  0  0
  -17.5051  -31.6269   24.5171 H   0  0  0  0  0  0
  -15.5387  -30.2944   23.7735 H   0  0  0  0  0  0
  -15.8727  -28.0791   22.7122 H   0  0  0  0  0  0
  -24.5859  -30.7212   25.7554 H   0  0  0  0  0  0
  -24.8753  -32.3194   26.4293 H   0  0  0  0  0  0
  -25.7674  -30.9337   27.0287 H   0  0  0  0  0  0
  -26.3426  -29.6044   24.2479 H   0  0  0  0  0  0
  -27.4226  -29.7531   25.6034 H   0  0  0  0  0  0
  -27.9412  -30.3692   24.0610 H   0  0  0  0  0  0
  -27.2534  -33.3904   26.1680 H   0  0  0  0  0  0
  -28.4040  -32.6773   25.0480 H   0  0  0  0  0  0
  -28.0520  -31.8898   26.5786 H   0  0  0  0  0  0
  -28.2486  -38.0030   24.7525 H   0  0  0  0  0  0
  -28.1130  -36.2544   24.6279 H   0  0  0  0  0  0
  -27.2263  -37.1266   25.8861 H   0  0  0  0  0  0
  -20.9752  -29.8657   21.6411 H   0  0  0  0  0  0
  -26.0023  -38.2542   24.1430 H   0  0  0  0  0  0
  -24.2945  -16.2000   23.0128 H   0  0  0  0  0  0
  -25.7461  -14.4662   17.7441 H   0  0  0  0  0  0
  -24.2846  -12.9630   24.8368 H   0  0  0  0  0  0
  -25.6308  -14.0865   25.0975 H   0  0  0  0  0  0
  -25.9535  -12.3822   24.7615 H   0  0  0  0  0  0
  -25.4830   -9.6805   18.7870 H   0  0  0  0  0  0
  -26.1618   -9.2813   20.3671 H   0  0  0  0  0  0
  -26.9831   -8.7799   18.9070 H   0  0  0  0  0  0
  -24.0214  -18.3783   20.1306 H   0  0  0  0  0  0
  -25.0843  -18.1388   18.8128 H   0  0  0  0  0  0
  -26.9947  -19.9790   20.0204 H   0  0  0  0  0  0
  -25.9807  -20.1553   21.3902 H   0  0  0  0  0  0
  -28.4221   -9.6576   20.6301 H   0  0  0  0  0  0
  -29.3985  -10.2849   19.4759 H   0  0  0  0  0  0
  -29.7470  -10.3681   22.0798 H   0  0  0  0  0  0
  -28.7224  -11.6856   22.2134 H   0  0  0  0  0  0
  -25.1041  -22.7438   20.5267 H   0  0  0  0  0  0
  -25.9082  -22.5789   19.0225 H   0  0  0  0  0  0
  -27.4119  -10.9270   18.2921 H   0  0  0  0  0  0
  -31.5034  -11.7224   22.2013 H   0  0  0  0  0  0
  1 25  1  0  0  0
  1 30  2  0  0  0
  1 85  1  0  0  0
  2  3  1  0  0  0
  2 25  1  0  0  0
  2 86  1  0  0  0
  2 87  1  0  0  0
  3  4  1  0  0  0
  3 88  1  0  0  0
  3 89  1  0  0  0
  4  5  1  0  0  0
  4 90  1  0  0  0
  4 91  1  0  0  0
  5  6  1  0  0  0
  5 26  1  0  0  0
  5 92  1  0  0  0
  6 25  1  0  0  0
  6 93  1  0  0  0
  6 94  1  0  0  0
  7  8  2  0  0  0
  7 26  1  0  0  0
  7 29  1  0  0  0
  8  9  1  0  0  0
  8 22  1  0  0  0
  9 10  1  0  0  0
  9 27  2  0  0  0
 10 11  2  0  0  0
 10 15  1  0  0  0
 11 12  1  0  0  0
 11 95  1  0  0  0
 12 13  2  0  0  0
 12 96  1  0  0  0
 13 14  1  0  0  0
 13 31  1  0  0  0
 14 15  2  0  0  0
 14 97  1  0  0  0
 15 98  1  0  0  0
 16 17  2  0  0  0
 16 21  1  0  0  0
 16 31  1  0  0  0
 17 18  1  0  0  0
 17 99  1  0  0  0
 18 19  2  0  0  0
 18100  1  0  0  0
 19 20  1  0  0  0
 19 24  1  0  0  0
 20 21  2  0  0  0
 20101  1  0  0  0
 21 23  1  0  0  0
 22 28  1  0  0  0
 22 32  2  0  0  0
 26 27  1  0  0  0
 28102  1  0  0  0
 28103  1  0  0  0
 29104  1  0  0  0
 29105  1  0  0  0
 33 34  1  0  0  0
 33 66  1  0  0  0
 33 70  2  0  0  0
 34 36  1  0  0  0
 34 59  1  0  0  0
 34106  1  0  0  0
 35 44  2  0  0  0
 35 45  1  0  0  0
 35 68  1  0  0  0
 36 56  1  0  0  0
 36107  1  0  0  0
 37 39  1  0  0  0
 37 47  1  0  0  0
 37 66  1  0  0  0
 37108  1  0  0  0
 38 43  2  0  0  0
 38 46  1  0  0  0
 38 47  1  0  0  0
 39 64  1  0  0  0
 39 67  2  0  0  0
 40 52  1  0  0  0
 40 53  2  0  0  0
 40 58  1  0  0  0
 41109  1  0  0  0
 41110  1  0  0  0
 41111  1  0  0  0
 41 48  1  0  0  0
 42 43  1  0  0  0
 42 66  1  0  0  0
 42112  1  0  0  0
 42113  1  0  0  0
 43 44  1  0  0  0
 44114  1  0  0  0
 45 46  2  0  0  0
 45115  1  0  0  0
 46116  1  0  0  0
 47117  1  0  0  0
 47118  1  0  0  0
 48 56  1  0  0  0
 48 65  1  0  0  0
 48119  1  0  0  0
 49 50  1  0  0  0
 49 53  1  0  0  0
 49 64  1  0  0  0
 49120  1  0  0  0
 50 51  1  0  0  0
 50121  1  0  0  0
 50122  1  0  0  0
 51 52  1  0  0  0
 51123  1  0  0  0
 51124  1  0  0  0
 52125  1  0  0  0
 52126  1  0  0  0
 53 54  1  0  0  0
 54 55  2  0  0  0
 54127  1  0  0  0
 55 57  1  0  0  0
 55128  1  0  0  0
 56 69  2  0  0  0
 57 58  2  0  0  0
 57129  1  0  0  0
 58130  1  0  0  0
 59 60  1  0  0  0
 59 61  1  0  0  0
 59 62  1  0  0  0
 60131  1  0  0  0
 60132  1  0  0  0
 60133  1  0  0  0
 61134  1  0  0  0
 61135  1  0  0  0
 61136  1  0  0  0
 62137  1  0  0  0
 62138  1  0  0  0
 62139  1  0  0  0
 63 65  1  0  0  0
 63140  1  0  0  0
 63141  1  0  0  0
 63142  1  0  0  0
 64143  1  0  0  0
 65144  1  0  0  0
 68 82  1  0  0  0
 71 73  2  0  0  0
 71 74  1  0  0  0
 71145  1  0  0  0
 72 73  1  0  0  0
 72 75  2  0  0  0
 72146  1  0  0  0
 73 78  1  0  0  0
 74 76  1  0  0  0
 74 84  2  0  0  0
 75 83  1  0  0  0
 75 84  1  0  0  0
 76147  1  0  0  0
 76148  1  0  0  0
 76149  1  0  0  0
 77150  1  0  0  0
 77151  1  0  0  0
 77152  1  0  0  0
 77 83  1  0  0  0
 78 79  1  0  0  0
 78153  1  0  0  0
 78154  1  0  0  0
 79 82  1  0  0  0
 79155  1  0  0  0
 79156  1  0  0  0
 80 81  1  0  0  0
 80 83  1  0  0  0
 80157  1  0  0  0
 80158  1  0  0  0
 81 85  1  0  0  0
 81159  1  0  0  0
 81160  1  0  0  0
 82161  1  0  0  0
 82162  1  0  0  0
 83163  1  0  0  0
 85164  1  0  0  0
M  ISO  4   1 100  68 101  82 101  85 100
M  END
> <chiral flag>
0

> <version>
0

> <s_m_source_file>
/data/baiqing/PycharmProjects/Reinvent-master-3.2/result/LINK_invent/BTK/process_docking_weight1_custom_sum_contain_oxygen_bond_distance_aromatic_linkinvent_7_9_3/rearranged_h_0082.sdf

> <i_m_source_file_index>
64

> <r_mmod_Potential_Energy-OPLS-2005>
24065.990234375

> <r_mmod_Stretch_Energy-OPLS-2005>
13467.6650390625

> <r_mmod_Bend_Energy-OPLS-2005>
2937.97802734375

> <r_mmod_Torsional_Energy-OPLS-2005>
602.872497558594

> <r_mmod_Improper_Torsional_Energy-OPLS-2005>
75.7381362915039

> <r_mmod_Van_der_Waal_Energy-OPLS-2005>
4403.1083984375

> <r_mmod_Electrostatic_Energy-OPLS-2005>
-501.764801025391

> <r_mmod_Solvation_Energy-OPLS-2005>
-215.625335693359

> <b_mmod_Minimization_Converged-OPLS-2005>
0

> <r_mmod_RMS_Derivative-OPLS-2005>
2.79206418991089

$$$$
65
                    3D
 Structure written by MMmdl.
164172  0  0  1  0            999 V2000
  -30.5935  -14.7790   20.4259 C   0  0  0  0  0  0
  -30.4322  -12.4737   19.4738 C   0  0  0  0  0  0
  -29.5107  -12.5100   18.2350 C   0  0  0  0  0  0
  -28.0374  -12.3299   18.6494 C   0  0  0  0  0  0
  -27.6367  -13.2364   19.8431 C   0  0  2  0  0  0
  -28.6827  -13.1965   20.9781 C   0  0  0  0  0  0
  -25.2504  -13.8222   20.5704 C   0  0  0  0  0  0
  -24.1811  -13.0463   20.9220 C   0  0  0  0  0  0
  -24.6408  -11.6935   20.8753 C   0  0  0  0  0  0
  -23.9094  -10.4310   21.0424 C   0  0  0  0  0  0
  -24.3633   -9.4212   21.9198 C   0  0  0  0  0  0
  -23.6299   -8.2256   22.0763 C   0  0  0  0  0  0
  -22.4291   -8.0297   21.3556 C   0  0  0  0  0  0
  -21.9927   -9.0275   20.4657 C   0  0  0  0  0  0
  -22.7261  -10.2148   20.3069 C   0  0  0  0  0  0
  -21.6859   -6.0743   22.5283 C   0  0  0  0  0  0
  -21.4020   -6.5646   23.8213 C   0  0  0  0  0  0
  -21.3653   -5.6802   24.9171 C   0  0  0  0  0  0
  -21.6043   -4.3063   24.7228 C   0  0  0  0  0  0
  -21.8815   -3.8153   23.4351 C   0  0  0  0  0  0
  -21.9188   -4.6973   22.3398 C   0  0  0  0  0  0
  -22.7825  -13.5222   21.1874 C   0  0  0  0  0  0
  -22.1658   -4.2152   21.0978 F   0  0  0  0  0  0
  -21.5616   -3.4546   25.7739 F   0  0  0  0  0  0
  -29.9777  -13.5473   20.3879 N   0  0  0  0  0  0
  -26.2919  -12.9427   20.3257 N   0  0  0  0  0  0
  -25.9338  -11.6562   20.5754 N   0  0  0  0  0  0
  -22.0462  -12.8224   22.0421 N   0  0  0  0  0  0
  -25.4191  -15.1959   20.4118 N   0  0  0  0  0  0
  -31.8014  -14.8530   20.1869 O   0  0  0  0  0  0
  -21.6649   -6.8899   21.4251 O   0  0  0  0  0  0
  -22.3499  -14.5520   20.6707 O   0  0  0  0  0  0
  -24.6320  -31.8507   23.1944 C   0  0  0  0  0  0
  -25.9146  -32.4724   23.8289 C   0  0  1  0  0  0
  -27.2278  -27.2510   20.1511 C   0  0  0  0  0  0
  -25.5956  -33.8517   24.2208 N   0  0  0  0  0  0
  -23.4297  -30.4739   21.5339 C   0  0  2  0  0  0
  -24.8759  -28.8986   20.1265 C   0  0  0  0  0  0
  -22.7488  -29.4624   22.4858 C   0  0  0  0  0  0
  -18.0291  -28.1399   22.8446 C   0  0  0  0  0  0
  -24.1513  -36.7302   23.2634 C   0  0  0  0  0  0
  -25.9743  -30.7670   21.3703 C   0  0  0  0  0  0
  -26.0474  -29.3807   20.7265 C   0  0  0  0  0  0
  -27.2275  -28.5727   20.7139 C   0  0  0  0  0  0
  -26.0307  -26.8179   19.5488 C   0  0  0  0  0  0
  -24.8710  -27.6238   19.5310 C   0  0  0  0  0  0
  -23.6520  -29.7960   20.1545 C   0  0  0  0  0  0
  -25.4137  -36.3047   24.0308 C   0  0  1  0  0  0
  -20.5894  -28.3728   23.1229 C   0  0  2  0  0  0
  -20.6793  -26.9436   22.5383 C   0  0  0  0  0  0
  -19.5776  -26.6379   21.5188 C   0  0  0  0  0  0
  -18.1951  -26.7940   22.1594 C   0  0  0  0  0  0
  -19.1545  -28.8868   23.2845 C   0  0  0  0  0  0
  -18.9476  -30.1460   23.8885 C   0  0  0  0  0  0
  -17.6477  -30.6593   24.0556 C   0  0  0  0  0  0
  -25.9063  -34.9421   23.5060 C   0  0  0  0  0  0
  -16.5361  -29.9106   23.6311 C   0  0  0  0  0  0
  -16.7281  -28.6524   23.0315 C   0  0  0  0  0  0
  -26.4512  -31.6581   25.0697 C   0  0  0  0  0  0
  -25.3742  -31.3757   26.1429 C   0  0  0  0  0  0
  -27.0358  -30.2999   24.6187 C   0  0  0  0  0  0
  -27.6035  -32.4364   25.7499 C   0  0  0  0  0  0
  -27.5591  -37.1807   24.8452 C   0  0  0  0  0  0
  -21.4187  -29.3099   22.3622 N   0  0  0  0  0  0
  -26.4304  -37.3755   23.9391 N   0  0  0  0  0  0
  -24.6980  -31.0505   22.0893 N   0  0  0  0  0  0
  -23.4167  -28.8151   23.2962 O   0  0  0  0  0  0
  -28.3827  -26.4553   20.0283 O   0  0  0  0  0  0
  -26.5608  -34.8908   22.4620 O   0  0  0  0  0  0
  -23.5474  -32.1318   23.7262 O   0  0  0  0  0  0
  -31.2929  -21.8312   22.6267 C   0  0  0  0  0  0
  -30.3406  -22.2997   21.7184 C   0  0  0  0  0  0
  -31.4582  -20.4565   22.7617 C   0  0  0  0  0  0
  -29.5657  -21.4176   20.9310 C   0  0  0  0  0  0
  -29.8369  -19.9681   21.1210 C   0  0  0  0  0  0
  -31.4277  -16.8941   17.8573 C   0  0  0  0  0  0
  -28.9042  -16.8240   17.8326 C   0  0  0  0  0  0
  -28.6191  -22.1829   19.9115 C   0  0  0  0  0  0
  -29.1655  -18.6376   20.5526 C   0  0  0  0  0  0
  -27.9132  -23.6637   20.1417 C   0  0  0  0  0  0
  -28.6060  -25.0679   20.5738 C   0  0  0  0  0  0
  -30.1462  -17.4602   18.4893 C   0  0  0  0  0  0
  -30.1078  -17.3810   20.0480 C   0  0  2  0  0  0
  -30.7399  -19.5728   22.0495 N   0  0  0  0  0  0
  -29.7990  -15.9248   20.4793 N   0  0  0  0  0  0
  -31.4726  -12.6016   19.1686 H   0  0  0  0  0  0
  -30.3797  -11.5030   19.9685 H   0  0  0  0  0  0
  -29.7970  -11.7339   17.5244 H   0  0  0  0  0  0
  -29.6339  -13.4595   17.7119 H   0  0  0  0  0  0
  -27.8979  -11.2827   18.9179 H   0  0  0  0  0  0
  -27.3807  -12.5153   17.7995 H   0  0  0  0  0  0
  -27.6208  -14.2521   19.4479 H   0  0  0  0  0  0
  -28.7291  -12.2100   21.4411 H   0  0  0  0  0  0
  -28.4204  -13.9004   21.7703 H   0  0  0  0  0  0
  -25.2778   -9.5681   22.4768 H   0  0  0  0  0  0
  -24.0002   -7.4650   22.7492 H   0  0  0  0  0  0
  -21.0844   -8.8806   19.8970 H   0  0  0  0  0  0
  -22.3730  -10.9691   19.6174 H   0  0  0  0  0  0
  -21.2034   -7.6159   23.9717 H   0  0  0  0  0  0
  -21.1469   -6.0532   25.9072 H   0  0  0  0  0  0
  -22.0600   -2.7618   23.2849 H   0  0  0  0  0  0
  -22.4067  -11.9872   22.4793 H   0  0  0  0  0  0
  -21.1087  -13.1270   22.2645 H   0  0  0  0  0  0
  -24.6528  -15.8500   20.5294 H   0  0  0  0  0  0
  -26.2571  -15.6331   20.0518 H   0  0  0  0  0  0
  -26.7191  -32.5393   23.1015 H   0  0  0  0  0  0
  -25.0163  -33.9626   25.0395 H   0  0  0  0  0  0
  -22.7292  -31.2975   21.3779 H   0  0  0  0  0  0
  -23.3747  -35.9664   23.3275 H   0  0  0  0  0  0
  -24.3606  -36.8952   22.2056 H   0  0  0  0  0  0
  -23.7305  -37.6510   23.6686 H   0  0  0  0  0  0
  -26.1001  -31.5231   20.5945 H   0  0  0  0  0  0
  -26.8576  -30.8270   21.9969 H   0  0  0  0  0  0
  -28.1423  -28.9555   21.1447 H   0  0  0  0  0  0
  -25.9980  -25.8501   19.0681 H   0  0  0  0  0  0
  -23.9756  -27.2442   19.0581 H   0  0  0  0  0  0
  -23.7904  -30.5674   19.3953 H   0  0  0  0  0  0
  -22.7685  -29.2364   19.8422 H   0  0  0  0  0  0
  -25.1323  -36.1873   25.0802 H   0  0  0  0  0  0
  -21.0002  -28.3336   24.1346 H   0  0  0  0  0  0
  -20.5712  -26.2342   23.3601 H   0  0  0  0  0  0
  -21.6665  -26.7471   22.1178 H   0  0  0  0  0  0
  -19.6953  -25.6274   21.1274 H   0  0  0  0  0  0
  -19.6742  -27.3134   20.6672 H   0  0  0  0  0  0
  -17.4221  -26.6642   21.4000 H   0  0  0  0  0  0
  -18.0370  -26.0098   22.9008 H   0  0  0  0  0  0
  -19.7953  -30.7259   24.2285 H   0  0  0  0  0  0
  -17.5035  -31.6279   24.5154 H   0  0  0  0  0  0
  -15.5363  -30.3007   23.7659 H   0  0  0  0  0  0
  -15.8671  -28.0869   22.7016 H   0  0  0  0  0  0
  -24.5904  -30.7096   25.7793 H   0  0  0  0  0  0
  -24.8947  -32.2938   26.4839 H   0  0  0  0  0  0
  -25.8078  -30.8963   27.0213 H   0  0  0  0  0  0
  -26.2923  -29.6740   24.1222 H   0  0  0  0  0  0
  -27.4033  -29.7280   25.4714 H   0  0  0  0  0  0
  -27.8808  -30.4260   23.9411 H   0  0  0  0  0  0
  -27.2578  -33.3663   26.2039 H   0  0  0  0  0  0
  -28.3878  -32.6935   25.0364 H   0  0  0  0  0  0
  -28.0668  -31.8529   26.5463 H   0  0  0  0  0  0
  -28.2571  -38.0135   24.7494 H   0  0  0  0  0  0
  -28.1121  -36.2651   24.6287 H   0  0  0  0  0  0
  -27.2291  -37.1475   25.8849 H   0  0  0  0  0  0
  -20.9358  -29.8879   21.6886 H   0  0  0  0  0  0
  -26.0161  -38.2818   24.1401 H   0  0  0  0  0  0
  -31.8863  -22.5167   23.2172 H   0  0  0  0  0  0
  -30.2351  -23.3653   21.6393 H   0  0  0  0  0  0
  -32.1794  -20.0528   23.4568 H   0  0  0  0  0  0
  -31.5216  -17.2084   16.8182 H   0  0  0  0  0  0
  -31.4370  -15.8061   17.8581 H   0  0  0  0  0  0
  -32.3193  -17.2401   18.3828 H   0  0  0  0  0  0
  -28.8744  -17.0291   16.7623 H   0  0  0  0  0  0
  -27.9749  -17.2002   18.2620 H   0  0  0  0  0  0
  -28.8972  -15.7404   17.9479 H   0  0  0  0  0  0
  -27.8157  -21.4892   19.6576 H   0  0  0  0  0  0
  -29.2028  -22.2603   18.9927 H   0  0  0  0  0  0
  -28.4673  -18.9303   19.7680 H   0  0  0  0  0  0
  -28.5242  -18.2675   21.3524 H   0  0  0  0  0  0
  -27.0883  -23.5139   20.8401 H   0  0  0  0  0  0
  -27.4125  -23.8734   19.1976 H   0  0  0  0  0  0
  -29.6650  -24.9414   20.3522 H   0  0  0  0  0  0
  -28.5577  -25.1445   21.6610 H   0  0  0  0  0  0
  -30.1445  -18.5197   18.2236 H   0  0  0  0  0  0
  -31.1133  -17.5793   20.4220 H   0  0  0  0  0  0
  -28.8321  -15.7463   20.6982 H   0  0  0  0  0  0
  1 25  1  0  0  0
  1 30  2  0  0  0
  1 85  1  0  0  0
  2  3  1  0  0  0
  2 25  1  0  0  0
  2 86  1  0  0  0
  2 87  1  0  0  0
  3  4  1  0  0  0
  3 88  1  0  0  0
  3 89  1  0  0  0
  4  5  1  0  0  0
  4 90  1  0  0  0
  4 91  1  0  0  0
  5  6  1  0  0  0
  5 26  1  0  0  0
  5 92  1  0  0  0
  6 25  1  0  0  0
  6 93  1  0  0  0
  6 94  1  0  0  0
  7  8  2  0  0  0
  7 26  1  0  0  0
  7 29  1  0  0  0
  8  9  1  0  0  0
  8 22  1  0  0  0
  9 10  1  0  0  0
  9 27  2  0  0  0
 10 11  2  0  0  0
 10 15  1  0  0  0
 11 12  1  0  0  0
 11 95  1  0  0  0
 12 13  2  0  0  0
 12 96  1  0  0  0
 13 14  1  0  0  0
 13 31  1  0  0  0
 14 15  2  0  0  0
 14 97  1  0  0  0
 15 98  1  0  0  0
 16 17  2  0  0  0
 16 21  1  0  0  0
 16 31  1  0  0  0
 17 18  1  0  0  0
 17 99  1  0  0  0
 18 19  2  0  0  0
 18100  1  0  0  0
 19 20  1  0  0  0
 19 24  1  0  0  0
 20 21  2  0  0  0
 20101  1  0  0  0
 21 23  1  0  0  0
 22 28  1  0  0  0
 22 32  2  0  0  0
 26 27  1  0  0  0
 28102  1  0  0  0
 28103  1  0  0  0
 29104  1  0  0  0
 29105  1  0  0  0
 33 34  1  0  0  0
 33 66  1  0  0  0
 33 70  2  0  0  0
 34 36  1  0  0  0
 34 59  1  0  0  0
 34106  1  0  0  0
 35 44  2  0  0  0
 35 45  1  0  0  0
 35 68  1  0  0  0
 36 56  1  0  0  0
 36107  1  0  0  0
 37 39  1  0  0  0
 37 47  1  0  0  0
 37 66  1  0  0  0
 37108  1  0  0  0
 38 43  2  0  0  0
 38 46  1  0  0  0
 38 47  1  0  0  0
 39 64  1  0  0  0
 39 67  2  0  0  0
 40 52  1  0  0  0
 40 53  2  0  0  0
 40 58  1  0  0  0
 41109  1  0  0  0
 41110  1  0  0  0
 41111  1  0  0  0
 41 48  1  0  0  0
 42 43  1  0  0  0
 42 66  1  0  0  0
 42112  1  0  0  0
 42113  1  0  0  0
 43 44  1  0  0  0
 44114  1  0  0  0
 45 46  2  0  0  0
 45115  1  0  0  0
 46116  1  0  0  0
 47117  1  0  0  0
 47118  1  0  0  0
 48 56  1  0  0  0
 48 65  1  0  0  0
 48119  1  0  0  0
 49 50  1  0  0  0
 49 53  1  0  0  0
 49 64  1  0  0  0
 49120  1  0  0  0
 50 51  1  0  0  0
 50121  1  0  0  0
 50122  1  0  0  0
 51 52  1  0  0  0
 51123  1  0  0  0
 51124  1  0  0  0
 52125  1  0  0  0
 52126  1  0  0  0
 53 54  1  0  0  0
 54 55  2  0  0  0
 54127  1  0  0  0
 55 57  1  0  0  0
 55128  1  0  0  0
 56 69  2  0  0  0
 57 58  2  0  0  0
 57129  1  0  0  0
 58130  1  0  0  0
 59 60  1  0  0  0
 59 61  1  0  0  0
 59 62  1  0  0  0
 60131  1  0  0  0
 60132  1  0  0  0
 60133  1  0  0  0
 61134  1  0  0  0
 61135  1  0  0  0
 61136  1  0  0  0
 62137  1  0  0  0
 62138  1  0  0  0
 62139  1  0  0  0
 63 65  1  0  0  0
 63140  1  0  0  0
 63141  1  0  0  0
 63142  1  0  0  0
 64143  1  0  0  0
 65144  1  0  0  0
 68 81  1  0  0  0
 71 72  2  0  0  0
 71 73  1  0  0  0
 71145  1  0  0  0
 72 74  1  0  0  0
 72146  1  0  0  0
 73 84  2  0  0  0
 73147  1  0  0  0
 74 75  2  0  0  0
 74 78  1  0  0  0
 75 79  1  0  0  0
 75 84  1  0  0  0
 76148  1  0  0  0
 76149  1  0  0  0
 76150  1  0  0  0
 76 82  1  0  0  0
 77 82  1  0  0  0
 77151  1  0  0  0
 77152  1  0  0  0
 77153  1  0  0  0
 78 80  1  0  0  0
 78154  1  0  0  0
 78155  1  0  0  0
 79156  1  0  0  0
 79157  1  0  0  0
 79 83  1  0  0  0
 80 81  1  0  0  0
 80158  1  0  0  0
 80159  1  0  0  0
 81160  1  0  0  0
 81161  1  0  0  0
 82 83  1  0  0  0
 82162  1  0  0  0
 83 85  1  0  0  0
 83163  1  0  0  0
 85164  1  0  0  0
M  ISO  4   1 100  68 101  81 101  85 100
M  END
> <chiral flag>
0

> <version>
0

> <s_m_source_file>
/data/baiqing/PycharmProjects/Reinvent-master-3.2/result/LINK_invent/BTK/process_docking_weight1_custom_sum_contain_oxygen_bond_distance_aromatic_linkinvent_7_9_3/rearranged_h_0082.sdf

> <i_m_source_file_index>
65

> <r_mmod_Potential_Energy-OPLS-2005>
198.338806152344

> <r_mmod_Stretch_Energy-OPLS-2005>
155.694900512695

> <r_mmod_Bend_Energy-OPLS-2005>
274.47705078125

> <r_mmod_Torsional_Energy-OPLS-2005>
258.258575439453

> <r_mmod_Improper_Torsional_Energy-OPLS-2005>
7.32891368865967

> <r_mmod_Van_der_Waal_Energy-OPLS-2005>
130.218017578125

> <r_mmod_Electrostatic_Energy-OPLS-2005>
-495.96142578125

> <r_mmod_Solvation_Energy-OPLS-2005>
-221.304504394531

> <b_mmod_Minimization_Converged-OPLS-2005>
0

> <r_mmod_RMS_Derivative-OPLS-2005>
2.60717582702637

$$$$
66
                    3D
 Structure written by MMmdl.
162170  0  0  1  0            999 V2000
  -30.7410  -14.3247   20.7092 C   0  0  0  0  0  0
  -30.4299  -12.2753   19.3689 C   0  0  0  0  0  0
  -29.4856  -12.5425   18.1822 C   0  0  0  0  0  0
  -28.0099  -12.3902   18.6002 C   0  0  0  0  0  0
  -27.6762  -13.1883   19.8848 C   0  0  2  0  0  0
  -28.7101  -12.8713   20.9855 C   0  0  0  0  0  0
  -25.2682  -13.8131   20.5625 C   0  0  0  0  0  0
  -24.1901  -13.0459   20.9166 C   0  0  0  0  0  0
  -24.6400  -11.6908   20.8711 C   0  0  0  0  0  0
  -23.9042  -10.4306   21.0367 C   0  0  0  0  0  0
  -24.3611   -9.4228   21.9145 C   0  0  0  0  0  0
  -23.6294   -8.2259   22.0732 C   0  0  0  0  0  0
  -22.4271   -8.0289   21.3535 C   0  0  0  0  0  0
  -21.9892   -9.0252   20.4631 C   0  0  0  0  0  0
  -22.7209  -10.2136   20.3025 C   0  0  0  0  0  0
  -21.6860   -6.0735   22.5275 C   0  0  0  0  0  0
  -21.4018   -6.5643   23.8209 C   0  0  0  0  0  0
  -21.3645   -5.6801   24.9173 C   0  0  0  0  0  0
  -21.6034   -4.3067   24.7228 C   0  0  0  0  0  0
  -21.8818   -3.8159   23.4352 C   0  0  0  0  0  0
  -21.9202   -4.6965   22.3409 C   0  0  0  0  0  0
  -22.7934  -13.5282   21.1824 C   0  0  0  0  0  0
  -22.1673   -4.2151   21.0988 F   0  0  0  0  0  0
  -21.5625   -3.4548   25.7739 F   0  0  0  0  0  0
  -30.0630  -13.1763   20.4686 N   0  0  0  0  0  0
  -26.3101  -12.9262   20.3375 N   0  0  0  0  0  0
  -25.9319  -11.6442   20.5726 N   0  0  0  0  0  0
  -22.0579  -12.8268   22.0378 N   0  0  0  0  0  0
  -25.4488  -15.1827   20.3930 N   0  0  0  0  0  0
  -31.7055  -14.7192   20.0457 O   0  0  0  0  0  0
  -21.6659   -6.8872   21.4229 O   0  0  0  0  0  0
  -22.3620  -14.5585   20.6666 O   0  0  0  0  0  0
  -24.6110  -31.8724   23.2165 C   0  0  0  0  0  0
  -25.9014  -32.4856   23.8457 C   0  0  1  0  0  0
  -27.2252  -27.4635   20.0821 C   0  0  0  0  0  0
  -25.5877  -33.8657   24.2377 N   0  0  0  0  0  0
  -23.3984  -30.4995   21.5554 C   0  0  2  0  0  0
  -24.8418  -28.9740   20.1165 C   0  0  0  0  0  0
  -22.7391  -29.4701   22.5013 C   0  0  0  0  0  0
  -18.0250  -28.1382   22.8511 C   0  0  0  0  0  0
  -24.1478  -36.7337   23.2639 C   0  0  0  0  0  0
  -25.9268  -30.8417   21.3721 C   0  0  0  0  0  0
  -26.0000  -29.4782   20.7207 C   0  0  0  0  0  0
  -27.1946  -28.7264   20.7103 C   0  0  0  0  0  0
  -26.0629  -26.9963   19.4319 C   0  0  0  0  0  0
  -24.8651  -27.7274   19.4728 C   0  0  0  0  0  0
  -23.6064  -29.8392   20.1688 C   0  0  0  0  0  0
  -25.4100  -36.3144   24.0346 C   0  0  1  0  0  0
  -20.5844  -28.3693   23.1320 C   0  0  2  0  0  0
  -20.6758  -26.9427   22.5427 C   0  0  0  0  0  0
  -19.5726  -26.6377   21.5245 C   0  0  0  0  0  0
  -18.1913  -26.7919   22.1678 C   0  0  0  0  0  0
  -19.1492  -28.8849   23.2916 C   0  0  0  0  0  0
  -18.9412  -30.1454   23.8919 C   0  0  0  0  0  0
  -17.6418  -30.6590   24.0565 C   0  0  0  0  0  0
  -25.9023  -34.9499   23.5162 C   0  0  0  0  0  0
  -16.5309  -29.9102   23.6317 C   0  0  0  0  0  0
  -16.7233  -28.6512   23.0349 C   0  0  0  0  0  0
  -26.4454  -31.6628   25.0775 C   0  0  0  0  0  0
  -25.3729  -31.3715   26.1527 C   0  0  0  0  0  0
  -27.0270  -30.3077   24.6117 C   0  0  0  0  0  0
  -27.6053  -32.4325   25.7518 C   0  0  0  0  0  0
  -27.5584  -37.1825   24.8469 C   0  0  0  0  0  0
  -21.4121  -29.3077   22.3743 N   0  0  0  0  0  0
  -26.4302  -37.3817   23.9406 N   0  0  0  0  0  0
  -24.6628  -31.0858   22.1055 N   0  0  0  0  0  0
  -23.4162  -28.8246   23.3060 O   0  0  0  0  0  0
  -28.3876  -26.7295   20.0629 O   0  0  0  0  0  0
  -26.5582  -34.8929   22.4723 O   0  0  0  0  0  0
  -23.5304  -32.1466   23.7554 O   0  0  0  0  0  0
  -28.3211  -20.2556   22.6052 C   0  0  0  0  0  0
  -27.4305  -18.5747   21.5166 C   0  0  0  0  0  0
  -27.3223  -19.9288   21.6381 C   0  0  0  0  0  0
  -25.2884  -21.3781   21.9162 C   0  0  0  0  0  0
  -27.8271  -22.9803   20.7871 C   0  0  0  0  0  0
  -27.7001  -24.3430   20.0937 C   0  0  0  0  0  0
  -26.9845  -21.9104   20.0579 C   0  0  0  0  0  0
  -28.8673  -16.7976   22.6003 C   0  0  0  0  0  0
  -30.1835  -16.4505   21.8790 C   0  0  0  0  0  0
  -28.3689  -25.5189   20.8312 C   0  0  0  0  0  0
  -26.3318  -20.8203   20.9339 C   0  0  1  0  0  0
  -28.9875  -19.1915   23.0323 N   0  0  0  0  0  0
  -28.4308  -18.1580   22.3633 N   0  0  0  0  0  0
  -30.2562  -15.0029   21.7499 N   0  0  0  0  0  0
  -31.4699  -12.4002   19.0638 H   0  0  0  0  0  0
  -30.3390  -11.2375   19.6949 H   0  0  0  0  0  0
  -29.7094  -11.8580   17.3622 H   0  0  0  0  0  0
  -29.6589  -13.5501   17.7993 H   0  0  0  0  0  0
  -27.8140  -11.3306   18.7631 H   0  0  0  0  0  0
  -27.3559  -12.6986   17.7833 H   0  0  0  0  0  0
  -27.7524  -14.2478   19.6422 H   0  0  0  0  0  0
  -28.4456  -13.3881   21.9090 H   0  0  0  0  0  0
  -28.6683  -11.8136   21.2428 H   0  0  0  0  0  0
  -25.2736   -9.5742   22.4729 H   0  0  0  0  0  0
  -23.9999   -7.4666   22.7471 H   0  0  0  0  0  0
  -21.0810   -8.8784   19.8955 H   0  0  0  0  0  0
  -22.3644  -10.9685   19.6167 H   0  0  0  0  0  0
  -21.2013   -7.6153   23.9712 H   0  0  0  0  0  0
  -21.1451   -6.0528   25.9068 H   0  0  0  0  0  0
  -22.0598   -2.7618   23.2859 H   0  0  0  0  0  0
  -22.4202  -11.9920   22.4745 H   0  0  0  0  0  0
  -21.1198  -13.1297   22.2597 H   0  0  0  0  0  0
  -24.6730  -15.8334   20.4358 H   0  0  0  0  0  0
  -26.2793  -15.5795   19.9715 H   0  0  0  0  0  0
  -26.7078  -32.5567   23.1215 H   0  0  0  0  0  0
  -25.0033  -33.9846   25.0520 H   0  0  0  0  0  0
  -22.6874  -31.3165   21.4165 H   0  0  0  0  0  0
  -23.3739  -35.9677   23.3327 H   0  0  0  0  0  0
  -24.3586  -36.8918   22.2055 H   0  0  0  0  0  0
  -23.7223  -37.6547   23.6628 H   0  0  0  0  0  0
  -26.0419  -31.6093   20.6046 H   0  0  0  0  0  0
  -26.8150  -30.8919   21.9900 H   0  0  0  0  0  0
  -28.0884  -29.1107   21.1821 H   0  0  0  0  0  0
  -26.0729  -26.0890   18.8505 H   0  0  0  0  0  0
  -23.9832  -27.3488   18.9757 H   0  0  0  0  0  0
  -23.7148  -30.6176   19.4131 H   0  0  0  0  0  0
  -22.7316  -29.2599   19.8696 H   0  0  0  0  0  0
  -25.1269  -36.2046   25.0844 H   0  0  0  0  0  0
  -20.9929  -28.3285   24.1450 H   0  0  0  0  0  0
  -20.5741  -26.2294   23.3632 H   0  0  0  0  0  0
  -21.6620  -26.7509   22.1192 H   0  0  0  0  0  0
  -19.6843  -25.6278   21.1266 H   0  0  0  0  0  0
  -19.6672  -27.3179   20.6761 H   0  0  0  0  0  0
  -17.4166  -26.6618   21.4110 H   0  0  0  0  0  0
  -18.0356  -26.0105   22.9120 H   0  0  0  0  0  0
  -19.7890  -30.7268   24.2311 H   0  0  0  0  0  0
  -17.4977  -31.6269   24.5176 H   0  0  0  0  0  0
  -15.5314  -30.3027   23.7633 H   0  0  0  0  0  0
  -15.8646  -28.0845   22.7024 H   0  0  0  0  0  0
  -24.5897  -30.7068   25.7853 H   0  0  0  0  0  0
  -24.8924  -32.2863   26.5008 H   0  0  0  0  0  0
  -25.8089  -30.8856   27.0265 H   0  0  0  0  0  0
  -26.2802  -29.6865   24.1153 H   0  0  0  0  0  0
  -27.4029  -29.7285   25.4561 H   0  0  0  0  0  0
  -27.8651  -30.4412   23.9274 H   0  0  0  0  0  0
  -27.2699  -33.3607   26.2151 H   0  0  0  0  0  0
  -28.3828  -32.6904   25.0318 H   0  0  0  0  0  0
  -28.0759  -31.8414   26.5378 H   0  0  0  0  0  0
  -28.2619  -38.0102   24.7505 H   0  0  0  0  0  0
  -28.1052  -36.2637   24.6305 H   0  0  0  0  0  0
  -27.2309  -37.1497   25.8874 H   0  0  0  0  0  0
  -20.9305  -29.8828   21.6977 H   0  0  0  0  0  0
  -26.0201  -38.2906   24.1381 H   0  0  0  0  0  0
  -28.5692  -21.2248   23.0144 H   0  0  0  0  0  0
  -26.8657  -17.8745   20.9148 H   0  0  0  0  0  0
  -25.7430  -21.9709   22.7085 H   0  0  0  0  0  0
  -24.7364  -20.5678   22.3943 H   0  0  0  0  0  0
  -24.5615  -22.0096   21.4030 H   0  0  0  0  0  0
  -27.4976  -23.0908   21.8192 H   0  0  0  0  0  0
  -28.8724  -22.6733   20.8270 H   0  0  0  0  0  0
  -26.6342  -24.5320   20.0340 H   0  0  0  0  0  0
  -28.0765  -24.2815   19.0711 H   0  0  0  0  0  0
  -27.5918  -21.4483   19.2761 H   0  0  0  0  0  0
  -26.1715  -22.3993   19.5175 H   0  0  0  0  0  0
  -28.9539  -16.6279   23.6737 H   0  0  0  0  0  0
  -28.0620  -16.1466   22.2564 H   0  0  0  0  0  0
  -31.0433  -16.8319   22.4304 H   0  0  0  0  0  0
  -30.1957  -16.9103   20.8883 H   0  0  0  0  0  0
  -29.4028  -25.2612   21.0608 H   0  0  0  0  0  0
  -27.8808  -25.6905   21.7919 H   0  0  0  0  0  0
  -25.7608  -20.2062   20.2334 H   0  0  0  0  0  0
  -29.5870  -14.4835   22.2996 H   0  0  0  0  0  0
  1 25  1  0  0  0
  1 30  2  0  0  0
  1 84  1  0  0  0
  2  3  1  0  0  0
  2 25  1  0  0  0
  2 85  1  0  0  0
  2 86  1  0  0  0
  3  4  1  0  0  0
  3 87  1  0  0  0
  3 88  1  0  0  0
  4  5  1  0  0  0
  4 89  1  0  0  0
  4 90  1  0  0  0
  5  6  1  0  0  0
  5 26  1  0  0  0
  5 91  1  0  0  0
  6 25  1  0  0  0
  6 92  1  0  0  0
  6 93  1  0  0  0
  7  8  2  0  0  0
  7 26  1  0  0  0
  7 29  1  0  0  0
  8  9  1  0  0  0
  8 22  1  0  0  0
  9 10  1  0  0  0
  9 27  2  0  0  0
 10 11  2  0  0  0
 10 15  1  0  0  0
 11 12  1  0  0  0
 11 94  1  0  0  0
 12 13  2  0  0  0
 12 95  1  0  0  0
 13 14  1  0  0  0
 13 31  1  0  0  0
 14 15  2  0  0  0
 14 96  1  0  0  0
 15 97  1  0  0  0
 16 17  2  0  0  0
 16 21  1  0  0  0
 16 31  1  0  0  0
 17 18  1  0  0  0
 17 98  1  0  0  0
 18 19  2  0  0  0
 18 99  1  0  0  0
 19 20  1  0  0  0
 19 24  1  0  0  0
 20 21  2  0  0  0
 20100  1  0  0  0
 21 23  1  0  0  0
 22 28  1  0  0  0
 22 32  2  0  0  0
 26 27  1  0  0  0
 28101  1  0  0  0
 28102  1  0  0  0
 29103  1  0  0  0
 29104  1  0  0  0
 33 34  1  0  0  0
 33 66  1  0  0  0
 33 70  2  0  0  0
 34 36  1  0  0  0
 34 59  1  0  0  0
 34105  1  0  0  0
 35 44  2  0  0  0
 35 45  1  0  0  0
 35 68  1  0  0  0
 36 56  1  0  0  0
 36106  1  0  0  0
 37 39  1  0  0  0
 37 47  1  0  0  0
 37 66  1  0  0  0
 37107  1  0  0  0
 38 43  2  0  0  0
 38 46  1  0  0  0
 38 47  1  0  0  0
 39 64  1  0  0  0
 39 67  2  0  0  0
 40 52  1  0  0  0
 40 53  2  0  0  0
 40 58  1  0  0  0
 41108  1  0  0  0
 41109  1  0  0  0
 41110  1  0  0  0
 41 48  1  0  0  0
 42 43  1  0  0  0
 42 66  1  0  0  0
 42111  1  0  0  0
 42112  1  0  0  0
 43 44  1  0  0  0
 44113  1  0  0  0
 45 46  2  0  0  0
 45114  1  0  0  0
 46115  1  0  0  0
 47116  1  0  0  0
 47117  1  0  0  0
 48 56  1  0  0  0
 48 65  1  0  0  0
 48118  1  0  0  0
 49 50  1  0  0  0
 49 53  1  0  0  0
 49 64  1  0  0  0
 49119  1  0  0  0
 50 51  1  0  0  0
 50120  1  0  0  0
 50121  1  0  0  0
 51 52  1  0  0  0
 51122  1  0  0  0
 51123  1  0  0  0
 52124  1  0  0  0
 52125  1  0  0  0
 53 54  1  0  0  0
 54 55  2  0  0  0
 54126  1  0  0  0
 55 57  1  0  0  0
 55127  1  0  0  0
 56 69  2  0  0  0
 57 58  2  0  0  0
 57128  1  0  0  0
 58129  1  0  0  0
 59 60  1  0  0  0
 59 61  1  0  0  0
 59 62  1  0  0  0
 60130  1  0  0  0
 60131  1  0  0  0
 60132  1  0  0  0
 61133  1  0  0  0
 61134  1  0  0  0
 61135  1  0  0  0
 62136  1  0  0  0
 62137  1  0  0  0
 62138  1  0  0  0
 63 65  1  0  0  0
 63139  1  0  0  0
 63140  1  0  0  0
 63141  1  0  0  0
 64142  1  0  0  0
 65143  1  0  0  0
 68 80  1  0  0  0
 71 73  1  0  0  0
 71 82  2  0  0  0
 71144  1  0  0  0
 72 73  2  0  0  0
 72 83  1  0  0  0
 72145  1  0  0  0
 73 81  1  0  0  0
 74146  1  0  0  0
 74147  1  0  0  0
 74148  1  0  0  0
 74 81  1  0  0  0
 75 76  1  0  0  0
 75 77  1  0  0  0
 75149  1  0  0  0
 75150  1  0  0  0
 76 80  1  0  0  0
 76151  1  0  0  0
 76152  1  0  0  0
 77 81  1  0  0  0
 77153  1  0  0  0
 77154  1  0  0  0
 78 79  1  0  0  0
 78 83  1  0  0  0
 78155  1  0  0  0
 78156  1  0  0  0
 79 84  1  0  0  0
 79157  1  0  0  0
 79158  1  0  0  0
 80159  1  0  0  0
 80160  1  0  0  0
 81161  1  0  0  0
 82 83  1  0  0  0
 84162  1  0  0  0
M  ISO  4   1 100  68 101  80 101  84 100
M  END
> <chiral flag>
0

> <version>
0

> <s_m_source_file>
/data/baiqing/PycharmProjects/Reinvent-master-3.2/result/LINK_invent/BTK/process_docking_weight1_custom_sum_contain_oxygen_bond_distance_aromatic_linkinvent_7_9_3/rearranged_h_0082.sdf

> <i_m_source_file_index>
66

> <r_mmod_Potential_Energy-OPLS-2005>
-65.6306076049805

> <r_mmod_Stretch_Energy-OPLS-2005>
30.2306747436523

> <r_mmod_Bend_Energy-OPLS-2005>
93.0080718994141

> <r_mmod_Torsional_Energy-OPLS-2005>
251.586166381836

> <r_mmod_Improper_Torsional_Energy-OPLS-2005>
4.29597616195679

> <r_mmod_Van_der_Waal_Energy-OPLS-2005>
129.29118347168

> <r_mmod_Electrostatic_Energy-OPLS-2005>
-361.064666748047

> <r_mmod_Solvation_Energy-OPLS-2005>
-223.003311157227

> <b_mmod_Minimization_Converged-OPLS-2005>
0

> <r_mmod_RMS_Derivative-OPLS-2005>
2.83843088150024

$$$$
67
                    3D
 Structure written by MMmdl.
163171  0  0  1  0            999 V2000
  -30.7560  -14.4058   20.6454 C   0  0  0  0  0  0
  -30.4193  -12.2950   19.4128 C   0  0  0  0  0  0
  -29.4898  -12.5204   18.2044 C   0  0  0  0  0  0
  -28.0144  -12.3689   18.6196 C   0  0  0  0  0  0
  -27.6647  -13.2062   19.8781 C   0  0  2  0  0  0
  -28.7047  -12.9770   20.9994 C   0  0  0  0  0  0
  -25.2553  -13.8136   20.5595 C   0  0  0  0  0  0
  -24.1831  -13.0425   20.9176 C   0  0  0  0  0  0
  -24.6403  -11.6904   20.8763 C   0  0  0  0  0  0
  -23.9069  -10.4292   21.0418 C   0  0  0  0  0  0
  -24.3625   -9.4203   21.9188 C   0  0  0  0  0  0
  -23.6301   -8.2240   22.0755 C   0  0  0  0  0  0
  -22.4280   -8.0284   21.3546 C   0  0  0  0  0  0
  -21.9915   -9.0252   20.4640 C   0  0  0  0  0  0
  -22.7246  -10.2129   20.3052 C   0  0  0  0  0  0
  -21.6851   -6.0750   22.5288 C   0  0  0  0  0  0
  -21.4013   -6.5655   23.8221 C   0  0  0  0  0  0
  -21.3648   -5.6800   24.9187 C   0  0  0  0  0  0
  -21.6043   -4.3067   24.7229 C   0  0  0  0  0  0
  -21.8814   -3.8161   23.4351 C   0  0  0  0  0  0
  -21.9190   -4.6980   22.3406 C   0  0  0  0  0  0
  -22.7859  -13.5224   21.1831 C   0  0  0  0  0  0
  -22.1662   -4.2172   21.0981 F   0  0  0  0  0  0
  -21.5617   -3.4541   25.7737 F   0  0  0  0  0  0
  -30.0461  -13.2610   20.4571 N   0  0  0  0  0  0
  -26.3040  -12.9329   20.3372 N   0  0  0  0  0  0
  -25.9338  -11.6488   20.5806 N   0  0  0  0  0  0
  -22.0507  -12.8224   22.0398 N   0  0  0  0  0  0
  -25.4173  -15.1822   20.3776 N   0  0  0  0  0  0
  -31.8164  -14.6492   20.0571 O   0  0  0  0  0  0
  -21.6637   -6.8897   21.4250 O   0  0  0  0  0  0
  -22.3539  -14.5530   20.6679 O   0  0  0  0  0  0
  -24.6080  -31.8705   23.2131 C   0  0  0  0  0  0
  -25.8968  -32.4857   23.8418 C   0  0  1  0  0  0
  -27.2377  -27.4723   20.0873 C   0  0  0  0  0  0
  -25.5837  -33.8653   24.2335 N   0  0  0  0  0  0
  -23.3970  -30.4868   21.5567 C   0  0  2  0  0  0
  -24.8446  -28.9536   20.1193 C   0  0  0  0  0  0
  -22.7386  -29.4622   22.5060 C   0  0  0  0  0  0
  -18.0235  -28.1353   22.8464 C   0  0  0  0  0  0
  -24.1509  -36.7361   23.2639 C   0  0  0  0  0  0
  -25.9203  -30.8437   21.3610 C   0  0  0  0  0  0
  -25.9999  -29.4766   20.7160 C   0  0  0  0  0  0
  -27.1994  -28.7373   20.7075 C   0  0  0  0  0  0
  -26.0744  -26.9530   19.4862 C   0  0  0  0  0  0
  -24.8713  -27.6861   19.5090 C   0  0  0  0  0  0
  -23.6024  -29.8122   20.1734 C   0  0  0  0  0  0
  -25.4120  -36.3155   24.0334 C   0  0  1  0  0  0
  -20.5829  -28.3618   23.1350 C   0  0  2  0  0  0
  -20.6747  -26.9364   22.5431 C   0  0  0  0  0  0
  -19.5730  -26.6351   21.5222 C   0  0  0  0  0  0
  -18.1896  -26.7894   22.1607 C   0  0  0  0  0  0
  -19.1491  -28.8805   23.2890 C   0  0  0  0  0  0
  -18.9439  -30.1419   23.8889 C   0  0  0  0  0  0
  -17.6456  -30.6581   24.0555 C   0  0  0  0  0  0
  -25.9031  -34.9505   23.5146 C   0  0  0  0  0  0
  -16.5329  -29.9090   23.6337 C   0  0  0  0  0  0
  -16.7234  -28.6507   23.0331 C   0  0  0  0  0  0
  -26.4420  -31.6616   25.0724 C   0  0  0  0  0  0
  -25.3699  -31.3676   26.1487 C   0  0  0  0  0  0
  -27.0233  -30.3073   24.6016 C   0  0  0  0  0  0
  -27.6015  -32.4331   25.7468 C   0  0  0  0  0  0
  -27.5604  -37.1830   24.8447 C   0  0  0  0  0  0
  -21.4121  -29.2999   22.3808 N   0  0  0  0  0  0
  -26.4313  -37.3821   23.9398 N   0  0  0  0  0  0
  -24.6605  -31.0812   22.1026 N   0  0  0  0  0  0
  -23.4174  -28.8179   23.3095 O   0  0  0  0  0  0
  -28.4027  -26.7539   20.0540 O   0  0  0  0  0  0
  -26.5618  -34.8934   22.4734 O   0  0  0  0  0  0
  -23.5280  -32.1422   23.7504 O   0  0  0  0  0  0
  -29.1563  -20.2371   20.4959 C   0  0  0  0  0  0
  -28.0293  -19.5354   20.9845 C   0  0  0  0  0  0
  -27.4001  -21.3876   22.2098 C   0  0  0  0  0  0
  -28.5242  -22.0987   21.7086 C   0  0  0  0  0  0
  -26.3658  -22.0256   23.1190 C   0  0  0  0  0  0
  -30.7445  -15.4561   22.8032 C   0  0  0  0  0  0
  -27.7031  -18.1227   20.5288 C   0  0  0  0  0  0
  -28.7929  -23.5598   22.0416 C   0  0  0  0  0  0
  -28.3737  -17.0104   21.3566 C   0  0  0  0  0  0
  -28.3960  -24.4965   20.8899 C   0  0  0  0  0  0
  -29.7885  -16.6247   20.8847 C   0  0  0  0  0  0
  -28.6265  -25.9725   21.2229 C   0  0  0  0  0  0
  -29.4083  -21.5159   20.8628 N   0  0  0  0  0  0
  -27.1611  -20.1020   21.8562 N   0  0  0  0  0  0
  -30.1930  -15.3295   21.4546 N   0  0  0  0  0  0
  -31.4646  -12.3876   19.1112 H   0  0  0  0  0  0
  -30.3127  -11.2804   19.7990 H   0  0  0  0  0  0
  -29.7305  -11.8197   17.4033 H   0  0  0  0  0  0
  -29.6521  -13.5208   17.7996 H   0  0  0  0  0  0
  -27.8271  -11.3109   18.8118 H   0  0  0  0  0  0
  -27.3601  -12.6446   17.7922 H   0  0  0  0  0  0
  -27.7131  -14.2545   19.5837 H   0  0  0  0  0  0
  -28.6719  -11.9429   21.3427 H   0  0  0  0  0  0
  -28.4599  -13.5808   21.8745 H   0  0  0  0  0  0
  -25.2773   -9.5685   22.4761 H   0  0  0  0  0  0
  -24.0018   -7.4626   22.7469 H   0  0  0  0  0  0
  -21.0852   -8.8765   19.8943 H   0  0  0  0  0  0
  -22.3706  -10.9673   19.6156 H   0  0  0  0  0  0
  -21.2010   -7.6164   23.9740 H   0  0  0  0  0  0
  -21.1472   -6.0530   25.9091 H   0  0  0  0  0  0
  -22.0602   -2.7627   23.2839 H   0  0  0  0  0  0
  -22.4128  -11.9877   22.4771 H   0  0  0  0  0  0
  -21.1125  -13.1241   22.2597 H   0  0  0  0  0  0
  -24.6401  -15.8303   20.4458 H   0  0  0  0  0  0
  -26.2542  -15.6011   19.9967 H   0  0  0  0  0  0
  -26.7033  -32.5595   23.1190 H   0  0  0  0  0  0
  -24.9925  -33.9808   25.0431 H   0  0  0  0  0  0
  -22.6837  -31.3013   21.4174 H   0  0  0  0  0  0
  -23.3752  -35.9716   23.3313 H   0  0  0  0  0  0
  -24.3580  -36.8981   22.2050 H   0  0  0  0  0  0
  -23.7280  -37.6574   23.6655 H   0  0  0  0  0  0
  -26.0164  -31.6074   20.5883 H   0  0  0  0  0  0
  -26.8137  -30.9046   21.9719 H   0  0  0  0  0  0
  -28.0951  -29.1318   21.1648 H   0  0  0  0  0  0
  -26.0989  -25.9848   19.0044 H   0  0  0  0  0  0
  -23.9813  -27.2754   19.0527 H   0  0  0  0  0  0
  -23.7045  -30.5845   19.4107 H   0  0  0  0  0  0
  -22.7293  -29.2240   19.8837 H   0  0  0  0  0  0
  -25.1305  -36.2052   25.0825 H   0  0  0  0  0  0
  -20.9848  -28.3165   24.1498 H   0  0  0  0  0  0
  -20.5667  -26.2209   23.3604 H   0  0  0  0  0  0
  -21.6622  -26.7454   22.1216 H   0  0  0  0  0  0
  -19.6924  -25.6269   21.1234 H   0  0  0  0  0  0
  -19.6700  -27.3180   20.6780 H   0  0  0  0  0  0
  -17.4181  -26.6612   21.4000 H   0  0  0  0  0  0
  -18.0286  -26.0052   22.9015 H   0  0  0  0  0  0
  -19.7940  -30.7201   24.2252 H   0  0  0  0  0  0
  -17.5046  -31.6264   24.5145 H   0  0  0  0  0  0
  -15.5341  -30.3005   23.7711 H   0  0  0  0  0  0
  -15.8603  -28.0870   22.7040 H   0  0  0  0  0  0
  -24.5869  -30.7036   25.7807 H   0  0  0  0  0  0
  -24.8861  -32.2816   26.4967 H   0  0  0  0  0  0
  -25.8056  -30.8820   27.0226 H   0  0  0  0  0  0
  -26.2724  -29.6831   24.1155 H   0  0  0  0  0  0
  -27.4135  -29.7314   25.4404 H   0  0  0  0  0  0
  -27.8524  -30.4423   23.9061 H   0  0  0  0  0  0
  -27.2645  -33.3626   26.2067 H   0  0  0  0  0  0
  -28.3801  -32.6876   25.0274 H   0  0  0  0  0  0
  -28.0697  -31.8426   26.5351 H   0  0  0  0  0  0
  -28.2621  -38.0126   24.7514 H   0  0  0  0  0  0
  -28.1102  -36.2658   24.6284 H   0  0  0  0  0  0
  -27.2286  -37.1490   25.8831 H   0  0  0  0  0  0
  -20.9294  -29.8751   21.7054 H   0  0  0  0  0  0
  -26.0234  -38.2917   24.1375 H   0  0  0  0  0  0
  -29.8494  -19.7762   19.8059 H   0  0  0  0  0  0
  -25.8167  -22.7939   22.5727 H   0  0  0  0  0  0
  -26.8265  -22.4783   23.9953 H   0  0  0  0  0  0
  -25.6415  -21.2954   23.4805 H   0  0  0  0  0  0
  -30.1246  -16.1029   23.4240 H   0  0  0  0  0  0
  -31.7497  -15.8809   22.7713 H   0  0  0  0  0  0
  -30.7996  -14.4848   23.2982 H   0  0  0  0  0  0
  -27.9121  -18.0125   19.4636 H   0  0  0  0  0  0
  -26.6235  -17.9979   20.6179 H   0  0  0  0  0  0
  -29.8549  -23.6750   22.2617 H   0  0  0  0  0  0
  -28.2667  -23.8515   22.9493 H   0  0  0  0  0  0
  -27.7524  -16.1223   21.2690 H   0  0  0  0  0  0
  -28.3596  -17.2691   22.4161 H   0  0  0  0  0  0
  -27.3487  -24.3395   20.6289 H   0  0  0  0  0  0
  -28.9757  -24.2379   20.0038 H   0  0  0  0  0  0
  -30.5099  -17.3990   21.1515 H   0  0  0  0  0  0
  -29.7988  -16.5732   19.7914 H   0  0  0  0  0  0
  -29.6527  -26.1327   21.5515 H   0  0  0  0  0  0
  -27.9830  -26.2667   22.0562 H   0  0  0  0  0  0
  1 25  1  0  0  0
  1 30  2  0  0  0
  1 85  1  0  0  0
  2  3  1  0  0  0
  2 25  1  0  0  0
  2 86  1  0  0  0
  2 87  1  0  0  0
  3  4  1  0  0  0
  3 88  1  0  0  0
  3 89  1  0  0  0
  4  5  1  0  0  0
  4 90  1  0  0  0
  4 91  1  0  0  0
  5  6  1  0  0  0
  5 26  1  0  0  0
  5 92  1  0  0  0
  6 25  1  0  0  0
  6 93  1  0  0  0
  6 94  1  0  0  0
  7  8  2  0  0  0
  7 26  1  0  0  0
  7 29  1  0  0  0
  8  9  1  0  0  0
  8 22  1  0  0  0
  9 10  1  0  0  0
  9 27  2  0  0  0
 10 11  2  0  0  0
 10 15  1  0  0  0
 11 12  1  0  0  0
 11 95  1  0  0  0
 12 13  2  0  0  0
 12 96  1  0  0  0
 13 14  1  0  0  0
 13 31  1  0  0  0
 14 15  2  0  0  0
 14 97  1  0  0  0
 15 98  1  0  0  0
 16 17  2  0  0  0
 16 21  1  0  0  0
 16 31  1  0  0  0
 17 18  1  0  0  0
 17 99  1  0  0  0
 18 19  2  0  0  0
 18100  1  0  0  0
 19 20  1  0  0  0
 19 24  1  0  0  0
 20 21  2  0  0  0
 20101  1  0  0  0
 21 23  1  0  0  0
 22 28  1  0  0  0
 22 32  2  0  0  0
 26 27  1  0  0  0
 28102  1  0  0  0
 28103  1  0  0  0
 29104  1  0  0  0
 29105  1  0  0  0
 33 34  1  0  0  0
 33 66  1  0  0  0
 33 70  2  0  0  0
 34 36  1  0  0  0
 34 59  1  0  0  0
 34106  1  0  0  0
 35 44  2  0  0  0
 35 45  1  0  0  0
 35 68  1  0  0  0
 36 56  1  0  0  0
 36107  1  0  0  0
 37 39  1  0  0  0
 37 47  1  0  0  0
 37 66  1  0  0  0
 37108  1  0  0  0
 38 43  2  0  0  0
 38 46  1  0  0  0
 38 47  1  0  0  0
 39 64  1  0  0  0
 39 67  2  0  0  0
 40 52  1  0  0  0
 40 53  2  0  0  0
 40 58  1  0  0  0
 41109  1  0  0  0
 41110  1  0  0  0
 41111  1  0  0  0
 41 48  1  0  0  0
 42 43  1  0  0  0
 42 66  1  0  0  0
 42112  1  0  0  0
 42113  1  0  0  0
 43 44  1  0  0  0
 44114  1  0  0  0
 45 46  2  0  0  0
 45115  1  0  0  0
 46116  1  0  0  0
 47117  1  0  0  0
 47118  1  0  0  0
 48 56  1  0  0  0
 48 65  1  0  0  0
 48119  1  0  0  0
 49 50  1  0  0  0
 49 53  1  0  0  0
 49 64  1  0  0  0
 49120  1  0  0  0
 50 51  1  0  0  0
 50121  1  0  0  0
 50122  1  0  0  0
 51 52  1  0  0  0
 51123  1  0  0  0
 51124  1  0  0  0
 52125  1  0  0  0
 52126  1  0  0  0
 53 54  1  0  0  0
 54 55  2  0  0  0
 54127  1  0  0  0
 55 57  1  0  0  0
 55128  1  0  0  0
 56 69  2  0  0  0
 57 58  2  0  0  0
 57129  1  0  0  0
 58130  1  0  0  0
 59 60  1  0  0  0
 59 61  1  0  0  0
 59 62  1  0  0  0
 60131  1  0  0  0
 60132  1  0  0  0
 60133  1  0  0  0
 61134  1  0  0  0
 61135  1  0  0  0
 61136  1  0  0  0
 62137  1  0  0  0
 62138  1  0  0  0
 62139  1  0  0  0
 63 65  1  0  0  0
 63140  1  0  0  0
 63141  1  0  0  0
 63142  1  0  0  0
 64143  1  0  0  0
 65144  1  0  0  0
 68 82  1  0  0  0
 71 72  2  0  0  0
 71 83  1  0  0  0
 71145  1  0  0  0
 72 77  1  0  0  0
 72 84  1  0  0  0
 73 74  1  0  0  0
 73 75  1  0  0  0
 73 84  2  0  0  0
 74 78  1  0  0  0
 74 83  2  0  0  0
 75146  1  0  0  0
 75147  1  0  0  0
 75148  1  0  0  0
 76 85  1  0  0  0
 76149  1  0  0  0
 76150  1  0  0  0
 76151  1  0  0  0
 77 79  1  0  0  0
 77152  1  0  0  0
 77153  1  0  0  0
 78 80  1  0  0  0
 78154  1  0  0  0
 78155  1  0  0  0
 79 81  1  0  0  0
 79156  1  0  0  0
 79157  1  0  0  0
 80 82  1  0  0  0
 80158  1  0  0  0
 80159  1  0  0  0
 81 85  1  0  0  0
 81160  1  0  0  0
 81161  1  0  0  0
 82162  1  0  0  0
 82163  1  0  0  0
M  ISO  4   1 100  68 101  82 101  85 100
M  END
> <chiral flag>
0

> <version>
0

> <s_m_source_file>
/data/baiqing/PycharmProjects/Reinvent-master-3.2/result/LINK_invent/BTK/process_docking_weight1_custom_sum_contain_oxygen_bond_distance_aromatic_linkinvent_7_9_3/rearranged_h_0082.sdf

> <i_m_source_file_index>
67

> <r_mmod_Potential_Energy-OPLS-2005>
113.579162597656

> <r_mmod_Stretch_Energy-OPLS-2005>
34.1982269287109

> <r_mmod_Bend_Energy-OPLS-2005>
90.6173400878906

> <r_mmod_Torsional_Energy-OPLS-2005>
295.028137207031

> <r_mmod_Improper_Torsional_Energy-OPLS-2005>
6.05130100250244

> <r_mmod_Van_der_Waal_Energy-OPLS-2005>
148.495376586914

> <r_mmod_Electrostatic_Energy-OPLS-2005>
-264.372894287109

> <r_mmod_Solvation_Energy-OPLS-2005>
-203.582672119141

> <b_mmod_Minimization_Converged-OPLS-2005>
0

> <r_mmod_RMS_Derivative-OPLS-2005>
3.29962468147278

$$$$
68
                    3D
 Structure written by MMmdl.
161169  0  0  1  0            999 V2000
  -30.6121  -14.7328   20.4548 C   0  0  0  0  0  0
  -30.4346  -12.4439   19.4681 C   0  0  0  0  0  0
  -29.5079  -12.4880   18.2345 C   0  0  0  0  0  0
  -28.0367  -12.3063   18.6547 C   0  0  0  0  0  0
  -27.6398  -13.2234   19.8415 C   0  0  2  0  0  0
  -28.6850  -13.1648   20.9747 C   0  0  0  0  0  0
  -25.2503  -13.8194   20.5722 C   0  0  0  0  0  0
  -24.1782  -13.0446   20.9224 C   0  0  0  0  0  0
  -24.6374  -11.6926   20.8758 C   0  0  0  0  0  0
  -23.9060  -10.4303   21.0422 C   0  0  0  0  0  0
  -24.3608   -9.4211   21.9201 C   0  0  0  0  0  0
  -23.6282   -8.2245   22.0768 C   0  0  0  0  0  0
  -22.4268   -8.0289   21.3552 C   0  0  0  0  0  0
  -21.9898   -9.0267   20.4655 C   0  0  0  0  0  0
  -22.7233  -10.2144   20.3071 C   0  0  0  0  0  0
  -21.6844   -6.0743   22.5293 C   0  0  0  0  0  0
  -21.4014   -6.5640   23.8235 C   0  0  0  0  0  0
  -21.3653   -5.6785   24.9191 C   0  0  0  0  0  0
  -21.6041   -4.3053   24.7236 C   0  0  0  0  0  0
  -21.8811   -3.8150   23.4356 C   0  0  0  0  0  0
  -21.9193   -4.6970   22.3412 C   0  0  0  0  0  0
  -22.7797  -13.5239   21.1870 C   0  0  0  0  0  0
  -22.1660   -4.2162   21.0986 F   0  0  0  0  0  0
  -21.5627   -3.4535   25.7739 F   0  0  0  0  0  0
  -29.9840  -13.5108   20.3895 N   0  0  0  0  0  0
  -26.2918  -12.9395   20.3248 N   0  0  0  0  0  0
  -25.9293  -11.6548   20.5736 N   0  0  0  0  0  0
  -22.0417  -12.8252   22.0415 N   0  0  0  0  0  0
  -25.4207  -15.1935   20.4225 N   0  0  0  0  0  0
  -31.8064  -14.8268   20.1654 O   0  0  0  0  0  0
  -21.6629   -6.8892   21.4260 O   0  0  0  0  0  0
  -22.3500  -14.5558   20.6716 O   0  0  0  0  0  0
  -24.6311  -31.8555   23.2001 C   0  0  0  0  0  0
  -25.9155  -32.4760   23.8308 C   0  0  1  0  0  0
  -27.2154  -27.2629   20.1311 C   0  0  0  0  0  0
  -25.5966  -33.8555   24.2240 N   0  0  0  0  0  0
  -23.4244  -30.4798   21.5468 C   0  0  2  0  0  0
  -24.8687  -28.9282   20.1151 C   0  0  0  0  0  0
  -22.7495  -29.4585   22.4950 C   0  0  0  0  0  0
  -18.0287  -28.1347   22.8456 C   0  0  0  0  0  0
  -24.1490  -36.7270   23.2632 C   0  0  0  0  0  0
  -25.9717  -30.7706   21.3764 C   0  0  0  0  0  0
  -26.0439  -29.3947   20.7163 C   0  0  0  0  0  0
  -27.2210  -28.5790   20.7065 C   0  0  0  0  0  0
  -26.0097  -26.8614   19.5105 C   0  0  0  0  0  0
  -24.8575  -27.6693   19.5009 C   0  0  0  0  0  0
  -23.6412  -29.8176   20.1622 C   0  0  0  0  0  0
  -25.4123  -36.3063   24.0314 C   0  0  1  0  0  0
  -20.5882  -28.3662   23.1299 C   0  0  2  0  0  0
  -20.6773  -26.9373   22.5427 C   0  0  0  0  0  0
  -19.5776  -26.6369   21.5197 C   0  0  0  0  0  0
  -18.1945  -26.7901   22.1582 C   0  0  0  0  0  0
  -19.1532  -28.8825   23.2866 C   0  0  0  0  0  0
  -18.9440  -30.1427   23.8879 C   0  0  0  0  0  0
  -17.6442  -30.6552   24.0539 C   0  0  0  0  0  0
  -25.9071  -34.9439   23.5080 C   0  0  0  0  0  0
  -16.5337  -29.9035   23.6314 C   0  0  0  0  0  0
  -16.7276  -28.6453   23.0339 C   0  0  0  0  0  0
  -26.4512  -31.6590   25.0709 C   0  0  0  0  0  0
  -25.3723  -31.3767   26.1430 C   0  0  0  0  0  0
  -27.0370  -30.3005   24.6215 C   0  0  0  0  0  0
  -27.6055  -32.4338   25.7488 C   0  0  0  0  0  0
  -27.5581  -37.1797   24.8468 C   0  0  0  0  0  0
  -21.4203  -29.3026   22.3710 N   0  0  0  0  0  0
  -26.4291  -37.3774   23.9415 N   0  0  0  0  0  0
  -24.6951  -31.0530   22.0972 N   0  0  0  0  0  0
  -23.4217  -28.8113   23.3030 O   0  0  0  0  0  0
  -28.3117  -26.3679   20.1868 O   0  0  0  0  0  0
  -26.5631  -34.8915   22.4647 O   0  0  0  0  0  0
  -23.5475  -32.1373   23.7333 O   0  0  0  0  0  0
  -28.7733  -21.8514   22.6927 C   0  0  0  0  0  0
  -28.7156  -21.1509   23.9054 C   0  0  0  0  0  0
  -28.9839  -21.1917   21.4585 C   0  0  0  0  0  0
  -28.8489  -19.7568   23.8705 C   0  0  0  0  0  0
  -29.1574  -19.7262   21.5326 C   0  0  0  0  0  0
  -28.4725  -21.9172   25.1953 C   0  0  0  0  0  0
  -28.7251  -18.8968   25.1131 C   0  0  0  0  0  0
  -28.8944  -22.1635   20.2096 C   0  0  0  0  0  0
  -29.2818  -18.5953   20.4304 C   0  0  0  0  0  0
  -29.1908  -23.7717   20.3568 C   0  0  0  0  0  0
  -30.2984  -17.3350   20.6862 C   0  0  0  0  0  0
  -28.0423  -24.8856   20.1373 C   0  0  0  0  0  0
  -29.0563  -19.0929   22.7238 N   0  0  0  0  0  0
  -29.8410  -15.8714   20.6415 N   0  0  0  0  0  0
  -31.4746  -12.5742   19.1610 H   0  0  0  0  0  0
  -30.3837  -11.4712   19.9614 H   0  0  0  0  0  0
  -29.7888  -11.7157   17.5180 H   0  0  0  0  0  0
  -29.6242  -13.4411   17.7198 H   0  0  0  0  0  0
  -27.9055  -11.2624   18.9443 H   0  0  0  0  0  0
  -27.3776  -12.4717   17.8028 H   0  0  0  0  0  0
  -27.6341  -14.2372   19.4411 H   0  0  0  0  0  0
  -28.7213  -12.1705   21.4212 H   0  0  0  0  0  0
  -28.4245  -13.8536   21.7780 H   0  0  0  0  0  0
  -25.2753   -9.5697   22.4787 H   0  0  0  0  0  0
  -23.9995   -7.4641   22.7483 H   0  0  0  0  0  0
  -21.0831   -8.8806   19.8959 H   0  0  0  0  0  0
  -22.3706  -10.9700   19.6189 H   0  0  0  0  0  0
  -21.2009   -7.6150   23.9754 H   0  0  0  0  0  0
  -21.1473   -6.0506   25.9095 H   0  0  0  0  0  0
  -22.0590   -2.7613   23.2853 H   0  0  0  0  0  0
  -22.3990  -11.9901   22.4825 H   0  0  0  0  0  0
  -21.1065  -13.1362   22.2644 H   0  0  0  0  0  0
  -24.6535  -15.8454   20.5509 H   0  0  0  0  0  0
  -26.2686  -15.6455   20.1078 H   0  0  0  0  0  0
  -26.7225  -32.5389   23.1044 H   0  0  0  0  0  0
  -25.0148  -33.9661   25.0405 H   0  0  0  0  0  0
  -22.7196  -31.3019   21.4069 H   0  0  0  0  0  0
  -23.3747  -35.9609   23.3297 H   0  0  0  0  0  0
  -24.3573  -36.8895   22.2048 H   0  0  0  0  0  0
  -23.7244  -37.6473   23.6655 H   0  0  0  0  0  0
  -26.1137  -31.5315   20.6072 H   0  0  0  0  0  0
  -26.8466  -30.8153   22.0131 H   0  0  0  0  0  0
  -28.1212  -28.9367   21.1862 H   0  0  0  0  0  0
  -25.9137  -25.8976   19.0361 H   0  0  0  0  0  0
  -23.9561  -27.3017   19.0302 H   0  0  0  0  0  0
  -23.7697  -30.5953   19.4079 H   0  0  0  0  0  0
  -22.7568  -29.2579   19.8553 H   0  0  0  0  0  0
  -25.1306  -36.1904   25.0804 H   0  0  0  0  0  0
  -20.9946  -28.3233   24.1425 H   0  0  0  0  0  0
  -20.5621  -26.2265   23.3628 H   0  0  0  0  0  0
  -21.6651  -26.7369   22.1267 H   0  0  0  0  0  0
  -19.6928  -25.6280   21.1223 H   0  0  0  0  0  0
  -19.6758  -27.3194   20.6745 H   0  0  0  0  0  0
  -17.4237  -26.6647   21.3963 H   0  0  0  0  0  0
  -18.0347  -26.0022   22.8958 H   0  0  0  0  0  0
  -19.7917  -30.7236   24.2256 H   0  0  0  0  0  0
  -17.4990  -31.6231   24.5138 H   0  0  0  0  0  0
  -15.5336  -30.2934   23.7636 H   0  0  0  0  0  0
  -15.8664  -28.0769   22.7066 H   0  0  0  0  0  0
  -24.5846  -30.7193   25.7742 H   0  0  0  0  0  0
  -24.8976  -32.2958   26.4870 H   0  0  0  0  0  0
  -25.8004  -30.8900   27.0198 H   0  0  0  0  0  0
  -26.2976  -29.6747   24.1218 H   0  0  0  0  0  0
  -27.4025  -29.7288   25.4752 H   0  0  0  0  0  0
  -27.8851  -30.4267   23.9485 H   0  0  0  0  0  0
  -27.2639  -33.3612   26.2092 H   0  0  0  0  0  0
  -28.3847  -32.6957   25.0316 H   0  0  0  0  0  0
  -28.0751  -31.8462   26.5385 H   0  0  0  0  0  0
  -28.2608  -38.0083   24.7511 H   0  0  0  0  0  0
  -28.1060  -36.2619   24.6297 H   0  0  0  0  0  0
  -27.2292  -37.1460   25.8866 H   0  0  0  0  0  0
  -20.9369  -29.8809   21.6970 H   0  0  0  0  0  0
  -26.0159  -38.2843   24.1425 H   0  0  0  0  0  0
  -28.6094  -22.9175   22.7325 H   0  0  0  0  0  0
  -27.4222  -22.1963   25.2720 H   0  0  0  0  0  0
  -29.0676  -22.8313   25.2161 H   0  0  0  0  0  0
  -28.7360  -21.3376   26.0789 H   0  0  0  0  0  0
  -29.5233  -19.1266   25.8190 H   0  0  0  0  0  0
  -28.7899  -17.8355   24.8751 H   0  0  0  0  0  0
  -27.7642  -19.0710   25.5991 H   0  0  0  0  0  0
  -27.9023  -22.0293   19.7750 H   0  0  0  0  0  0
  -29.5796  -21.7648   19.4609 H   0  0  0  0  0  0
  -29.5582  -19.0908   19.4991 H   0  0  0  0  0  0
  -28.2761  -18.2085   20.2601 H   0  0  0  0  0  0
  -29.9294  -23.9971   19.5857 H   0  0  0  0  0  0
  -29.7415  -23.9829   21.2739 H   0  0  0  0  0  0
  -30.8075  -17.4696   21.6408 H   0  0  0  0  0  0
  -31.0966  -17.4321   19.9496 H   0  0  0  0  0  0
  -27.2558  -24.6783   20.8634 H   0  0  0  0  0  0
  -27.6180  -24.6600   19.1603 H   0  0  0  0  0  0
  -28.8606  -15.7074   20.8097 H   0  0  0  0  0  0
  1 25  1  0  0  0
  1 30  2  0  0  0
  1 84  1  0  0  0
  2  3  1  0  0  0
  2 25  1  0  0  0
  2 85  1  0  0  0
  2 86  1  0  0  0
  3  4  1  0  0  0
  3 87  1  0  0  0
  3 88  1  0  0  0
  4  5  1  0  0  0
  4 89  1  0  0  0
  4 90  1  0  0  0
  5  6  1  0  0  0
  5 26  1  0  0  0
  5 91  1  0  0  0
  6 25  1  0  0  0
  6 92  1  0  0  0
  6 93  1  0  0  0
  7  8  2  0  0  0
  7 26  1  0  0  0
  7 29  1  0  0  0
  8  9  1  0  0  0
  8 22  1  0  0  0
  9 10  1  0  0  0
  9 27  2  0  0  0
 10 11  2  0  0  0
 10 15  1  0  0  0
 11 12  1  0  0  0
 11 94  1  0  0  0
 12 13  2  0  0  0
 12 95  1  0  0  0
 13 14  1  0  0  0
 13 31  1  0  0  0
 14 15  2  0  0  0
 14 96  1  0  0  0
 15 97  1  0  0  0
 16 17  2  0  0  0
 16 21  1  0  0  0
 16 31  1  0  0  0
 17 18  1  0  0  0
 17 98  1  0  0  0
 18 19  2  0  0  0
 18 99  1  0  0  0
 19 20  1  0  0  0
 19 24  1  0  0  0
 20 21  2  0  0  0
 20100  1  0  0  0
 21 23  1  0  0  0
 22 28  1  0  0  0
 22 32  2  0  0  0
 26 27  1  0  0  0
 28101  1  0  0  0
 28102  1  0  0  0
 29103  1  0  0  0
 29104  1  0  0  0
 33 34  1  0  0  0
 33 66  1  0  0  0
 33 70  2  0  0  0
 34 36  1  0  0  0
 34 59  1  0  0  0
 34105  1  0  0  0
 35 44  2  0  0  0
 35 45  1  0  0  0
 35 68  1  0  0  0
 36 56  1  0  0  0
 36106  1  0  0  0
 37 39  1  0  0  0
 37 47  1  0  0  0
 37 66  1  0  0  0
 37107  1  0  0  0
 38 43  2  0  0  0
 38 46  1  0  0  0
 38 47  1  0  0  0
 39 64  1  0  0  0
 39 67  2  0  0  0
 40 52  1  0  0  0
 40 53  2  0  0  0
 40 58  1  0  0  0
 41108  1  0  0  0
 41109  1  0  0  0
 41110  1  0  0  0
 41 48  1  0  0  0
 42 43  1  0  0  0
 42 66  1  0  0  0
 42111  1  0  0  0
 42112  1  0  0  0
 43 44  1  0  0  0
 44113  1  0  0  0
 45 46  2  0  0  0
 45114  1  0  0  0
 46115  1  0  0  0
 47116  1  0  0  0
 47117  1  0  0  0
 48 56  1  0  0  0
 48 65  1  0  0  0
 48118  1  0  0  0
 49 50  1  0  0  0
 49 53  1  0  0  0
 49 64  1  0  0  0
 49119  1  0  0  0
 50 51  1  0  0  0
 50120  1  0  0  0
 50121  1  0  0  0
 51 52  1  0  0  0
 51122  1  0  0  0
 51123  1  0  0  0
 52124  1  0  0  0
 52125  1  0  0  0
 53 54  1  0  0  0
 54 55  2  0  0  0
 54126  1  0  0  0
 55 57  1  0  0  0
 55127  1  0  0  0
 56 69  2  0  0  0
 57 58  2  0  0  0
 57128  1  0  0  0
 58129  1  0  0  0
 59 60  1  0  0  0
 59 61  1  0  0  0
 59 62  1  0  0  0
 60130  1  0  0  0
 60131  1  0  0  0
 60132  1  0  0  0
 61133  1  0  0  0
 61134  1  0  0  0
 61135  1  0  0  0
 62136  1  0  0  0
 62137  1  0  0  0
 62138  1  0  0  0
 63 65  1  0  0  0
 63139  1  0  0  0
 63140  1  0  0  0
 63141  1  0  0  0
 64142  1  0  0  0
 65143  1  0  0  0
 68 82  1  0  0  0
 71 72  2  0  0  0
 71 73  1  0  0  0
 71144  1  0  0  0
 72 74  1  0  0  0
 72 76  1  0  0  0
 73 75  2  0  0  0
 73 78  1  0  0  0
 74 77  1  0  0  0
 74 83  2  0  0  0
 75 79  1  0  0  0
 75 83  1  0  0  0
 76145  1  0  0  0
 76146  1  0  0  0
 76147  1  0  0  0
 77148  1  0  0  0
 77149  1  0  0  0
 77150  1  0  0  0
 78 80  1  0  0  0
 78151  1  0  0  0
 78152  1  0  0  0
 79 81  1  0  0  0
 79153  1  0  0  0
 79154  1  0  0  0
 80 82  1  0  0  0
 80155  1  0  0  0
 80156  1  0  0  0
 81 84  1  0  0  0
 81157  1  0  0  0
 81158  1  0  0  0
 82159  1  0  0  0
 82160  1  0  0  0
 84161  1  0  0  0
M  ISO  4   1 100  68 101  82 101  84 100
M  END
> <chiral flag>
0

> <version>
0

> <s_m_source_file>
/data/baiqing/PycharmProjects/Reinvent-master-3.2/result/LINK_invent/BTK/process_docking_weight1_custom_sum_contain_oxygen_bond_distance_aromatic_linkinvent_7_9_3/rearranged_h_0082.sdf

> <i_m_source_file_index>
68

> <r_mmod_Potential_Energy-OPLS-2005>
66.0605926513672

> <r_mmod_Stretch_Energy-OPLS-2005>
134.845031738281

> <r_mmod_Bend_Energy-OPLS-2005>
201.221817016602

> <r_mmod_Torsional_Energy-OPLS-2005>
229.737609863281

> <r_mmod_Improper_Torsional_Energy-OPLS-2005>
5.134934425354

> <r_mmod_Van_der_Waal_Energy-OPLS-2005>
147.964019775391

> <r_mmod_Electrostatic_Energy-OPLS-2005>
-512.831665039062

> <r_mmod_Solvation_Energy-OPLS-2005>
-224.292266845703

> <b_mmod_Minimization_Converged-OPLS-2005>
0

> <r_mmod_RMS_Derivative-OPLS-2005>
2.9577202796936

$$$$
69
                    3D
 Structure written by MMmdl.
157165  0  0  1  0            999 V2000
  -30.6702  -14.7129   20.5062 C   0  0  0  0  0  0
  -30.4190  -12.4505   19.4720 C   0  0  0  0  0  0
  -29.5098  -12.5341   18.2306 C   0  0  0  0  0  0
  -28.0326  -12.3666   18.6350 C   0  0  0  0  0  0
  -27.6450  -13.2420   19.8589 C   0  0  2  0  0  0
  -28.6904  -13.1630   20.9936 C   0  0  0  0  0  0
  -25.2458  -13.8186   20.5588 C   0  0  0  0  0  0
  -24.1780  -13.0433   20.9164 C   0  0  0  0  0  0
  -24.6404  -11.6928   20.8757 C   0  0  0  0  0  0
  -23.9066  -10.4308   21.0402 C   0  0  0  0  0  0
  -24.3610   -9.4235   21.9189 C   0  0  0  0  0  0
  -23.6289   -8.2267   22.0762 C   0  0  0  0  0  0
  -22.4277   -8.0289   21.3550 C   0  0  0  0  0  0
  -21.9902   -9.0261   20.4665 C   0  0  0  0  0  0
  -22.7221  -10.2150   20.3068 C   0  0  0  0  0  0
  -21.6862   -6.0739   22.5275 C   0  0  0  0  0  0
  -21.4035   -6.5634   23.8214 C   0  0  0  0  0  0
  -21.3661   -5.6782   24.9170 C   0  0  0  0  0  0
  -21.6036   -4.3044   24.7219 C   0  0  0  0  0  0
  -21.8816   -3.8145   23.4336 C   0  0  0  0  0  0
  -21.9199   -4.6966   22.3392 C   0  0  0  0  0  0
  -22.7803  -13.5240   21.1785 C   0  0  0  0  0  0
  -22.1659   -4.2150   21.0973 F   0  0  0  0  0  0
  -21.5613   -3.4529   25.7731 F   0  0  0  0  0  0
  -29.9898  -13.5173   20.4129 N   0  0  0  0  0  0
  -26.2957  -12.9447   20.3319 N   0  0  0  0  0  0
  -25.9366  -11.6579   20.5793 N   0  0  0  0  0  0
  -22.0423  -12.8292   22.0375 N   0  0  0  0  0  0
  -25.4004  -15.1873   20.3738 N   0  0  0  0  0  0
  -31.8298  -14.7724   20.0990 O   0  0  0  0  0  0
  -21.6643   -6.8888   21.4241 O   0  0  0  0  0  0
  -22.3490  -14.5530   20.6585 O   0  0  0  0  0  0
  -24.6315  -31.8538   23.1939 C   0  0  0  0  0  0
  -25.9116  -32.4759   23.8318 C   0  0  1  0  0  0
  -27.2267  -27.2460   20.1663 C   0  0  0  0  0  0
  -25.5898  -33.8559   24.2234 N   0  0  0  0  0  0
  -23.4320  -30.4713   21.5374 C   0  0  2  0  0  0
  -24.8858  -28.9128   20.1146 C   0  0  0  0  0  0
  -22.7525  -29.4579   22.4905 C   0  0  0  0  0  0
  -18.0289  -28.1396   22.8494 C   0  0  0  0  0  0
  -24.1473  -36.7297   23.2637 C   0  0  0  0  0  0
  -25.9760  -30.7681   21.3712 C   0  0  0  0  0  0
  -26.0549  -29.3836   20.7265 C   0  0  0  0  0  0
  -27.2316  -28.5655   20.7345 C   0  0  0  0  0  0
  -26.0400  -26.8459   19.5158 C   0  0  0  0  0  0
  -24.8842  -27.6539   19.4930 C   0  0  0  0  0  0
  -23.6545  -29.7988   20.1562 C   0  0  0  0  0  0
  -25.4099  -36.3074   24.0319 C   0  0  1  0  0  0
  -20.5897  -28.3708   23.1278 C   0  0  2  0  0  0
  -20.6774  -26.9426   22.5421 C   0  0  0  0  0  0
  -19.5748  -26.6387   21.5224 C   0  0  0  0  0  0
  -18.1927  -26.7931   22.1639 C   0  0  0  0  0  0
  -19.1541  -28.8864   23.2876 C   0  0  0  0  0  0
  -18.9462  -30.1468   23.8910 C   0  0  0  0  0  0
  -17.6459  -30.6599   24.0564 C   0  0  0  0  0  0
  -25.9050  -34.9444   23.5088 C   0  0  0  0  0  0
  -16.5351  -29.9110   23.6324 C   0  0  0  0  0  0
  -16.7269  -28.6515   23.0355 C   0  0  0  0  0  0
  -26.4468  -31.6588   25.0716 C   0  0  0  0  0  0
  -25.3673  -31.3775   26.1433 C   0  0  0  0  0  0
  -27.0300  -30.2997   24.6193 C   0  0  0  0  0  0
  -27.6016  -32.4338   25.7509 C   0  0  0  0  0  0
  -27.5571  -37.1805   24.8461 C   0  0  0  0  0  0
  -21.4221  -29.3044   22.3671 N   0  0  0  0  0  0
  -26.4272  -37.3772   23.9420 N   0  0  0  0  0  0
  -24.6992  -31.0498   22.0917 N   0  0  0  0  0  0
  -23.4211  -28.8124   23.3010 O   0  0  0  0  0  0
  -28.3143  -26.3397   20.2097 O   0  0  0  0  0  0
  -26.5652  -34.8925   22.4682 O   0  0  0  0  0  0
  -23.5459  -32.1352   23.7221 O   0  0  0  0  0  0
  -30.3318  -20.9404   19.2530 C   0  0  0  0  0  0
  -29.3626  -20.8314   20.2711 C   0  0  0  0  0  0
  -30.5910  -18.6225   19.1367 C   0  0  0  0  0  0
  -29.6479  -18.4077   20.1820 C   0  0  0  0  0  0
  -31.2500  -17.4862   18.3714 C   0  0  0  0  0  0
  -27.9719  -16.9801   21.5382 C   0  0  0  0  0  0
  -28.6598  -22.1490   20.8470 C   0  0  0  0  0  0
  -28.9461  -23.6386   20.2322 C   0  0  0  0  0  0
  -28.0781  -24.9318   20.7107 C   0  0  0  0  0  0
  -29.1617  -16.9180   20.5629 C   0  0  2  0  0  0
  -30.9340  -19.8630   18.6986 N   0  0  0  0  0  0
  -29.0427  -19.5477   20.7346 N   0  0  0  0  0  0
  -30.1250  -15.8514   21.0739 N   0  0  0  0  0  0
  -31.4642  -12.5422   19.1752 H   0  0  0  0  0  0
  -30.3403  -11.4691   19.9424 H   0  0  0  0  0  0
  -29.7925  -11.7756   17.5008 H   0  0  0  0  0  0
  -29.6515  -13.4999   17.7397 H   0  0  0  0  0  0
  -27.8680  -11.3137   18.8659 H   0  0  0  0  0  0
  -27.3871  -12.5992   17.7869 H   0  0  0  0  0  0
  -27.6465  -14.2714   19.5016 H   0  0  0  0  0  0
  -28.7277  -12.1597   21.4196 H   0  0  0  0  0  0
  -28.4336  -13.8309   21.8154 H   0  0  0  0  0  0
  -25.2756   -9.5715   22.4765 H   0  0  0  0  0  0
  -23.9995   -7.4671   22.7497 H   0  0  0  0  0  0
  -21.0824   -8.8769   19.8991 H   0  0  0  0  0  0
  -22.3657  -10.9675   19.6169 H   0  0  0  0  0  0
  -21.2042   -7.6144   23.9718 H   0  0  0  0  0  0
  -21.1473   -6.0515   25.9073 H   0  0  0  0  0  0
  -22.0598   -2.7611   23.2833 H   0  0  0  0  0  0
  -22.4008  -11.9972   22.4825 H   0  0  0  0  0  0
  -21.1052  -13.1387   22.2550 H   0  0  0  0  0  0
  -24.6135  -15.8254   20.4274 H   0  0  0  0  0  0
  -26.2303  -15.6119   19.9830 H   0  0  0  0  0  0
  -26.7207  -32.5425   23.1094 H   0  0  0  0  0  0
  -24.9970  -33.9688   25.0324 H   0  0  0  0  0  0
  -22.7264  -31.2904   21.3843 H   0  0  0  0  0  0
  -23.3723  -35.9643   23.3294 H   0  0  0  0  0  0
  -24.3558  -36.8935   22.2056 H   0  0  0  0  0  0
  -23.7236  -37.6497   23.6673 H   0  0  0  0  0  0
  -26.1009  -31.5185   20.5889 H   0  0  0  0  0  0
  -26.8588  -30.8348   21.9959 H   0  0  0  0  0  0
  -28.1288  -28.9237   21.2206 H   0  0  0  0  0  0
  -25.9937  -25.8807   19.0329 H   0  0  0  0  0  0
  -23.9934  -27.2881   19.0006 H   0  0  0  0  0  0
  -23.7796  -30.5688   19.3937 H   0  0  0  0  0  0
  -22.7759  -29.2266   19.8551 H   0  0  0  0  0  0
  -25.1274  -36.1919   25.0806 H   0  0  0  0  0  0
  -20.9972  -28.3282   24.1404 H   0  0  0  0  0  0
  -20.5669  -26.2322   23.3627 H   0  0  0  0  0  0
  -21.6642  -26.7447   22.1220 H   0  0  0  0  0  0
  -19.6909  -25.6290   21.1275 H   0  0  0  0  0  0
  -19.6684  -27.3181   20.6739 H   0  0  0  0  0  0
  -17.4197  -26.6673   21.4042 H   0  0  0  0  0  0
  -18.0333  -26.0079   22.9045 H   0  0  0  0  0  0
  -19.7935  -30.7274   24.2294 H   0  0  0  0  0  0
  -17.5015  -31.6280   24.5177 H   0  0  0  0  0  0
  -15.5352  -30.3024   23.7618 H   0  0  0  0  0  0
  -15.8668  -28.0834   22.7075 H   0  0  0  0  0  0
  -24.5828  -30.7145   25.7766 H   0  0  0  0  0  0
  -24.8878  -32.2966   26.4822 H   0  0  0  0  0  0
  -25.7955  -30.8974   27.0241 H   0  0  0  0  0  0
  -26.2885  -29.6791   24.1147 H   0  0  0  0  0  0
  -27.3902  -29.7216   25.4713 H   0  0  0  0  0  0
  -27.8793  -30.4266   23.9475 H   0  0  0  0  0  0
  -27.2597  -33.3638   26.2072 H   0  0  0  0  0  0
  -28.3836  -32.6911   25.0351 H   0  0  0  0  0  0
  -28.0671  -31.8478   26.5449 H   0  0  0  0  0  0
  -28.2578  -38.0107   24.7500 H   0  0  0  0  0  0
  -28.1066  -36.2641   24.6270 H   0  0  0  0  0  0
  -27.2304  -37.1441   25.8865 H   0  0  0  0  0  0
  -20.9417  -29.8788   21.6893 H   0  0  0  0  0  0
  -26.0145  -38.2843   24.1425 H   0  0  0  0  0  0
  -30.6210  -21.9027   18.8586 H   0  0  0  0  0  0
  -30.5366  -16.6991   18.1251 H   0  0  0  0  0  0
  -32.0632  -17.0581   18.9556 H   0  0  0  0  0  0
  -31.6729  -17.8326   17.4269 H   0  0  0  0  0  0
  -27.1252  -17.5034   21.0901 H   0  0  0  0  0  0
  -28.2373  -17.5095   22.4541 H   0  0  0  0  0  0
  -27.6211  -15.9907   21.8280 H   0  0  0  0  0  0
  -28.8923  -22.1792   21.9131 H   0  0  0  0  0  0
  -27.5865  -21.9683   20.7951 H   0  0  0  0  0  0
  -28.8389  -23.5683   19.1518 H   0  0  0  0  0  0
  -29.9993  -23.8633   20.4056 H   0  0  0  0  0  0
  -28.1996  -25.0008   21.7926 H   0  0  0  0  0  0
  -27.0303  -24.6649   20.5821 H   0  0  0  0  0  0
  -28.7641  -16.5116   19.6322 H   0  0  0  0  0  0
  -30.8692  -16.3282   21.5611 H   0  0  0  0  0  0
  1 25  1  0  0  0
  1 30  2  0  0  0
  1 83  1  0  0  0
  2  3  1  0  0  0
  2 25  1  0  0  0
  2 84  1  0  0  0
  2 85  1  0  0  0
  3  4  1  0  0  0
  3 86  1  0  0  0
  3 87  1  0  0  0
  4  5  1  0  0  0
  4 88  1  0  0  0
  4 89  1  0  0  0
  5  6  1  0  0  0
  5 26  1  0  0  0
  5 90  1  0  0  0
  6 25  1  0  0  0
  6 91  1  0  0  0
  6 92  1  0  0  0
  7  8  2  0  0  0
  7 26  1  0  0  0
  7 29  1  0  0  0
  8  9  1  0  0  0
  8 22  1  0  0  0
  9 10  1  0  0  0
  9 27  2  0  0  0
 10 11  2  0  0  0
 10 15  1  0  0  0
 11 12  1  0  0  0
 11 93  1  0  0  0
 12 13  2  0  0  0
 12 94  1  0  0  0
 13 14  1  0  0  0
 13 31  1  0  0  0
 14 15  2  0  0  0
 14 95  1  0  0  0
 15 96  1  0  0  0
 16 17  2  0  0  0
 16 21  1  0  0  0
 16 31  1  0  0  0
 17 18  1  0  0  0
 17 97  1  0  0  0
 18 19  2  0  0  0
 18 98  1  0  0  0
 19 20  1  0  0  0
 19 24  1  0  0  0
 20 21  2  0  0  0
 20 99  1  0  0  0
 21 23  1  0  0  0
 22 28  1  0  0  0
 22 32  2  0  0  0
 26 27  1  0  0  0
 28100  1  0  0  0
 28101  1  0  0  0
 29102  1  0  0  0
 29103  1  0  0  0
 33 34  1  0  0  0
 33 66  1  0  0  0
 33 70  2  0  0  0
 34 36  1  0  0  0
 34 59  1  0  0  0
 34104  1  0  0  0
 35 44  2  0  0  0
 35 45  1  0  0  0
 35 68  1  0  0  0
 36 56  1  0  0  0
 36105  1  0  0  0
 37 39  1  0  0  0
 37 47  1  0  0  0
 37 66  1  0  0  0
 37106  1  0  0  0
 38 43  2  0  0  0
 38 46  1  0  0  0
 38 47  1  0  0  0
 39 64  1  0  0  0
 39 67  2  0  0  0
 40 52  1  0  0  0
 40 53  2  0  0  0
 40 58  1  0  0  0
 41107  1  0  0  0
 41108  1  0  0  0
 41109  1  0  0  0
 41 48  1  0  0  0
 42 43  1  0  0  0
 42 66  1  0  0  0
 42110  1  0  0  0
 42111  1  0  0  0
 43 44  1  0  0  0
 44112  1  0  0  0
 45 46  2  0  0  0
 45113  1  0  0  0
 46114  1  0  0  0
 47115  1  0  0  0
 47116  1  0  0  0
 48 56  1  0  0  0
 48 65  1  0  0  0
 48117  1  0  0  0
 49 50  1  0  0  0
 49 53  1  0  0  0
 49 64  1  0  0  0
 49118  1  0  0  0
 50 51  1  0  0  0
 50119  1  0  0  0
 50120  1  0  0  0
 51 52  1  0  0  0
 51121  1  0  0  0
 51122  1  0  0  0
 52123  1  0  0  0
 52124  1  0  0  0
 53 54  1  0  0  0
 54 55  2  0  0  0
 54125  1  0  0  0
 55 57  1  0  0  0
 55126  1  0  0  0
 56 69  2  0  0  0
 57 58  2  0  0  0
 57127  1  0  0  0
 58128  1  0  0  0
 59 60  1  0  0  0
 59 61  1  0  0  0
 59 62  1  0  0  0
 60129  1  0  0  0
 60130  1  0  0  0
 60131  1  0  0  0
 61132  1  0  0  0
 61133  1  0  0  0
 61134  1  0  0  0
 62135  1  0  0  0
 62136  1  0  0  0
 62137  1  0  0  0
 63 65  1  0  0  0
 63138  1  0  0  0
 63139  1  0  0  0
 63140  1  0  0  0
 64141  1  0  0  0
 65142  1  0  0  0
 68 79  1  0  0  0
 71 72  2  0  0  0
 71 81  1  0  0  0
 71143  1  0  0  0
 72 77  1  0  0  0
 72 82  1  0  0  0
 73 74  1  0  0  0
 73 75  1  0  0  0
 73 81  2  0  0  0
 74 80  1  0  0  0
 74 82  2  0  0  0
 75144  1  0  0  0
 75145  1  0  0  0
 75146  1  0  0  0
 76147  1  0  0  0
 76148  1  0  0  0
 76149  1  0  0  0
 76 80  1  0  0  0
 77 78  1  0  0  0
 77150  1  0  0  0
 77151  1  0  0  0
 78 79  1  0  0  0
 78152  1  0  0  0
 78153  1  0  0  0
 79154  1  0  0  0
 79155  1  0  0  0
 80 83  1  0  0  0
 80156  1  0  0  0
 83157  1  0  0  0
M  ISO  4   1 100  68 101  79 101  83 100
M  END
> <chiral flag>
0

> <version>
0

> <s_m_source_file>
/data/baiqing/PycharmProjects/Reinvent-master-3.2/result/LINK_invent/BTK/process_docking_weight1_custom_sum_contain_oxygen_bond_distance_aromatic_linkinvent_7_9_3/rearranged_h_0082.sdf

> <i_m_source_file_index>
69

> <r_mmod_Potential_Energy-OPLS-2005>
246.345306396484

> <r_mmod_Stretch_Energy-OPLS-2005>
140.04850769043

> <r_mmod_Bend_Energy-OPLS-2005>
199.24658203125

> <r_mmod_Torsional_Energy-OPLS-2005>
278.828369140625

> <r_mmod_Improper_Torsional_Energy-OPLS-2005>
6.83821201324463

> <r_mmod_Van_der_Waal_Energy-OPLS-2005>
131.576019287109

> <r_mmod_Electrostatic_Energy-OPLS-2005>
-379.443572998047

> <r_mmod_Solvation_Energy-OPLS-2005>
-212.648010253906

> <b_mmod_Minimization_Converged-OPLS-2005>
0

> <r_mmod_RMS_Derivative-OPLS-2005>
3.27319097518921

$$$$
70
                    3D
 Structure written by MMmdl.
168176  0  0  1  0            999 V2000
  -30.6604  -14.5473   20.5332 C   0  0  0  0  0  0
  -30.4368  -12.3440   19.4201 C   0  0  0  0  0  0
  -29.4924  -12.4860   18.2060 C   0  0  0  0  0  0
  -28.0170  -12.3409   18.6302 C   0  0  0  0  0  0
  -27.6619  -13.2037   19.8705 C   0  0  2  0  0  0
  -28.7117  -12.9986   20.9843 C   0  0  0  0  0  0
  -25.2630  -13.8164   20.5696 C   0  0  0  0  0  0
  -24.1869  -13.0443   20.9195 C   0  0  0  0  0  0
  -24.6417  -11.6907   20.8765 C   0  0  0  0  0  0
  -23.9080  -10.4296   21.0425 C   0  0  0  0  0  0
  -24.3633   -9.4191   21.9199 C   0  0  0  0  0  0
  -23.6303   -8.2229   22.0759 C   0  0  0  0  0  0
  -22.4289   -8.0283   21.3560 C   0  0  0  0  0  0
  -21.9928   -9.0253   20.4644 C   0  0  0  0  0  0
  -22.7259  -10.2130   20.3064 C   0  0  0  0  0  0
  -21.6843   -6.0748   22.5280 C   0  0  0  0  0  0
  -21.4005   -6.5650   23.8214 C   0  0  0  0  0  0
  -21.3656   -5.6801   24.9179 C   0  0  0  0  0  0
  -21.6038   -4.3060   24.7229 C   0  0  0  0  0  0
  -21.8825   -3.8156   23.4338 C   0  0  0  0  0  0
  -21.9189   -4.6977   22.3400 C   0  0  0  0  0  0
  -22.7885  -13.5234   21.1832 C   0  0  0  0  0  0
  -22.1661   -4.2162   21.0974 F   0  0  0  0  0  0
  -21.5631   -3.4541   25.7736 F   0  0  0  0  0  0
  -30.0244  -13.3420   20.4226 N   0  0  0  0  0  0
  -26.3053  -12.9323   20.3388 N   0  0  0  0  0  0
  -25.9354  -11.6481   20.5809 N   0  0  0  0  0  0
  -22.0533  -12.8215   22.0394 N   0  0  0  0  0  0
  -25.4374  -15.1872   20.4095 N   0  0  0  0  0  0
  -31.8161  -14.6847   20.1085 O   0  0  0  0  0  0
  -21.6639   -6.8892   21.4247 O   0  0  0  0  0  0
  -22.3564  -14.5526   20.6664 O   0  0  0  0  0  0
  -24.6124  -31.8664   23.2105 C   0  0  0  0  0  0
  -25.8993  -32.4825   23.8394 C   0  0  1  0  0  0
  -27.2314  -27.4236   20.1025 C   0  0  0  0  0  0
  -25.5832  -33.8618   24.2314 N   0  0  0  0  0  0
  -23.4030  -30.4881   21.5526 C   0  0  2  0  0  0
  -24.8539  -28.9516   20.1176 C   0  0  0  0  0  0
  -22.7413  -29.4631   22.4996 C   0  0  0  0  0  0
  -18.0258  -28.1397   22.8481 C   0  0  0  0  0  0
  -24.1473  -36.7333   23.2642 C   0  0  0  0  0  0
  -25.9304  -30.8301   21.3662 C   0  0  0  0  0  0
  -26.0161  -29.4602   20.7169 C   0  0  0  0  0  0
  -27.2137  -28.7027   20.7128 C   0  0  0  0  0  0
  -26.0591  -26.9308   19.4973 C   0  0  0  0  0  0
  -24.8707  -27.6863   19.5043 C   0  0  0  0  0  0
  -23.6161  -29.8210   20.1668 C   0  0  0  0  0  0
  -25.4104  -36.3115   24.0307 C   0  0  1  0  0  0
  -20.5848  -28.3691   23.1318 C   0  0  2  0  0  0
  -20.6759  -26.9429   22.5433 C   0  0  0  0  0  0
  -19.5744  -26.6412   21.5219 C   0  0  0  0  0  0
  -18.1921  -26.7935   22.1635 C   0  0  0  0  0  0
  -19.1509  -28.8858   23.2897 C   0  0  0  0  0  0
  -18.9440  -30.1449   23.8935 C   0  0  0  0  0  0
  -17.6445  -30.6608   24.0585 C   0  0  0  0  0  0
  -25.9007  -34.9472   23.5124 C   0  0  0  0  0  0
  -16.5339  -29.9111   23.6328 C   0  0  0  0  0  0
  -16.7255  -28.6537   23.0332 C   0  0  0  0  0  0
  -26.4453  -31.6609   25.0725 C   0  0  0  0  0  0
  -25.3700  -31.3678   26.1467 C   0  0  0  0  0  0
  -27.0331  -30.3070   24.6096 C   0  0  0  0  0  0
  -27.6031  -32.4356   25.7477 C   0  0  0  0  0  0
  -27.5593  -37.1804   24.8461 C   0  0  0  0  0  0
  -21.4144  -29.3035   22.3726 N   0  0  0  0  0  0
  -26.4318  -37.3786   23.9383 N   0  0  0  0  0  0
  -24.6676  -31.0744   22.1030 N   0  0  0  0  0  0
  -23.4157  -28.8166   23.3044 O   0  0  0  0  0  0
  -28.3632  -26.6435   20.0573 O   0  0  0  0  0  0
  -26.5632  -34.8943   22.4725 O   0  0  0  0  0  0
  -23.5318  -32.1436   23.7477 O   0  0  0  0  0  0
  -29.2420  -18.2801   20.6024 C   0  0  0  0  0  0
  -28.8653  -19.3064   19.6960 C   0  0  0  0  0  0
  -28.9318  -18.9941   18.3116 C   0  0  0  0  0  0
  -29.6579  -16.9998   20.1416 C   0  0  0  0  0  0
  -29.3839  -17.7055   17.9314 C   0  0  0  0  0  0
  -28.4857  -19.9912   17.2445 C   0  0  0  0  0  0
  -29.4721  -17.2681   16.4807 C   0  0  0  0  0  0
  -30.6927  -16.2843   22.3882 C   0  0  0  0  0  0
  -30.0895  -24.0678   22.1703 C   0  0  0  0  0  0
  -28.2818  -20.6419   20.2257 C   0  0  0  0  0  0
  -29.1021  -21.9469   19.9779 C   0  0  0  0  0  0
  -28.3860  -23.2673   20.4385 C   0  0  0  0  0  0
  -28.5181  -25.7767   21.1883 C   0  0  0  0  0  0
  -29.9382  -15.8182   21.1263 C   0  0  2  0  0  0
  -29.2994  -24.4547   20.8982 C   0  0  1  0  0  0
  -29.7171  -16.7456   18.8169 N   0  0  0  0  0  0
  -31.4714  -12.4703   19.0977 H   0  0  0  0  0  0
  -30.3793  -11.3398   19.8421 H   0  0  0  0  0  0
  -29.7349  -11.7350   17.4529 H   0  0  0  0  0  0
  -29.6405  -13.4563   17.7288 H   0  0  0  0  0  0
  -27.8452  -11.2877   18.8585 H   0  0  0  0  0  0
  -27.3543  -12.5819   17.7987 H   0  0  0  0  0  0
  -27.7023  -14.2463   19.5544 H   0  0  0  0  0  0
  -28.7156  -11.9568   21.3075 H   0  0  0  0  0  0
  -28.4726  -13.5638   21.8839 H   0  0  0  0  0  0
  -25.2781   -9.5661   22.4778 H   0  0  0  0  0  0
  -24.0004   -7.4626   22.7490 H   0  0  0  0  0  0
  -21.0859   -8.8780   19.8954 H   0  0  0  0  0  0
  -22.3727  -10.9683   19.6173 H   0  0  0  0  0  0
  -21.1996   -7.6159   23.9721 H   0  0  0  0  0  0
  -21.1472   -6.0530   25.9083 H   0  0  0  0  0  0
  -22.0607   -2.7619   23.2835 H   0  0  0  0  0  0
  -22.4176  -11.9883   22.4772 H   0  0  0  0  0  0
  -21.1149  -13.1230   22.2607 H   0  0  0  0  0  0
  -24.6757  -15.8475   20.5211 H   0  0  0  0  0  0
  -26.2900  -15.6200   20.0776 H   0  0  0  0  0  0
  -26.7068  -32.5587   23.1161 H   0  0  0  0  0  0
  -24.9818  -33.9734   25.0353 H   0  0  0  0  0  0
  -22.6955  -31.3075   21.4147 H   0  0  0  0  0  0
  -23.3726  -35.9686   23.3308 H   0  0  0  0  0  0
  -24.3563  -36.8971   22.2074 H   0  0  0  0  0  0
  -23.7250  -37.6521   23.6698 H   0  0  0  0  0  0
  -26.0313  -31.5987   20.5973 H   0  0  0  0  0  0
  -26.8162  -30.8918   21.9846 H   0  0  0  0  0  0
  -28.1155  -29.0837   21.1744 H   0  0  0  0  0  0
  -26.0663  -25.9568   19.0259 H   0  0  0  0  0  0
  -23.9760  -27.2942   19.0373 H   0  0  0  0  0  0
  -23.7249  -30.5992   19.4104 H   0  0  0  0  0  0
  -22.7369  -29.2418   19.8720 H   0  0  0  0  0  0
  -25.1292  -36.1988   25.0796 H   0  0  0  0  0  0
  -20.9925  -28.3310   24.1433 H   0  0  0  0  0  0
  -20.5698  -26.2303   23.3616 H   0  0  0  0  0  0
  -21.6627  -26.7518   22.1202 H   0  0  0  0  0  0
  -19.6926  -25.6323   21.1245 H   0  0  0  0  0  0
  -19.6684  -27.3247   20.6757 H   0  0  0  0  0  0
  -17.4176  -26.6648   21.4056 H   0  0  0  0  0  0
  -18.0328  -26.0115   22.9064 H   0  0  0  0  0  0
  -19.7928  -30.7215   24.2386 H   0  0  0  0  0  0
  -17.5023  -31.6288   24.5189 H   0  0  0  0  0  0
  -15.5346  -30.3020   23.7652 H   0  0  0  0  0  0
  -15.8651  -28.0886   22.7001 H   0  0  0  0  0  0
  -24.5873  -30.7050   25.7752 H   0  0  0  0  0  0
  -24.8875  -32.2805   26.4972 H   0  0  0  0  0  0
  -25.8023  -30.8792   27.0203 H   0  0  0  0  0  0
  -26.2894  -29.6760   24.1220 H   0  0  0  0  0  0
  -27.4183  -29.7391   25.4566 H   0  0  0  0  0  0
  -27.8676  -30.4404   23.9210 H   0  0  0  0  0  0
  -27.2657  -33.3673   26.2049 H   0  0  0  0  0  0
  -28.3821  -32.6890   25.0264 H   0  0  0  0  0  0
  -28.0718  -31.8481   26.5384 H   0  0  0  0  0  0
  -28.2595  -38.0127   24.7545 H   0  0  0  0  0  0
  -28.1106  -36.2643   24.6259 H   0  0  0  0  0  0
  -27.2282  -37.1408   25.8858 H   0  0  0  0  0  0
  -20.9323  -29.8771   21.6954 H   0  0  0  0  0  0
  -26.0211  -38.2859   24.1405 H   0  0  0  0  0  0
  -29.1544  -18.4683   21.6626 H   0  0  0  0  0  0
  -27.7534  -20.7046   17.6163 H   0  0  0  0  0  0
  -28.0090  -19.4853   16.4045 H   0  0  0  0  0  0
  -29.3400  -20.5500   16.8633 H   0  0  0  0  0  0
  -28.4770  -17.0355   16.1007 H   0  0  0  0  0  0
  -30.0824  -16.3715   16.3714 H   0  0  0  0  0  0
  -29.9161  -18.0423   15.8561 H   0  0  0  0  0  0
  -30.0809  -16.9492   22.9958 H   0  0  0  0  0  0
  -31.6075  -16.8150   22.1263 H   0  0  0  0  0  0
  -30.9621  -15.4420   23.0243 H   0  0  0  0  0  0
  -30.7716  -23.2351   22.0018 H   0  0  0  0  0  0
  -29.4165  -23.7884   22.9820 H   0  0  0  0  0  0
  -30.7014  -24.8959   22.5342 H   0  0  0  0  0  0
  -28.1212  -20.5473   21.3016 H   0  0  0  0  0  0
  -27.2797  -20.7585   19.8126 H   0  0  0  0  0  0
  -29.3316  -22.0466   18.9188 H   0  0  0  0  0  0
  -30.0649  -21.8325   20.4711 H   0  0  0  0  0  0
  -27.7009  -23.0429   21.2578 H   0  0  0  0  0  0
  -27.7412  -23.6127   19.6256 H   0  0  0  0  0  0
  -29.0599  -26.3766   21.9207 H   0  0  0  0  0  0
  -27.5590  -25.5379   21.6529 H   0  0  0  0  0  0
  -28.9411  -15.5436   21.4521 H   0  0  0  0  0  0
  -30.0231  -24.6657   20.1092 H   0  0  0  0  0  0
  1 25  1  0  0  0
  1 30  2  0  0  0
  1 84  1  0  0  0
  2  3  1  0  0  0
  2 25  1  0  0  0
  2 87  1  0  0  0
  2 88  1  0  0  0
  3  4  1  0  0  0
  3 89  1  0  0  0
  3 90  1  0  0  0
  4  5  1  0  0  0
  4 91  1  0  0  0
  4 92  1  0  0  0
  5  6  1  0  0  0
  5 26  1  0  0  0
  5 93  1  0  0  0
  6 25  1  0  0  0
  6 94  1  0  0  0
  6 95  1  0  0  0
  7  8  2  0  0  0
  7 26  1  0  0  0
  7 29  1  0  0  0
  8  9  1  0  0  0
  8 22  1  0  0  0
  9 10  1  0  0  0
  9 27  2  0  0  0
 10 11  2  0  0  0
 10 15  1  0  0  0
 11 12  1  0  0  0
 11 96  1  0  0  0
 12 13  2  0  0  0
 12 97  1  0  0  0
 13 14  1  0  0  0
 13 31  1  0  0  0
 14 15  2  0  0  0
 14 98  1  0  0  0
 15 99  1  0  0  0
 16 17  2  0  0  0
 16 21  1  0  0  0
 16 31  1  0  0  0
 17 18  1  0  0  0
 17100  1  0  0  0
 18 19  2  0  0  0
 18101  1  0  0  0
 19 20  1  0  0  0
 19 24  1  0  0  0
 20 21  2  0  0  0
 20102  1  0  0  0
 21 23  1  0  0  0
 22 28  1  0  0  0
 22 32  2  0  0  0
 26 27  1  0  0  0
 28103  1  0  0  0
 28104  1  0  0  0
 29105  1  0  0  0
 29106  1  0  0  0
 33 34  1  0  0  0
 33 66  1  0  0  0
 33 70  2  0  0  0
 34 36  1  0  0  0
 34 59  1  0  0  0
 34107  1  0  0  0
 35 44  2  0  0  0
 35 45  1  0  0  0
 35 68  1  0  0  0
 36 56  1  0  0  0
 36108  1  0  0  0
 37 39  1  0  0  0
 37 47  1  0  0  0
 37 66  1  0  0  0
 37109  1  0  0  0
 38 43  2  0  0  0
 38 46  1  0  0  0
 38 47  1  0  0  0
 39 64  1  0  0  0
 39 67  2  0  0  0
 40 52  1  0  0  0
 40 53  2  0  0  0
 40 58  1  0  0  0
 41110  1  0  0  0
 41111  1  0  0  0
 41112  1  0  0  0
 41 48  1  0  0  0
 42 43  1  0  0  0
 42 66  1  0  0  0
 42113  1  0  0  0
 42114  1  0  0  0
 43 44  1  0  0  0
 44115  1  0  0  0
 45 46  2  0  0  0
 45116  1  0  0  0
 46117  1  0  0  0
 47118  1  0  0  0
 47119  1  0  0  0
 48 56  1  0  0  0
 48 65  1  0  0  0
 48120  1  0  0  0
 49 50  1  0  0  0
 49 53  1  0  0  0
 49 64  1  0  0  0
 49121  1  0  0  0
 50 51  1  0  0  0
 50122  1  0  0  0
 50123  1  0  0  0
 51 52  1  0  0  0
 51124  1  0  0  0
 51125  1  0  0  0
 52126  1  0  0  0
 52127  1  0  0  0
 53 54  1  0  0  0
 54 55  2  0  0  0
 54128  1  0  0  0
 55 57  1  0  0  0
 55129  1  0  0  0
 56 69  2  0  0  0
 57 58  2  0  0  0
 57130  1  0  0  0
 58131  1  0  0  0
 59 60  1  0  0  0
 59 61  1  0  0  0
 59 62  1  0  0  0
 60132  1  0  0  0
 60133  1  0  0  0
 60134  1  0  0  0
 61135  1  0  0  0
 61136  1  0  0  0
 61137  1  0  0  0
 62138  1  0  0  0
 62139  1  0  0  0
 62140  1  0  0  0
 63 65  1  0  0  0
 63141  1  0  0  0
 63142  1  0  0  0
 63143  1  0  0  0
 64144  1  0  0  0
 65145  1  0  0  0
 68 83  1  0  0  0
 71 72  2  0  0  0
 71 74  1  0  0  0
 71146  1  0  0  0
 72 73  1  0  0  0
 72 80  1  0  0  0
 73 75  2  0  0  0
 73 76  1  0  0  0
 74 84  1  0  0  0
 74 86  2  0  0  0
 75 77  1  0  0  0
 75 86  1  0  0  0
 76147  1  0  0  0
 76148  1  0  0  0
 76149  1  0  0  0
 77150  1  0  0  0
 77151  1  0  0  0
 77152  1  0  0  0
 78153  1  0  0  0
 78154  1  0  0  0
 78155  1  0  0  0
 78 84  1  0  0  0
 79156  1  0  0  0
 79157  1  0  0  0
 79158  1  0  0  0
 79 85  1  0  0  0
 80 81  1  0  0  0
 80159  1  0  0  0
 80160  1  0  0  0
 81 82  1  0  0  0
 81161  1  0  0  0
 81162  1  0  0  0
 82 85  1  0  0  0
 82163  1  0  0  0
 82164  1  0  0  0
 83 85  1  0  0  0
 83165  1  0  0  0
 83166  1  0  0  0
 84167  1  0  0  0
 85168  1  0  0  0
M  ISO  4   1 100  68 101  83 101  84 100
M  END
> <chiral flag>
0

> <version>
0

> <s_m_source_file>
/data/baiqing/PycharmProjects/Reinvent-master-3.2/result/LINK_invent/BTK/process_docking_weight1_custom_sum_contain_oxygen_bond_distance_aromatic_linkinvent_7_9_3/rearranged_h_0082.sdf

> <i_m_source_file_index>
70

> <r_mmod_Potential_Energy-OPLS-2005>
-60.0131378173828

> <r_mmod_Stretch_Energy-OPLS-2005>
52.0034332275391

> <r_mmod_Bend_Energy-OPLS-2005>
112.104942321777

> <r_mmod_Torsional_Energy-OPLS-2005>
218.490768432617

> <r_mmod_Improper_Torsional_Energy-OPLS-2005>
2.99503612518311

> <r_mmod_Van_der_Waal_Energy-OPLS-2005>
148.676544189453

> <r_mmod_Electrostatic_Energy-OPLS-2005>
-416.417388916016

> <r_mmod_Solvation_Energy-OPLS-2005>
-196.950439453125

> <b_mmod_Minimization_Converged-OPLS-2005>
0

> <r_mmod_RMS_Derivative-OPLS-2005>
3.90163111686707

$$$$
71
                    3D
 Structure written by MMmdl.
169177  0  0  1  0            999 V2000
  -30.5716  -14.7664   20.4710 C   0  0  0  0  0  0
  -30.4438  -12.4743   19.4591 C   0  0  0  0  0  0
  -29.5083  -12.5029   18.2286 C   0  0  0  0  0  0
  -28.0377  -12.3134   18.6515 C   0  0  0  0  0  0
  -27.6402  -13.2195   19.8460 C   0  0  2  0  0  0
  -28.6868  -13.1480   20.9778 C   0  0  0  0  0  0
  -25.2525  -13.8162   20.5684 C   0  0  0  0  0  0
  -24.1810  -13.0425   20.9214 C   0  0  0  0  0  0
  -24.6382  -11.6896   20.8752 C   0  0  0  0  0  0
  -23.9054  -10.4282   21.0413 C   0  0  0  0  0  0
  -24.3611   -9.4199   21.9187 C   0  0  0  0  0  0
  -23.6288   -8.2236   22.0753 C   0  0  0  0  0  0
  -22.4272   -8.0274   21.3540 C   0  0  0  0  0  0
  -21.9905   -9.0249   20.4641 C   0  0  0  0  0  0
  -22.7231  -10.2130   20.3057 C   0  0  0  0  0  0
  -21.6851   -6.0734   22.5277 C   0  0  0  0  0  0
  -21.4018   -6.5642   23.8210 C   0  0  0  0  0  0
  -21.3654   -5.6794   24.9173 C   0  0  0  0  0  0
  -21.6044   -4.3056   24.7221 C   0  0  0  0  0  0
  -21.8819   -3.8148   23.4343 C   0  0  0  0  0  0
  -21.9194   -4.6964   22.3401 C   0  0  0  0  0  0
  -22.7839  -13.5223   21.1874 C   0  0  0  0  0  0
  -22.1662   -4.2154   21.0977 F   0  0  0  0  0  0
  -21.5622   -3.4534   25.7734 F   0  0  0  0  0  0
  -29.9808  -13.5252   20.3927 N   0  0  0  0  0  0
  -26.2931  -12.9342   20.3257 N   0  0  0  0  0  0
  -25.9307  -11.6496   20.5743 N   0  0  0  0  0  0
  -22.0486  -12.8208   22.0424 N   0  0  0  0  0  0
  -25.4226  -15.1882   20.4087 N   0  0  0  0  0  0
  -31.7655  -14.9076   20.1937 O   0  0  0  0  0  0
  -21.6637   -6.8877   21.4241 O   0  0  0  0  0  0
  -22.3531  -14.5530   20.6725 O   0  0  0  0  0  0
  -24.6315  -31.8532   23.1951 C   0  0  0  0  0  0
  -25.9130  -32.4732   23.8309 C   0  0  1  0  0  0
  -27.2265  -27.2529   20.1350 C   0  0  0  0  0  0
  -25.5907  -33.8537   24.2224 N   0  0  0  0  0  0
  -23.4320  -30.4713   21.5403 C   0  0  2  0  0  0
  -24.8805  -28.9088   20.1186 C   0  0  0  0  0  0
  -22.7514  -29.4578   22.4916 C   0  0  0  0  0  0
  -18.0292  -28.1402   22.8467 C   0  0  0  0  0  0
  -24.1501  -36.7292   23.2645 C   0  0  0  0  0  0
  -25.9775  -30.7617   21.3781 C   0  0  0  0  0  0
  -26.0531  -29.3814   20.7239 C   0  0  0  0  0  0
  -27.2326  -28.5679   20.7138 C   0  0  0  0  0  0
  -26.0296  -26.8390   19.5192 C   0  0  0  0  0  0
  -24.8729  -27.6455   19.5057 C   0  0  0  0  0  0
  -23.6527  -29.7992   20.1599 C   0  0  0  0  0  0
  -25.4126  -36.3048   24.0312 C   0  0  1  0  0  0
  -20.5894  -28.3712   23.1269 C   0  0  2  0  0  0
  -20.6787  -26.9432   22.5412 C   0  0  0  0  0  0
  -19.5762  -26.6396   21.5215 C   0  0  0  0  0  0
  -18.1943  -26.7941   22.1623 C   0  0  0  0  0  0
  -19.1543  -28.8870   23.2860 C   0  0  0  0  0  0
  -18.9468  -30.1470   23.8882 C   0  0  0  0  0  0
  -17.6465  -30.6594   24.0562 C   0  0  0  0  0  0
  -25.9063  -34.9421   23.5079 C   0  0  0  0  0  0
  -16.5353  -29.9097   23.6327 C   0  0  0  0  0  0
  -16.7281  -28.6524   23.0330 C   0  0  0  0  0  0
  -26.4500  -31.6568   25.0711 C   0  0  0  0  0  0
  -25.3716  -31.3696   26.1422 C   0  0  0  0  0  0
  -27.0359  -30.2982   24.6207 C   0  0  0  0  0  0
  -27.6051  -32.4330   25.7469 C   0  0  0  0  0  0
  -27.5586  -37.1784   24.8455 C   0  0  0  0  0  0
  -21.4221  -29.3044   22.3644 N   0  0  0  0  0  0
  -26.4306  -37.3741   23.9392 N   0  0  0  0  0  0
  -24.6994  -31.0471   22.0941 N   0  0  0  0  0  0
  -23.4195  -28.8120   23.3034 O   0  0  0  0  0  0
  -28.3369  -26.3816   20.0968 O   0  0  0  0  0  0
  -26.5665  -34.8901   22.4666 O   0  0  0  0  0  0
  -23.5453  -32.1361   23.7224 O   0  0  0  0  0  0
  -29.8281  -20.2120   18.5213 C   0  0  0  0  0  0
  -30.3116  -19.1499   17.8025 C   0  0  0  0  0  0
  -29.8864  -18.4313   19.8929 C   0  0  0  0  0  0
  -27.1931  -23.0935   19.3442 C   0  0  0  0  0  0
  -31.4247  -20.3240   15.9096 C   0  0  0  0  0  0
  -29.4383  -18.8317   15.5197 C   0  0  0  0  0  0
  -31.6683  -17.8402   16.1437 C   0  0  0  0  0  0
  -29.9564  -17.3384   21.0191 C   0  0  0  0  0  0
  -29.2414  -22.3801   20.7885 C   0  0  0  0  0  0
  -28.9070  -20.7712   20.7863 C   0  0  0  0  0  0
  -28.2713  -25.0166   20.7268 C   0  0  0  0  0  0
  -28.5068  -23.5871   19.9652 C   0  0  2  0  0  0
  -30.7132  -19.0330   16.3548 C   0  0  0  0  0  0
  -29.5586  -19.7927   19.8008 N   0  0  0  0  0  0
  -30.3083  -18.0914   18.6715 N   0  3  0  0  0  0
  -29.7350  -15.8581   20.6584 N   0  0  0  0  0  0
  -31.4780  -12.6308   19.1495 H   0  0  0  0  0  0
  -30.4181  -11.4965   19.9433 H   0  0  0  0  0  0
  -29.7946  -11.7260   17.5187 H   0  0  0  0  0  0
  -29.6196  -13.4527   17.7030 H   0  0  0  0  0  0
  -27.9099  -11.2664   18.9286 H   0  0  0  0  0  0
  -27.3727  -12.4854   17.8050 H   0  0  0  0  0  0
  -27.6339  -14.2382   19.4597 H   0  0  0  0  0  0
  -28.7361  -12.1424   21.3988 H   0  0  0  0  0  0
  -28.4173  -13.8096   21.8027 H   0  0  0  0  0  0
  -25.2754   -9.5677   22.4760 H   0  0  0  0  0  0
  -23.9997   -7.4626   22.7470 H   0  0  0  0  0  0
  -21.0839   -8.8769   19.8940 H   0  0  0  0  0  0
  -22.3689  -10.9676   19.6168 H   0  0  0  0  0  0
  -21.2019   -7.6151   23.9716 H   0  0  0  0  0  0
  -21.1471   -6.0522   25.9076 H   0  0  0  0  0  0
  -22.0604   -2.7609   23.2841 H   0  0  0  0  0  0
  -22.4115  -11.9865   22.4799 H   0  0  0  0  0  0
  -21.1100  -13.1220   22.2634 H   0  0  0  0  0  0
  -24.6481  -15.8348   20.5110 H   0  0  0  0  0  0
  -26.2517  -15.6255   20.0290 H   0  0  0  0  0  0
  -26.7193  -32.5383   23.1049 H   0  0  0  0  0  0
  -24.9923  -33.9663   25.0276 H   0  0  0  0  0  0
  -22.7303  -31.2944   21.3898 H   0  0  0  0  0  0
  -23.3752  -35.9639   23.3294 H   0  0  0  0  0  0
  -24.3584  -36.8957   22.2065 H   0  0  0  0  0  0
  -23.7292  -37.6495   23.6702 H   0  0  0  0  0  0
  -26.1193  -31.5202   20.6076 H   0  0  0  0  0  0
  -26.8526  -30.8121   22.0146 H   0  0  0  0  0  0
  -28.1389  -28.9282   21.1812 H   0  0  0  0  0  0
  -25.9835  -25.8711   19.0448 H   0  0  0  0  0  0
  -23.9737  -27.2782   19.0304 H   0  0  0  0  0  0
  -23.7815  -30.5729   19.4018 H   0  0  0  0  0  0
  -22.7705  -29.2333   19.8537 H   0  0  0  0  0  0
  -25.1318  -36.1890   25.0803 H   0  0  0  0  0  0
  -20.9978  -28.3312   24.1391 H   0  0  0  0  0  0
  -20.5720  -26.2322   23.3615 H   0  0  0  0  0  0
  -21.6656  -26.7469   22.1193 H   0  0  0  0  0  0
  -19.6939  -25.6310   21.1248 H   0  0  0  0  0  0
  -19.6713  -27.3207   20.6745 H   0  0  0  0  0  0
  -17.4216  -26.6663   21.4031 H   0  0  0  0  0  0
  -18.0346  -26.0099   22.9033 H   0  0  0  0  0  0
  -19.7943  -30.7276   24.2265 H   0  0  0  0  0  0
  -17.5024  -31.6268   24.5183 H   0  0  0  0  0  0
  -15.5356  -30.2988   23.7678 H   0  0  0  0  0  0
  -15.8681  -28.0849   22.7035 H   0  0  0  0  0  0
  -24.5895  -30.7057   25.7716 H   0  0  0  0  0  0
  -24.8891  -32.2846   26.4857 H   0  0  0  0  0  0
  -25.8019  -30.8841   27.0192 H   0  0  0  0  0  0
  -26.2934  -29.6705   24.1261 H   0  0  0  0  0  0
  -27.4075  -29.7266   25.4725 H   0  0  0  0  0  0
  -27.8798  -30.4255   23.9425 H   0  0  0  0  0  0
  -27.2659  -33.3643   26.2014 H   0  0  0  0  0  0
  -28.3846  -32.6887   25.0281 H   0  0  0  0  0  0
  -28.0737  -31.8493   26.5399 H   0  0  0  0  0  0
  -28.2571  -38.0109   24.7507 H   0  0  0  0  0  0
  -28.1117  -36.2630   24.6278 H   0  0  0  0  0  0
  -27.2287  -37.1430   25.8854 H   0  0  0  0  0  0
  -20.9433  -29.8750   21.6813 H   0  0  0  0  0  0
  -26.0180  -38.2815   24.1392 H   0  0  0  0  0  0
  -29.6431  -21.2295   18.2065 H   0  0  0  0  0  0
  -27.3417  -22.1684   18.7876 H   0  0  0  0  0  0
  -26.7903  -23.8243   18.6445 H   0  0  0  0  0  0
  -26.4351  -22.9082   20.1067 H   0  0  0  0  0  0
  -30.7783  -21.1977   15.9950 H   0  0  0  0  0  0
  -31.7446  -20.2611   14.8691 H   0  0  0  0  0  0
  -32.3146  -20.5112   16.5115 H   0  0  0  0  0  0
  -28.7587  -19.6787   15.6244 H   0  0  0  0  0  0
  -28.8960  -17.9382   15.8299 H   0  0  0  0  0  0
  -29.6675  -18.7265   14.4591 H   0  0  0  0  0  0
  -32.5664  -17.9364   16.7549 H   0  0  0  0  0  0
  -31.9888  -17.7753   15.1038 H   0  0  0  0  0  0
  -31.1948  -16.8892   16.3875 H   0  0  0  0  0  0
  -29.2175  -17.6294   21.7655 H   0  0  0  0  0  0
  -30.9355  -17.4526   21.4857 H   0  0  0  0  0  0
  -30.3168  -22.4907   20.6437 H   0  0  0  0  0  0
  -29.1000  -22.6619   21.8323 H   0  0  0  0  0  0
  -27.8294  -20.6269   20.7074 H   0  0  0  0  0  0
  -29.1696  -20.3895   21.7736 H   0  0  0  0  0  0
  -29.0520  -25.0699   21.4856 H   0  0  0  0  0  0
  -27.3525  -24.9479   21.3100 H   0  0  0  0  0  0
  -29.1710  -23.8036   19.1277 H   0  0  0  0  0  0
  -30.6191  -17.1576   18.4354 H   0  0  0  0  0  0
  -28.7690  -15.5838   20.7451 H   0  0  0  0  0  0
  1 25  1  0  0  0
  1 30  2  0  0  0
  1 86  1  0  0  0
  2  3  1  0  0  0
  2 25  1  0  0  0
  2 87  1  0  0  0
  2 88  1  0  0  0
  3  4  1  0  0  0
  3 89  1  0  0  0
  3 90  1  0  0  0
  4  5  1  0  0  0
  4 91  1  0  0  0
  4 92  1  0  0  0
  5  6  1  0  0  0
  5 26  1  0  0  0
  5 93  1  0  0  0
  6 25  1  0  0  0
  6 94  1  0  0  0
  6 95  1  0  0  0
  7  8  2  0  0  0
  7 26  1  0  0  0
  7 29  1  0  0  0
  8  9  1  0  0  0
  8 22  1  0  0  0
  9 10  1  0  0  0
  9 27  2  0  0  0
 10 11  2  0  0  0
 10 15  1  0  0  0
 11 12  1  0  0  0
 11 96  1  0  0  0
 12 13  2  0  0  0
 12 97  1  0  0  0
 13 14  1  0  0  0
 13 31  1  0  0  0
 14 15  2  0  0  0
 14 98  1  0  0  0
 15 99  1  0  0  0
 16 17  2  0  0  0
 16 21  1  0  0  0
 16 31  1  0  0  0
 17 18  1  0  0  0
 17100  1  0  0  0
 18 19  2  0  0  0
 18101  1  0  0  0
 19 20  1  0  0  0
 19 24  1  0  0  0
 20 21  2  0  0  0
 20102  1  0  0  0
 21 23  1  0  0  0
 22 28  1  0  0  0
 22 32  2  0  0  0
 26 27  1  0  0  0
 28103  1  0  0  0
 28104  1  0  0  0
 29105  1  0  0  0
 29106  1  0  0  0
 33 34  1  0  0  0
 33 66  1  0  0  0
 33 70  2  0  0  0
 34 36  1  0  0  0
 34 59  1  0  0  0
 34107  1  0  0  0
 35 44  2  0  0  0
 35 45  1  0  0  0
 35 68  1  0  0  0
 36 56  1  0  0  0
 36108  1  0  0  0
 37 39  1  0  0  0
 37 47  1  0  0  0
 37 66  1  0  0  0
 37109  1  0  0  0
 38 43  2  0  0  0
 38 46  1  0  0  0
 38 47  1  0  0  0
 39 64  1  0  0  0
 39 67  2  0  0  0
 40 52  1  0  0  0
 40 53  2  0  0  0
 40 58  1  0  0  0
 41110  1  0  0  0
 41111  1  0  0  0
 41112  1  0  0  0
 41 48  1  0  0  0
 42 43  1  0  0  0
 42 66  1  0  0  0
 42113  1  0  0  0
 42114  1  0  0  0
 43 44  1  0  0  0
 44115  1  0  0  0
 45 46  2  0  0  0
 45116  1  0  0  0
 46117  1  0  0  0
 47118  1  0  0  0
 47119  1  0  0  0
 48 56  1  0  0  0
 48 65  1  0  0  0
 48120  1  0  0  0
 49 50  1  0  0  0
 49 53  1  0  0  0
 49 64  1  0  0  0
 49121  1  0  0  0
 50 51  1  0  0  0
 50122  1  0  0  0
 50123  1  0  0  0
 51 52  1  0  0  0
 51124  1  0  0  0
 51125  1  0  0  0
 52126  1  0  0  0
 52127  1  0  0  0
 53 54  1  0  0  0
 54 55  2  0  0  0
 54128  1  0  0  0
 55 57  1  0  0  0
 55129  1  0  0  0
 56 69  2  0  0  0
 57 58  2  0  0  0
 57130  1  0  0  0
 58131  1  0  0  0
 59 60  1  0  0  0
 59 61  1  0  0  0
 59 62  1  0  0  0
 60132  1  0  0  0
 60133  1  0  0  0
 60134  1  0  0  0
 61135  1  0  0  0
 61136  1  0  0  0
 61137  1  0  0  0
 62138  1  0  0  0
 62139  1  0  0  0
 62140  1  0  0  0
 63 65  1  0  0  0
 63141  1  0  0  0
 63142  1  0  0  0
 63143  1  0  0  0
 64144  1  0  0  0
 65145  1  0  0  0
 68 81  1  0  0  0
 71 72  2  0  0  0
 71 84  1  0  0  0
 71146  1  0  0  0
 72 83  1  0  0  0
 72 85  1  0  0  0
 73 78  1  0  0  0
 73 84  1  0  0  0
 73 85  2  0  0  0
 74147  1  0  0  0
 74148  1  0  0  0
 74149  1  0  0  0
 74 82  1  0  0  0
 75150  1  0  0  0
 75151  1  0  0  0
 75152  1  0  0  0
 75 83  1  0  0  0
 76 83  1  0  0  0
 76153  1  0  0  0
 76154  1  0  0  0
 76155  1  0  0  0
 77 83  1  0  0  0
 77156  1  0  0  0
 77157  1  0  0  0
 77158  1  0  0  0
 78 86  1  0  0  0
 78159  1  0  0  0
 78160  1  0  0  0
 79 80  1  0  0  0
 79 82  1  0  0  0
 79161  1  0  0  0
 79162  1  0  0  0
 80 84  1  0  0  0
 80163  1  0  0  0
 80164  1  0  0  0
 81 82  1  0  0  0
 81165  1  0  0  0
 81166  1  0  0  0
 82167  1  0  0  0
 85168  1  0  0  0
 86169  1  0  0  0
M  CHG  1  85   1
M  ISO  4   1 100  68 101  81 101  86 100
M  END
> <chiral flag>
0

> <version>
0

> <s_m_source_file>
/data/baiqing/PycharmProjects/Reinvent-master-3.2/result/LINK_invent/BTK/process_docking_weight1_custom_sum_contain_oxygen_bond_distance_aromatic_linkinvent_7_9_3/rearranged_h_0082.sdf

> <i_m_source_file_index>
71

> <r_mmod_Potential_Energy-OPLS-2005>
106.505722045898

> <r_mmod_Stretch_Energy-OPLS-2005>
137.862258911133

> <r_mmod_Bend_Energy-OPLS-2005>
230.131225585938

> <r_mmod_Torsional_Energy-OPLS-2005>
269.859771728516

> <r_mmod_Improper_Torsional_Energy-OPLS-2005>
5.70355081558228

> <r_mmod_Van_der_Waal_Energy-OPLS-2005>
104.263320922852

> <r_mmod_Electrostatic_Energy-OPLS-2005>
-335.183959960938

> <r_mmod_Solvation_Energy-OPLS-2005>
-397.233947753906

> <b_mmod_Minimization_Converged-OPLS-2005>
0

> <r_mmod_RMS_Derivative-OPLS-2005>
1.62562441825867

$$$$
72
                    3D
 Structure written by MMmdl.
172180  0  0  1  0            999 V2000
  -30.3124  -15.5693   20.3451 C   0  0  0  0  0  0
  -30.4185  -13.0384   19.5102 C   0  0  0  0  0  0
  -29.5357  -12.6621   18.2872 C   0  0  0  0  0  0
  -28.1039  -12.3111   18.7281 C   0  0  0  0  0  0
  -27.5869  -13.3062   19.7955 C   0  0  2  0  0  0
  -28.6121  -13.6014   20.9112 C   0  0  0  0  0  0
  -25.2261  -13.8259   20.5753 C   0  0  0  0  0  0
  -24.1693  -13.0378   20.9282 C   0  0  0  0  0  0
  -24.6444  -11.6908   20.8736 C   0  0  0  0  0  0
  -23.9158  -10.4246   21.0368 C   0  0  0  0  0  0
  -24.3695   -9.4161   21.9145 C   0  0  0  0  0  0
  -23.6330   -8.2223   22.0755 C   0  0  0  0  0  0
  -22.4283   -8.0280   21.3581 C   0  0  0  0  0  0
  -21.9940   -9.0244   20.4662 C   0  0  0  0  0  0
  -22.7318  -10.2094   20.3026 C   0  0  0  0  0  0
  -21.6864   -6.0737   22.5291 C   0  0  0  0  0  0
  -21.4042   -6.5644   23.8227 C   0  0  0  0  0  0
  -21.3662   -5.6802   24.9190 C   0  0  0  0  0  0
  -21.6035   -4.3060   24.7247 C   0  0  0  0  0  0
  -21.8800   -3.8142   23.4369 C   0  0  0  0  0  0
  -21.9178   -4.6958   22.3417 C   0  0  0  0  0  0
  -22.7699  -13.5080   21.1976 C   0  0  0  0  0  0
  -22.1639   -4.2141   21.0992 F   0  0  0  0  0  0
  -21.5602   -3.4539   25.7755 F   0  0  0  0  0  0
  -29.7852  -14.2132   20.2492 N   0  0  0  0  0  0
  -26.2715  -12.9618   20.3101 N   0  0  0  0  0  0
  -25.9380  -11.6689   20.5639 N   0  0  0  0  0  0
  -22.0441  -12.7992   22.0536 N   0  0  0  0  0  0
  -25.3739  -15.2025   20.4279 N   0  0  0  0  0  0
  -31.5547  -15.5188   20.2750 O   0  0  0  0  0  0
  -21.6642   -6.8882   21.4255 O   0  0  0  0  0  0
  -22.3317  -14.5371   20.6828 O   0  0  0  0  0  0
  -24.6734  -31.8096   23.1500 C   0  0  0  0  0  0
  -25.9302  -32.4565   23.8072 C   0  0  1  0  0  0
  -27.2406  -26.7607   20.2213 C   0  0  0  0  0  0
  -25.5897  -33.8399   24.1948 N   0  0  0  0  0  0
  -23.5058  -30.4077   21.4997 C   0  0  2  0  0  0
  -24.9696  -28.7613   20.1040 C   0  0  0  0  0  0
  -22.7768  -29.4333   22.4653 C   0  0  0  0  0  0
  -18.0352  -28.1476   22.8434 C   0  0  0  0  0  0
  -24.1480  -36.7305   23.2658 C   0  0  0  0  0  0
  -26.0765  -30.5617   21.4065 C   0  0  0  0  0  0
  -26.1447  -29.1273   20.7656 C   0  0  0  0  0  0
  -27.2560  -28.1488   20.8048 C   0  0  0  0  0  0
  -26.0459  -26.5923   19.4794 C   0  0  0  0  0  0
  -24.9563  -27.5186   19.4375 C   0  0  0  0  0  0
  -23.7647  -29.7140   20.1267 C   0  0  0  0  0  0
  -25.4111  -36.2998   24.0285 C   0  0  1  0  0  0
  -20.6003  -28.3836   23.1142 C   0  0  2  0  0  0
  -20.6868  -26.9493   22.5417 C   0  0  0  0  0  0
  -19.5834  -26.6378   21.5256 C   0  0  0  0  0  0
  -18.1981  -26.8003   22.1597 C   0  0  0  0  0  0
  -19.1627  -28.8967   23.2781 C   0  0  0  0  0  0
  -18.9530  -30.1532   23.8834 C   0  0  0  0  0  0
  -17.6529  -30.6634   24.0571 C   0  0  0  0  0  0
  -25.9070  -34.9369   23.4966 C   0  0  0  0  0  0
  -16.5421  -29.9135   23.6332 C   0  0  0  0  0  0
  -16.7350  -28.6586   23.0318 C   0  0  0  0  0  0
  -26.4476  -31.6611   25.0688 C   0  0  0  0  0  0
  -25.3483  -31.3908   26.1264 C   0  0  0  0  0  0
  -27.0434  -30.2988   24.6499 C   0  0  0  0  0  0
  -27.5954  -32.4467   25.7464 C   0  0  0  0  0  0
  -27.5557  -37.1809   24.8429 C   0  0  0  0  0  0
  -21.4421  -29.3095   22.3459 N   0  0  0  0  0  0
  -26.4252  -37.3736   23.9395 N   0  0  0  0  0  0
  -24.7743  -30.9587   22.0711 N   0  0  0  0  0  0
  -23.4222  -28.7872   23.2936 O   0  0  0  0  0  0
  -28.2299  -25.6059   20.4295 O   0  0  0  0  0  0
  -26.5736  -34.8943   22.4602 O   0  0  0  0  0  0
  -23.5759  -32.1133   23.6432 O   0  0  0  0  0  0
  -30.9019  -24.5519   18.8895 C   0  0  0  0  0  0
  -32.2275  -25.0050   19.1118 C   0  0  0  0  0  0
  -30.1382  -24.1633   20.0172 C   0  0  0  0  0  0
  -32.6925  -25.0246   20.4536 C   0  0  0  0  0  0
  -35.1698  -25.2980   16.5322 C   0  0  0  0  0  0
  -33.4014  -27.6042   22.4416 C   0  0  0  0  0  0
  -35.2061  -27.9283   20.6917 C   0  0  0  0  0  0
  -33.0708  -25.5656   17.9682 C   0  0  0  0  0  0
  -34.0161  -25.6689   20.8614 C   0  0  0  0  0  0
  -34.1460  -24.5967   17.4392 C   0  0  0  0  0  0
  -29.0018  -20.3448   20.0039 C   0  0  0  0  0  0
  -28.5685  -22.1289   20.5889 C   0  0  0  0  0  0
  -29.6049  -18.6444   20.6764 C   0  0  0  0  0  0
  -28.6174  -23.9590   19.9916 C   0  0  1  0  0  0
  -33.8933  -27.2028   21.0412 C   0  0  0  0  0  0
  -30.6754  -24.1667   21.2657 N   0  0  0  0  0  0
  -31.9295  -24.5772   21.4815 N   0  0  0  0  0  0
  -29.5397  -16.9125   20.3224 N   0  0  0  0  0  0
  -31.4216  -13.2925   19.1652 H   0  0  0  0  0  0
  -30.5567  -12.1804   20.1681 H   0  0  0  0  0  0
  -29.9793  -11.8321   17.7362 H   0  0  0  0  0  0
  -29.5007  -13.5070   17.5959 H   0  0  0  0  0  0
  -28.1177  -11.3023   19.1433 H   0  0  0  0  0  0
  -27.4342  -12.2839   17.8659 H   0  0  0  0  0  0
  -27.4528  -14.2390   19.2461 H   0  0  0  0  0  0
  -28.8586  -12.7034   21.4788 H   0  0  0  0  0  0
  -28.1980  -14.3119   21.6271 H   0  0  0  0  0  0
  -25.2854   -9.5586   22.4697 H   0  0  0  0  0  0
  -24.0011   -7.4608   22.7470 H   0  0  0  0  0  0
  -21.0851   -8.8806   19.8971 H   0  0  0  0  0  0
  -22.3814  -10.9638   19.6106 H   0  0  0  0  0  0
  -21.2094   -7.6160   23.9742 H   0  0  0  0  0  0
  -21.1483   -6.0530   25.9093 H   0  0  0  0  0  0
  -22.0571   -2.7604   23.2880 H   0  0  0  0  0  0
  -22.4193  -11.9669   22.4837 H   0  0  0  0  0  0
  -21.1069  -13.0910   22.2879 H   0  0  0  0  0  0
  -24.5880  -15.8303   20.5673 H   0  0  0  0  0  0
  -26.2016  -15.6723   20.0851 H   0  0  0  0  0  0
  -26.7395  -32.5078   23.0833 H   0  0  0  0  0  0
  -24.9998  -33.9489   25.0049 H   0  0  0  0  0  0
  -22.8253  -31.2414   21.3116 H   0  0  0  0  0  0
  -23.3745  -35.9629   23.3218 H   0  0  0  0  0  0
  -24.3541  -36.9084   22.2088 H   0  0  0  0  0  0
  -23.7249  -37.6455   23.6827 H   0  0  0  0  0  0
  -26.2537  -31.2751   20.6014 H   0  0  0  0  0  0
  -26.9361  -30.6474   22.0584 H   0  0  0  0  0  0
  -28.1312  -28.4238   21.3795 H   0  0  0  0  0  0
  -25.9097  -25.6504   18.9660 H   0  0  0  0  0  0
  -24.0685  -27.2351   18.8893 H   0  0  0  0  0  0
  -23.9503  -30.4841   19.3761 H   0  0  0  0  0  0
  -22.8721  -29.1883   19.7867 H   0  0  0  0  0  0
  -25.1304  -36.1796   25.0772 H   0  0  0  0  0  0
  -21.0072  -28.3516   24.1285 H   0  0  0  0  0  0
  -20.5842  -26.2456   23.3680 H   0  0  0  0  0  0
  -21.6711  -26.7538   22.1160 H   0  0  0  0  0  0
  -19.6998  -25.6236   21.1405 H   0  0  0  0  0  0
  -19.6811  -27.3080   20.6695 H   0  0  0  0  0  0
  -17.4294  -26.6775   21.3956 H   0  0  0  0  0  0
  -18.0329  -26.0153   22.8995 H   0  0  0  0  0  0
  -19.8005  -30.7365   24.2190 H   0  0  0  0  0  0
  -17.5097  -31.6300   24.5204 H   0  0  0  0  0  0
  -15.5429  -30.3051   23.7700 H   0  0  0  0  0  0
  -15.8740  -28.0934   22.7022 H   0  0  0  0  0  0
  -24.5728  -30.7221   25.7529 H   0  0  0  0  0  0
  -24.8561  -32.3106   26.4411 H   0  0  0  0  0  0
  -25.7535  -30.9239   27.0234 H   0  0  0  0  0  0
  -26.3105  -29.6617   24.1563 H   0  0  0  0  0  0
  -27.4031  -29.7446   25.5176 H   0  0  0  0  0  0
  -27.8996  -30.4229   23.9876 H   0  0  0  0  0  0
  -27.2556  -33.3914   26.1725 H   0  0  0  0  0  0
  -28.3859  -32.6812   25.0324 H   0  0  0  0  0  0
  -28.0512  -31.8805   26.5591 H   0  0  0  0  0  0
  -28.2494  -38.0177   24.7488 H   0  0  0  0  0  0
  -28.1132  -36.2704   24.6210 H   0  0  0  0  0  0
  -27.2295  -37.1389   25.8833 H   0  0  0  0  0  0
  -20.9700  -29.8902   21.6655 H   0  0  0  0  0  0
  -26.0115  -38.2795   24.1402 H   0  0  0  0  0  0
  -30.4543  -24.5823   17.9074 H   0  0  0  0  0  0
  -35.9559  -24.6032   16.2254 H   0  0  0  0  0  0
  -35.6539  -26.1374   17.0393 H   0  0  0  0  0  0
  -34.6956  -25.6828   15.6283 H   0  0  0  0  0  0
  -33.1900  -28.6727   22.4943 H   0  0  0  0  0  0
  -34.1431  -27.3787   23.2072 H   0  0  0  0  0  0
  -32.4793  -27.0848   22.7042 H   0  0  0  0  0  0
  -35.0614  -29.0083   20.6890 H   0  0  0  0  0  0
  -35.5689  -27.6537   19.6991 H   0  0  0  0  0  0
  -35.9981  -27.6972   21.4076 H   0  0  0  0  0  0
  -33.5448  -26.4872   18.3020 H   0  0  0  0  0  0
  -32.4202  -25.8638   17.1468 H   0  0  0  0  0  0
  -34.7614  -25.4427   20.1033 H   0  0  0  0  0  0
  -34.4003  -25.2081   21.7712 H   0  0  0  0  0  0
  -34.6943  -24.1425   18.2644 H   0  0  0  0  0  0
  -33.6711  -23.7745   16.9022 H   0  0  0  0  0  0
  -29.7183  -20.5404   19.2062 H   0  0  0  0  0  0
  -28.0967  -20.0746   19.4582 H   0  0  0  0  0  0
  -29.0288  -22.1681   21.5757 H   0  0  0  0  0  0
  -27.5112  -22.0246   20.8372 H   0  0  0  0  0  0
  -29.1820  -18.6453   21.6805 H   0  0  0  0  0  0
  -30.6661  -18.8044   20.8599 H   0  0  0  0  0  0
  -28.2954  -23.9091   18.9515 H   0  0  0  0  0  0
  -33.1527  -27.5595   20.3238 H   0  0  0  0  0  0
  -28.5770  -16.6734   20.1348 H   0  0  0  0  0  0
  1 25  1  0  0  0
  1 30  2  0  0  0
  1 88  1  0  0  0
  2  3  1  0  0  0
  2 25  1  0  0  0
  2 89  1  0  0  0
  2 90  1  0  0  0
  3  4  1  0  0  0
  3 91  1  0  0  0
  3 92  1  0  0  0
  4  5  1  0  0  0
  4 93  1  0  0  0
  4 94  1  0  0  0
  5  6  1  0  0  0
  5 26  1  0  0  0
  5 95  1  0  0  0
  6 25  1  0  0  0
  6 96  1  0  0  0
  6 97  1  0  0  0
  7  8  2  0  0  0
  7 26  1  0  0  0
  7 29  1  0  0  0
  8  9  1  0  0  0
  8 22  1  0  0  0
  9 10  1  0  0  0
  9 27  2  0  0  0
 10 11  2  0  0  0
 10 15  1  0  0  0
 11 12  1  0  0  0
 11 98  1  0  0  0
 12 13  2  0  0  0
 12 99  1  0  0  0
 13 14  1  0  0  0
 13 31  1  0  0  0
 14 15  2  0  0  0
 14100  1  0  0  0
 15101  1  0  0  0
 16 17  2  0  0  0
 16 21  1  0  0  0
 16 31  1  0  0  0
 17 18  1  0  0  0
 17102  1  0  0  0
 18 19  2  0  0  0
 18103  1  0  0  0
 19 20  1  0  0  0
 19 24  1  0  0  0
 20 21  2  0  0  0
 20104  1  0  0  0
 21 23  1  0  0  0
 22 28  1  0  0  0
 22 32  2  0  0  0
 26 27  1  0  0  0
 28105  1  0  0  0
 28106  1  0  0  0
 29107  1  0  0  0
 29108  1  0  0  0
 33 34  1  0  0  0
 33 66  1  0  0  0
 33 70  2  0  0  0
 34 36  1  0  0  0
 34 59  1  0  0  0
 34109  1  0  0  0
 35 44  2  0  0  0
 35 45  1  0  0  0
 35 68  1  0  0  0
 36 56  1  0  0  0
 36110  1  0  0  0
 37 39  1  0  0  0
 37 47  1  0  0  0
 37 66  1  0  0  0
 37111  1  0  0  0
 38 43  2  0  0  0
 38 46  1  0  0  0
 38 47  1  0  0  0
 39 64  1  0  0  0
 39 67  2  0  0  0
 40 52  1  0  0  0
 40 53  2  0  0  0
 40 58  1  0  0  0
 41112  1  0  0  0
 41113  1  0  0  0
 41114  1  0  0  0
 41 48  1  0  0  0
 42 43  1  0  0  0
 42 66  1  0  0  0
 42115  1  0  0  0
 42116  1  0  0  0
 43 44  1  0  0  0
 44117  1  0  0  0
 45 46  2  0  0  0
 45118  1  0  0  0
 46119  1  0  0  0
 47120  1  0  0  0
 47121  1  0  0  0
 48 56  1  0  0  0
 48 65  1  0  0  0
 48122  1  0  0  0
 49 50  1  0  0  0
 49 53  1  0  0  0
 49 64  1  0  0  0
 49123  1  0  0  0
 50 51  1  0  0  0
 50124  1  0  0  0
 50125  1  0  0  0
 51 52  1  0  0  0
 51126  1  0  0  0
 51127  1  0  0  0
 52128  1  0  0  0
 52129  1  0  0  0
 53 54  1  0  0  0
 54 55  2  0  0  0
 54130  1  0  0  0
 55 57  1  0  0  0
 55131  1  0  0  0
 56 69  2  0  0  0
 57 58  2  0  0  0
 57132  1  0  0  0
 58133  1  0  0  0
 59 60  1  0  0  0
 59 61  1  0  0  0
 59 62  1  0  0  0
 60134  1  0  0  0
 60135  1  0  0  0
 60136  1  0  0  0
 61137  1  0  0  0
 61138  1  0  0  0
 61139  1  0  0  0
 62140  1  0  0  0
 62141  1  0  0  0
 62142  1  0  0  0
 63 65  1  0  0  0
 63143  1  0  0  0
 63144  1  0  0  0
 63145  1  0  0  0
 64146  1  0  0  0
 65147  1  0  0  0
 68 84  1  0  0  0
 71 72  2  0  0  0
 71 73  1  0  0  0
 71148  1  0  0  0
 72 74  1  0  0  0
 72 78  1  0  0  0
 73 84  1  0  0  0
 73 86  2  0  0  0
 74 79  1  0  0  0
 74 87  2  0  0  0
 75 80  1  0  0  0
 75149  1  0  0  0
 75150  1  0  0  0
 75151  1  0  0  0
 76152  1  0  0  0
 76153  1  0  0  0
 76154  1  0  0  0
 76 85  1  0  0  0
 77 85  1  0  0  0
 77155  1  0  0  0
 77156  1  0  0  0
 77157  1  0  0  0
 78 80  1  0  0  0
 78158  1  0  0  0
 78159  1  0  0  0
 79 85  1  0  0  0
 79160  1  0  0  0
 79161  1  0  0  0
 80162  1  0  0  0
 80163  1  0  0  0
 81 82  1  0  0  0
 81 83  1  0  0  0
 81164  1  0  0  0
 81165  1  0  0  0
 82166  1  0  0  0
 82167  1  0  0  0
 82 84  1  0  0  0
 83 88  1  0  0  0
 83168  1  0  0  0
 83169  1  0  0  0
 84170  1  0  0  0
 85171  1  0  0  0
 86 87  1  0  0  0
 88172  1  0  0  0
M  ISO  4   1 100  68 101  84 101  88 100
M  END
> <chiral flag>
0

> <version>
0

> <s_m_source_file>
/data/baiqing/PycharmProjects/Reinvent-master-3.2/result/LINK_invent/BTK/process_docking_weight1_custom_sum_contain_oxygen_bond_distance_aromatic_linkinvent_7_9_3/rearranged_h_0082.sdf

> <i_m_source_file_index>
72

> <r_mmod_Potential_Energy-OPLS-2005>
2513.00146484375

> <r_mmod_Stretch_Energy-OPLS-2005>
1101.86535644531

> <r_mmod_Bend_Energy-OPLS-2005>
739.133605957031

> <r_mmod_Torsional_Energy-OPLS-2005>
235.669982910156

> <r_mmod_Improper_Torsional_Energy-OPLS-2005>
6.52853918075562

> <r_mmod_Van_der_Waal_Energy-OPLS-2005>
125.515586853027

> <r_mmod_Electrostatic_Energy-OPLS-2005>
-262.391021728516

> <r_mmod_Solvation_Energy-OPLS-2005>
-239.6025390625

> <b_mmod_Minimization_Converged-OPLS-2005>
0

> <r_mmod_RMS_Derivative-OPLS-2005>
5.03347635269165

$$$$
73
                    3D
 Structure written by MMmdl.
167175  0  0  1  0            999 V2000
  -31.7982  -14.9461   20.8764 C   0  0  0  0  0  0
  -30.9953  -13.2521   19.2030 C   0  0  0  0  0  0
  -29.6675  -12.6354   18.1078 C   0  0  0  0  0  0
  -27.8758  -12.7038   18.3687 C   0  0  0  0  0  0
  -27.0075  -13.5766   19.6872 C   0  0  2  0  0  0
  -27.8254  -14.4846   21.1027 C   0  0  0  0  0  0
  -24.9210  -13.8600   20.6185 C   0  0  0  0  0  0
  -23.9633  -13.0137   20.9998 C   0  0  0  0  0  0
  -24.5055  -11.6900   20.9122 C   0  0  0  0  0  0
  -23.8489  -10.4066   21.0596 C   0  0  0  0  0  0
  -24.3342   -9.4062   21.9260 C   0  0  0  0  0  0
  -23.6191   -8.2014   22.0729 C   0  0  0  0  0  0
  -22.4185   -8.0002   21.3514 C   0  0  0  0  0  0
  -21.9677   -8.9879   20.4604 C   0  0  0  0  0  0
  -22.6817  -10.1830   20.3100 C   0  0  0  0  0  0
  -21.6800   -6.0577   22.5297 C   0  0  0  0  0  0
  -21.3975   -6.5545   23.8213 C   0  0  0  0  0  0
  -21.3667   -5.6731   24.9202 C   0  0  0  0  0  0
  -21.6058   -4.2996   24.7280 C   0  0  0  0  0  0
  -21.8824   -3.8044   23.4427 C   0  0  0  0  0  0
  -21.9179   -4.6819   22.3458 C   0  0  0  0  0  0
  -22.5818  -13.4611   21.2639 C   0  0  0  0  0  0
  -22.1659   -4.2008   21.1040 F   0  0  0  0  0  0
  -21.5654   -3.4506   25.7821 F   0  0  0  0  0  0
  -30.6767  -14.2933   20.6386 N   0  0  0  0  0  0
  -25.9117  -13.0258   20.2395 N   0  0  0  0  0  0
  -25.7602  -11.7217   20.5155 N   0  0  0  0  0  0
  -21.8833  -12.7549   22.1328 N   0  0  0  0  0  0
  -24.9930  -15.2523   20.4855 N   0  0  0  0  0  0
  -32.6112  -15.0887   19.9961 O   0  0  0  0  0  0
  -21.6583   -6.8621   21.4217 O   0  0  0  0  0  0
  -22.1512  -14.4887   20.7390 O   0  0  0  0  0  0
  -24.6907  -31.7952   23.1472 C   0  0  0  0  0  0
  -25.9460  -32.4441   23.8033 C   0  0  1  0  0  0
  -27.1659  -26.6372   20.1937 C   0  0  0  0  0  0
  -25.6021  -33.8270   24.1922 N   0  0  0  0  0  0
  -23.5156  -30.4001   21.5035 C   0  0  2  0  0  0
  -24.9580  -28.7326   20.1145 C   0  0  0  0  0  0
  -22.7791  -29.4302   22.4680 C   0  0  0  0  0  0
  -18.0345  -28.1437   22.8444 C   0  0  0  0  0  0
  -24.1491  -36.7144   23.2652 C   0  0  0  0  0  0
  -26.0997  -30.5021   21.4218 C   0  0  0  0  0  0
  -26.1519  -29.0638   20.7668 C   0  0  0  0  0  0
  -27.2457  -28.0419   20.7729 C   0  0  0  0  0  0
  -25.9463  -26.5320   19.4889 C   0  0  0  0  0  0
  -24.8968  -27.4948   19.4535 C   0  0  0  0  0  0
  -23.7680  -29.7015   20.1375 C   0  0  0  0  0  0
  -25.4146  -36.2892   24.0281 C   0  0  1  0  0  0
  -20.5982  -28.3807   23.1117 C   0  0  2  0  0  0
  -20.6814  -26.9460   22.5395 C   0  0  0  0  0  0
  -19.5786  -26.6375   21.5216 C   0  0  0  0  0  0
  -18.1968  -26.7960   22.1617 C   0  0  0  0  0  0
  -19.1613  -28.8947   23.2759 C   0  0  0  0  0  0
  -18.9514  -30.1525   23.8817 C   0  0  0  0  0  0
  -17.6504  -30.6612   24.0556 C   0  0  0  0  0  0
  -25.9139  -34.9281   23.4944 C   0  0  0  0  0  0
  -16.5394  -29.9097   23.6351 C   0  0  0  0  0  0
  -16.7324  -28.6524   23.0360 C   0  0  0  0  0  0
  -26.4612  -31.6495   25.0681 C   0  0  0  0  0  0
  -25.3631  -31.3850   26.1259 C   0  0  0  0  0  0
  -27.0567  -30.2824   24.6654 C   0  0  0  0  0  0
  -27.6061  -32.4356   25.7498 C   0  0  0  0  0  0
  -27.5569  -37.1723   24.8458 C   0  0  0  0  0  0
  -21.4433  -29.3049   22.3437 N   0  0  0  0  0  0
  -26.4273  -37.3657   23.9412 N   0  0  0  0  0  0
  -24.7940  -30.9339   22.0755 N   0  0  0  0  0  0
  -23.4219  -28.7893   23.3032 O   0  0  0  0  0  0
  -28.0794  -25.3707   20.2194 O   0  0  0  0  0  0
  -26.5782  -34.8876   22.4565 O   0  0  0  0  0  0
  -23.5911  -32.1063   23.6388 O   0  0  0  0  0  0
  -29.0295  -14.7625   19.3007 C   0  0  0  0  0  0
  -29.0925  -12.7934   20.5601 C   0  0  0  0  0  0
  -29.1900  -16.3031   20.2542 C   0  0  0  0  0  0
  -29.3864  -13.1552   22.2225 C   0  0  0  0  0  0
  -29.4707  -16.0443   21.8798 C   0  0  0  0  0  0
  -29.5903  -12.1331   23.3229 C   0  0  0  0  0  0
  -28.4919  -10.1453   19.5884 C   0  0  0  0  0  0
  -29.2564  -11.1984   20.4305 C   0  0  0  0  0  0
  -29.1346  -18.1321   19.7685 C   0  0  0  0  0  0
  -30.2749  -17.1132   22.6001 C   0  0  0  0  0  0
  -28.3996  -19.8940   20.2633 C   0  0  0  0  0  0
  -28.6530  -21.8398   20.0057 C   0  0  0  0  0  0
  -31.8013  -16.8283   22.3986 C   0  0  0  0  0  0
  -27.7878  -23.6071   20.1684 C   0  0  0  0  0  0
  -29.5296  -14.6724   22.7334 N   0  0  0  0  0  0
  -32.0294  -15.3995   22.1169 N   0  0  0  0  0  0
  -31.6117  -13.7680   18.4673 H   0  0  0  0  0  0
  -31.6409  -12.4332   19.5242 H   0  0  0  0  0  0
  -29.9589  -11.6347   17.7954 H   0  0  0  0  0  0
  -29.8202  -13.1631   17.1638 H   0  0  0  0  0  0
  -27.3680  -11.7690   18.1556 H   0  0  0  0  0  0
  -27.5375  -13.2289   17.4728 H   0  0  0  0  0  0
  -26.6209  -14.3582   19.0273 H   0  0  0  0  0  0
  -27.3283  -14.0721   21.9965 H   0  0  0  0  0  0
  -27.3036  -15.4431   21.1791 H   0  0  0  0  0  0
  -25.2423   -9.5714   22.4911 H   0  0  0  0  0  0
  -23.9961   -7.4392   22.7413 H   0  0  0  0  0  0
  -21.0636   -8.8288   19.8905 H   0  0  0  0  0  0
  -22.3150  -10.9394   19.6317 H   0  0  0  0  0  0
  -21.1942   -7.6050   23.9674 H   0  0  0  0  0  0
  -21.1512   -6.0486   25.9100 H   0  0  0  0  0  0
  -22.0614   -2.7502   23.2973 H   0  0  0  0  0  0
  -22.2739  -11.9368   22.5738 H   0  0  0  0  0  0
  -20.9421  -13.0388   22.3723 H   0  0  0  0  0  0
  -24.1809  -15.8360   20.6576 H   0  0  0  0  0  0
  -25.7703  -15.7572   20.0807 H   0  0  0  0  0  0
  -26.7549  -32.4893   23.0744 H   0  0  0  0  0  0
  -25.0061  -33.9288   25.0009 H   0  0  0  0  0  0
  -22.8455  -31.2413   21.3130 H   0  0  0  0  0  0
  -23.3793  -35.9428   23.3235 H   0  0  0  0  0  0
  -24.3562  -36.8892   22.2081 H   0  0  0  0  0  0
  -23.7204  -37.6283   23.6781 H   0  0  0  0  0  0
  -26.3190  -31.2237   20.6338 H   0  0  0  0  0  0
  -26.9477  -30.5614   22.0931 H   0  0  0  0  0  0
  -28.1469  -28.2943   21.3159 H   0  0  0  0  0  0
  -25.7587  -25.5981   18.9756 H   0  0  0  0  0  0
  -23.9955  -27.2364   18.9168 H   0  0  0  0  0  0
  -23.9607  -30.4615   19.3795 H   0  0  0  0  0  0
  -22.8686  -29.1798   19.8063 H   0  0  0  0  0  0
  -25.1351  -36.1651   25.0771 H   0  0  0  0  0  0
  -21.0061  -28.3444   24.1242 H   0  0  0  0  0  0
  -20.5679  -26.2437   23.3667 H   0  0  0  0  0  0
  -21.6673  -26.7398   22.1210 H   0  0  0  0  0  0
  -19.6941  -25.6261   21.1309 H   0  0  0  0  0  0
  -19.6728  -27.3132   20.6702 H   0  0  0  0  0  0
  -17.4234  -26.6693   21.4025 H   0  0  0  0  0  0
  -18.0360  -26.0131   22.9042 H   0  0  0  0  0  0
  -19.7991  -30.7360   24.2153 H   0  0  0  0  0  0
  -17.5057  -31.6279   24.5181 H   0  0  0  0  0  0
  -15.5391  -30.2977   23.7723 H   0  0  0  0  0  0
  -15.8725  -28.0825   22.7112 H   0  0  0  0  0  0
  -24.5826  -30.7215   25.7517 H   0  0  0  0  0  0
  -24.8816  -32.3092   26.4462 H   0  0  0  0  0  0
  -25.7741  -30.9120   27.0184 H   0  0  0  0  0  0
  -26.3305  -29.6382   24.1686 H   0  0  0  0  0  0
  -27.4000  -29.7342   25.5439 H   0  0  0  0  0  0
  -27.9283  -30.3938   24.0201 H   0  0  0  0  0  0
  -27.2619  -33.3737   26.1866 H   0  0  0  0  0  0
  -28.3976  -32.6782   25.0393 H   0  0  0  0  0  0
  -28.0613  -31.8617   26.5580 H   0  0  0  0  0  0
  -28.2531  -38.0075   24.7565 H   0  0  0  0  0  0
  -28.1130  -36.2605   24.6218 H   0  0  0  0  0  0
  -27.2295  -37.1273   25.8862 H   0  0  0  0  0  0
  -20.9752  -29.8723   21.6513 H   0  0  0  0  0  0
  -26.0100  -38.2704   24.1445 H   0  0  0  0  0  0
  -28.9283  -14.8929   18.2309 H   0  0  0  0  0  0
  -28.6881  -11.5417   23.4791 H   0  0  0  0  0  0
  -29.8241  -12.6276   24.2664 H   0  0  0  0  0  0
  -30.4218  -11.4700   23.0863 H   0  0  0  0  0  0
  -28.8309   -9.1568   19.9017 H   0  0  0  0  0  0
  -28.6762  -10.1581   18.5190 H   0  0  0  0  0  0
  -27.4228  -10.1280   19.7651 H   0  0  0  0  0  0
  -28.9894  -10.8084   21.4039 H   0  0  0  0  0  0
  -30.3161  -10.9645   20.3578 H   0  0  0  0  0  0
  -28.8854  -18.0598   18.7087 H   0  0  0  0  0  0
  -30.2044  -18.3399   19.7451 H   0  0  0  0  0  0
  -30.0145  -17.0931   23.6589 H   0  0  0  0  0  0
  -30.0224  -18.1133   22.2526 H   0  0  0  0  0  0
  -28.4028  -19.8342   21.3525 H   0  0  0  0  0  0
  -27.3441  -19.7673   20.0180 H   0  0  0  0  0  0
  -29.0119  -21.8771   18.9766 H   0  0  0  0  0  0
  -29.5590  -22.0036   20.5895 H   0  0  0  0  0  0
  -32.1798  -17.4257   21.5658 H   0  0  0  0  0  0
  -32.3696  -17.1381   23.2758 H   0  0  0  0  0  0
  -27.1726  -23.4831   21.0612 H   0  0  0  0  0  0
  -27.0578  -23.5607   19.3580 H   0  0  0  0  0  0
  -31.4300  -14.8607   22.7387 H   0  0  0  0  0  0
  1 25  1  0  0  0
  1 30  2  0  0  0
  1 86  1  0  0  0
  2  3  1  0  0  0
  2 25  1  0  0  0
  2 87  1  0  0  0
  2 88  1  0  0  0
  3  4  1  0  0  0
  3 89  1  0  0  0
  3 90  1  0  0  0
  4  5  1  0  0  0
  4 91  1  0  0  0
  4 92  1  0  0  0
  5  6  1  0  0  0
  5 26  1  0  0  0
  5 93  1  0  0  0
  6 25  1  0  0  0
  6 94  1  0  0  0
  6 95  1  0  0  0
  7  8  2  0  0  0
  7 26  1  0  0  0
  7 29  1  0  0  0
  8  9  1  0  0  0
  8 22  1  0  0  0
  9 10  1  0  0  0
  9 27  2  0  0  0
 10 11  2  0  0  0
 10 15  1  0  0  0
 11 12  1  0  0  0
 11 96  1  0  0  0
 12 13  2  0  0  0
 12 97  1  0  0  0
 13 14  1  0  0  0
 13 31  1  0  0  0
 14 15  2  0  0  0
 14 98  1  0  0  0
 15 99  1  0  0  0
 16 17  2  0  0  0
 16 21  1  0  0  0
 16 31  1  0  0  0
 17 18  1  0  0  0
 17100  1  0  0  0
 18 19  2  0  0  0
 18101  1  0  0  0
 19 20  1  0  0  0
 19 24  1  0  0  0
 20 21  2  0  0  0
 20102  1  0  0  0
 21 23  1  0  0  0
 22 28  1  0  0  0
 22 32  2  0  0  0
 26 27  1  0  0  0
 28103  1  0  0  0
 28104  1  0  0  0
 29105  1  0  0  0
 29106  1  0  0  0
 33 34  1  0  0  0
 33 66  1  0  0  0
 33 70  2  0  0  0
 34 36  1  0  0  0
 34 59  1  0  0  0
 34107  1  0  0  0
 35 44  2  0  0  0
 35 45  1  0  0  0
 35 68  1  0  0  0
 36 56  1  0  0  0
 36108  1  0  0  0
 37 39  1  0  0  0
 37 47  1  0  0  0
 37 66  1  0  0  0
 37109  1  0  0  0
 38 43  2  0  0  0
 38 46  1  0  0  0
 38 47  1  0  0  0
 39 64  1  0  0  0
 39 67  2  0  0  0
 40 52  1  0  0  0
 40 53  2  0  0  0
 40 58  1  0  0  0
 41110  1  0  0  0
 41111  1  0  0  0
 41112  1  0  0  0
 41 48  1  0  0  0
 42 43  1  0  0  0
 42 66  1  0  0  0
 42113  1  0  0  0
 42114  1  0  0  0
 43 44  1  0  0  0
 44115  1  0  0  0
 45 46  2  0  0  0
 45116  1  0  0  0
 46117  1  0  0  0
 47118  1  0  0  0
 47119  1  0  0  0
 48 56  1  0  0  0
 48 65  1  0  0  0
 48120  1  0  0  0
 49 50  1  0  0  0
 49 53  1  0  0  0
 49 64  1  0  0  0
 49121  1  0  0  0
 50 51  1  0  0  0
 50122  1  0  0  0
 50123  1  0  0  0
 51 52  1  0  0  0
 51124  1  0  0  0
 51125  1  0  0  0
 52126  1  0  0  0
 52127  1  0  0  0
 53 54  1  0  0  0
 54 55  2  0  0  0
 54128  1  0  0  0
 55 57  1  0  0  0
 55129  1  0  0  0
 56 69  2  0  0  0
 57 58  2  0  0  0
 57130  1  0  0  0
 58131  1  0  0  0
 59 60  1  0  0  0
 59 61  1  0  0  0
 59 62  1  0  0  0
 60132  1  0  0  0
 60133  1  0  0  0
 60134  1  0  0  0
 61135  1  0  0  0
 61136  1  0  0  0
 61137  1  0  0  0
 62138  1  0  0  0
 62139  1  0  0  0
 62140  1  0  0  0
 63 65  1  0  0  0
 63141  1  0  0  0
 63142  1  0  0  0
 63143  1  0  0  0
 64144  1  0  0  0
 65145  1  0  0  0
 68 84  1  0  0  0
 71 72  2  0  0  0
 71 73  1  0  0  0
 71146  1  0  0  0
 72 74  1  0  0  0
 72 78  1  0  0  0
 73 75  2  0  0  0
 73 79  1  0  0  0
 74 76  1  0  0  0
 74 85  2  0  0  0
 75 80  1  0  0  0
 75 85  1  0  0  0
 76147  1  0  0  0
 76148  1  0  0  0
 76149  1  0  0  0
 77 78  1  0  0  0
 77150  1  0  0  0
 77151  1  0  0  0
 77152  1  0  0  0
 78153  1  0  0  0
 78154  1  0  0  0
 79 81  1  0  0  0
 79155  1  0  0  0
 79156  1  0  0  0
 80 83  1  0  0  0
 80157  1  0  0  0
 80158  1  0  0  0
 81 82  1  0  0  0
 81159  1  0  0  0
 81160  1  0  0  0
 82 84  1  0  0  0
 82161  1  0  0  0
 82162  1  0  0  0
 83 86  1  0  0  0
 83163  1  0  0  0
 83164  1  0  0  0
 84165  1  0  0  0
 84166  1  0  0  0
 86167  1  0  0  0
M  ISO  4   1 100  68 101  84 101  86 100
M  END
> <chiral flag>
0

> <version>
0

> <s_m_source_file>
/data/baiqing/PycharmProjects/Reinvent-master-3.2/result/LINK_invent/BTK/process_docking_weight1_custom_sum_contain_oxygen_bond_distance_aromatic_linkinvent_7_9_3/rearranged_h_0082.sdf

> <i_m_source_file_index>
73

> <r_mmod_Potential_Energy-OPLS-2005>
12726.6923828125

> <r_mmod_Stretch_Energy-OPLS-2005>
7510.33935546875

> <r_mmod_Bend_Energy-OPLS-2005>
965.329040527344

> <r_mmod_Torsional_Energy-OPLS-2005>
345.624633789062

> <r_mmod_Improper_Torsional_Energy-OPLS-2005>
18.907772064209

> <r_mmod_Van_der_Waal_Energy-OPLS-2005>
3147.88452148438

> <r_mmod_Electrostatic_Energy-OPLS-2005>
-477.514068603516

> <r_mmod_Solvation_Energy-OPLS-2005>
-204.825866699219

> <b_mmod_Minimization_Converged-OPLS-2005>
0

> <r_mmod_RMS_Derivative-OPLS-2005>
6.4361400604248

$$$$
74
                    3D
 Structure written by MMmdl.
175183  0  0  1  0            999 V2000
  -30.7130  -14.3974   20.6760 C   0  0  0  0  0  0
  -30.4324  -12.3004   19.3962 C   0  0  0  0  0  0
  -29.4959  -12.5385   18.1951 C   0  0  0  0  0  0
  -28.0165  -12.3904   18.6056 C   0  0  0  0  0  0
  -27.6725  -13.1967   19.8862 C   0  0  2  0  0  0
  -28.7078  -12.9033   20.9940 C   0  0  0  0  0  0
  -25.2630  -13.8140   20.5643 C   0  0  0  0  0  0
  -24.1864  -13.0445   20.9157 C   0  0  0  0  0  0
  -24.6394  -11.6910   20.8709 C   0  0  0  0  0  0
  -23.9048  -10.4305   21.0384 C   0  0  0  0  0  0
  -24.3603   -9.4229   21.9163 C   0  0  0  0  0  0
  -23.6292   -8.2252   22.0729 C   0  0  0  0  0  0
  -22.4271   -8.0279   21.3527 C   0  0  0  0  0  0
  -21.9896   -9.0254   20.4635 C   0  0  0  0  0  0
  -22.7212  -10.2144   20.3046 C   0  0  0  0  0  0
  -21.6850   -6.0747   22.5280 C   0  0  0  0  0  0
  -21.4016   -6.5643   23.8218 C   0  0  0  0  0  0
  -21.3663   -5.6789   24.9172 C   0  0  0  0  0  0
  -21.6046   -4.3051   24.7214 C   0  0  0  0  0  0
  -21.8825   -3.8155   23.4333 C   0  0  0  0  0  0
  -21.9195   -4.6978   22.3398 C   0  0  0  0  0  0
  -22.7893  -13.5263   21.1847 C   0  0  0  0  0  0
  -22.1662   -4.2175   21.0972 F   0  0  0  0  0  0
  -21.5628   -3.4527   25.7721 F   0  0  0  0  0  0
  -30.0501  -13.2276   20.4691 N   0  0  0  0  0  0
  -26.3073  -12.9298   20.3378 N   0  0  0  0  0  0
  -25.9314  -11.6467   20.5728 N   0  0  0  0  0  0
  -22.0529  -12.8273   22.0421 N   0  0  0  0  0  0
  -25.4357  -15.1848   20.4035 N   0  0  0  0  0  0
  -31.7520  -14.7098   20.0867 O   0  0  0  0  0  0
  -21.6626   -6.8885   21.4240 O   0  0  0  0  0  0
  -22.3583  -14.5569   20.6700 O   0  0  0  0  0  0
  -24.6137  -31.8694   23.2106 C   0  0  0  0  0  0
  -25.9034  -32.4830   23.8404 C   0  0  1  0  0  0
  -27.2312  -27.4377   20.0858 C   0  0  0  0  0  0
  -25.5895  -33.8629   24.2337 N   0  0  0  0  0  0
  -23.3998  -30.4944   21.5523 C   0  0  2  0  0  0
  -24.8408  -28.9597   20.1185 C   0  0  0  0  0  0
  -22.7403  -29.4669   22.5000 C   0  0  0  0  0  0
  -18.0272  -28.1371   22.8496 C   0  0  0  0  0  0
  -24.1488  -36.7319   23.2641 C   0  0  0  0  0  0
  -25.9295  -30.8344   21.3638 C   0  0  0  0  0  0
  -26.0012  -29.4685   20.7123 C   0  0  0  0  0  0
  -27.1949  -28.7142   20.6928 C   0  0  0  0  0  0
  -26.0471  -26.9444   19.4863 C   0  0  0  0  0  0
  -24.8580  -27.6958   19.5068 C   0  0  0  0  0  0
  -23.6055  -29.8279   20.1664 C   0  0  0  0  0  0
  -25.4109  -36.3121   24.0345 C   0  0  1  0  0  0
  -20.5862  -28.3658   23.1317 C   0  0  2  0  0  0
  -20.6758  -26.9397   22.5415 C   0  0  0  0  0  0
  -19.5738  -26.6386   21.5210 C   0  0  0  0  0  0
  -18.1914  -26.7921   22.1619 C   0  0  0  0  0  0
  -19.1523  -28.8831   23.2902 C   0  0  0  0  0  0
  -18.9452  -30.1435   23.8915 C   0  0  0  0  0  0
  -17.6456  -30.6578   24.0569 C   0  0  0  0  0  0
  -25.9036  -34.9483   23.5138 C   0  0  0  0  0  0
  -16.5346  -29.9087   23.6319 C   0  0  0  0  0  0
  -16.7261  -28.6499   23.0348 C   0  0  0  0  0  0
  -26.4462  -31.6612   25.0732 C   0  0  0  0  0  0
  -25.3734  -31.3721   26.1488 C   0  0  0  0  0  0
  -27.0287  -30.3057   24.6100 C   0  0  0  0  0  0
  -27.6049  -32.4328   25.7477 C   0  0  0  0  0  0
  -27.5585  -37.1810   24.8464 C   0  0  0  0  0  0
  -21.4134  -29.3034   22.3735 N   0  0  0  0  0  0
  -26.4299  -37.3801   23.9410 N   0  0  0  0  0  0
  -24.6663  -31.0803   22.1005 N   0  0  0  0  0  0
  -23.4180  -28.8215   23.3042 O   0  0  0  0  0  0
  -28.4388  -26.7675   20.0688 O   0  0  0  0  0  0
  -26.5594  -34.8928   22.4696 O   0  0  0  0  0  0
  -23.5330  -32.1445   23.7505 O   0  0  0  0  0  0
  -27.7996  -19.0337   22.7922 C   0  0  0  0  0  0
  -29.4189  -19.9568   21.5845 C   0  0  0  0  0  0
  -28.7969  -18.7599   21.8180 C   0  0  0  0  0  0
  -27.7988  -20.3665   23.1162 C   0  0  0  0  0  0
  -29.0388  -17.4825   19.6478 C   0  0  0  0  0  0
  -30.3633  -25.1072   21.5919 C   0  0  0  0  0  0
  -25.7719  -20.1242   24.6013 C   0  0  0  0  0  0
  -26.1357  -22.2646   23.4350 C   0  0  0  0  0  0
  -27.6324  -21.5505   25.3578 C   0  0  0  0  0  0
  -28.8218  -23.1136   21.0844 C   0  0  0  0  0  0
  -29.2789  -22.3419   22.3413 C   0  0  0  0  0  0
  -30.2718  -16.6550   21.7397 C   0  0  0  0  0  0
  -28.5023  -25.3455   19.8862 C   0  0  0  0  0  0
  -29.0351  -17.4013   21.1819 C   0  0  1  0  0  0
  -28.9447  -24.6568   21.1951 C   0  0  2  0  0  0
  -26.8754  -21.0828   24.0965 C   0  0  0  0  0  0
  -28.8280  -20.9484   22.3616 N   0  0  0  0  0  0
  -30.1019  -15.2140   21.5439 N   0  0  0  0  0  0
  -31.4736  -12.4257   19.0936 H   0  0  0  0  0  0
  -30.3446  -11.2709   19.7483 H   0  0  0  0  0  0
  -29.7333  -11.8472   17.3858 H   0  0  0  0  0  0
  -29.6657  -13.5393   17.7958 H   0  0  0  0  0  0
  -27.8212  -11.3314   18.7740 H   0  0  0  0  0  0
  -27.3671  -12.6917   17.7833 H   0  0  0  0  0  0
  -27.7413  -14.2552   19.6355 H   0  0  0  0  0  0
  -28.6755  -11.8453   21.2593 H   0  0  0  0  0  0
  -28.4510  -13.4274   21.9145 H   0  0  0  0  0  0
  -25.2749   -9.5716   22.4732 H   0  0  0  0  0  0
  -24.0021   -7.4649   22.7436 H   0  0  0  0  0  0
  -21.0827   -8.8779   19.8944 H   0  0  0  0  0  0
  -22.3664  -10.9684   19.6163 H   0  0  0  0  0  0
  -21.2010   -7.6151   23.9730 H   0  0  0  0  0  0
  -21.1468   -6.0505   25.9082 H   0  0  0  0  0  0
  -22.0601   -2.7618   23.2812 H   0  0  0  0  0  0
  -22.4115  -11.9935   22.4838 H   0  0  0  0  0  0
  -21.1151  -13.1308   22.2622 H   0  0  0  0  0  0
  -24.6643  -15.8375   20.4866 H   0  0  0  0  0  0
  -26.2913  -15.6199   20.0850 H   0  0  0  0  0  0
  -26.7111  -32.5530   23.1176 H   0  0  0  0  0  0
  -25.0067  -33.9800   25.0495 H   0  0  0  0  0  0
  -22.6886  -31.3112   21.4145 H   0  0  0  0  0  0
  -23.3748  -35.9653   23.3315 H   0  0  0  0  0  0
  -24.3593  -36.8912   22.2053 H   0  0  0  0  0  0
  -23.7240  -37.6531   23.6639 H   0  0  0  0  0  0
  -26.0452  -31.5998   20.5954 H   0  0  0  0  0  0
  -26.8176  -30.8840   21.9820 H   0  0  0  0  0  0
  -28.0940  -29.1123   21.1426 H   0  0  0  0  0  0
  -26.0063  -26.0007   18.9671 H   0  0  0  0  0  0
  -23.9663  -27.3017   19.0384 H   0  0  0  0  0  0
  -23.7155  -30.6020   19.4062 H   0  0  0  0  0  0
  -22.7290  -29.2480   19.8719 H   0  0  0  0  0  0
  -25.1284  -36.1999   25.0841 H   0  0  0  0  0  0
  -20.9957  -28.3218   24.1434 H   0  0  0  0  0  0
  -20.5650  -26.2271   23.3602 H   0  0  0  0  0  0
  -21.6630  -26.7428   22.1214 H   0  0  0  0  0  0
  -19.6895  -25.6302   21.1221 H   0  0  0  0  0  0
  -19.6674  -27.3214   20.6752 H   0  0  0  0  0  0
  -17.4189  -26.6682   21.4015 H   0  0  0  0  0  0
  -18.0301  -26.0053   22.9005 H   0  0  0  0  0  0
  -19.7934  -30.7240   24.2290 H   0  0  0  0  0  0
  -17.5017  -31.6257   24.5175 H   0  0  0  0  0  0
  -15.5350  -30.3002   23.7620 H   0  0  0  0  0  0
  -15.8661  -28.0823   22.7055 H   0  0  0  0  0  0
  -24.5908  -30.7061   25.7838 H   0  0  0  0  0  0
  -24.8921  -32.2876   26.4940 H   0  0  0  0  0  0
  -25.8096  -30.8900   27.0245 H   0  0  0  0  0  0
  -26.2822  -29.6825   24.1158 H   0  0  0  0  0  0
  -27.4071  -29.7289   25.4550 H   0  0  0  0  0  0
  -27.8655  -30.4392   23.9237 H   0  0  0  0  0  0
  -27.2682  -33.3618   26.2091 H   0  0  0  0  0  0
  -28.3826  -32.6904   25.0275 H   0  0  0  0  0  0
  -28.0755  -31.8433   26.5356 H   0  0  0  0  0  0
  -28.2616  -38.0097   24.7507 H   0  0  0  0  0  0
  -28.1066  -36.2629   24.6289 H   0  0  0  0  0  0
  -27.2302  -37.1462   25.8867 H   0  0  0  0  0  0
  -20.9286  -29.8773   21.6979 H   0  0  0  0  0  0
  -26.0192  -38.2882   24.1407 H   0  0  0  0  0  0
  -27.1210  -18.3007   23.2049 H   0  0  0  0  0  0
  -30.2321  -20.2024   20.9134 H   0  0  0  0  0  0
  -28.1075  -17.9160   19.2823 H   0  0  0  0  0  0
  -29.1368  -16.4967   19.1930 H   0  0  0  0  0  0
  -29.8590  -18.1013   19.2832 H   0  0  0  0  0  0
  -30.4443  -26.1945   21.6074 H   0  0  0  0  0  0
  -31.1096  -24.7335   20.8905 H   0  0  0  0  0  0
  -30.6336  -24.7600   22.5895 H   0  0  0  0  0  0
  -25.1661  -19.7369   23.7812 H   0  0  0  0  0  0
  -25.0910  -20.6242   25.2916 H   0  0  0  0  0  0
  -26.1901  -19.2708   25.1367 H   0  0  0  0  0  0
  -25.6187  -21.9424   22.5299 H   0  0  0  0  0  0
  -26.7907  -23.0871   23.1609 H   0  0  0  0  0  0
  -25.3831  -22.6851   24.1032 H   0  0  0  0  0  0
  -28.0930  -20.7062   25.8715 H   0  0  0  0  0  0
  -26.9557  -22.0290   26.0670 H   0  0  0  0  0  0
  -28.4251  -22.2651   25.1578 H   0  0  0  0  0  0
  -27.7794  -22.8645   20.8786 H   0  0  0  0  0  0
  -29.3882  -22.7579   20.2229 H   0  0  0  0  0  0
  -28.9474  -22.8608   23.2318 H   0  0  0  0  0  0
  -30.3677  -22.3437   22.3978 H   0  0  0  0  0  0
  -30.3443  -16.8219   22.8150 H   0  0  0  0  0  0
  -31.1994  -17.0312   21.3031 H   0  0  0  0  0  0
  -27.5818  -24.8850   19.5441 H   0  0  0  0  0  0
  -29.2361  -25.1455   19.1039 H   0  0  0  0  0  0
  -28.1543  -16.8182   21.4589 H   0  0  0  0  0  0
  -28.2593  -24.9851   21.9779 H   0  0  0  0  0  0
  -29.3012  -14.8092   22.0052 H   0  0  0  0  0  0
  1 25  1  0  0  0
  1 30  2  0  0  0
  1 88  1  0  0  0
  2  3  1  0  0  0
  2 25  1  0  0  0
  2 89  1  0  0  0
  2 90  1  0  0  0
  3  4  1  0  0  0
  3 91  1  0  0  0
  3 92  1  0  0  0
  4  5  1  0  0  0
  4 93  1  0  0  0
  4 94  1  0  0  0
  5  6  1  0  0  0
  5 26  1  0  0  0
  5 95  1  0  0  0
  6 25  1  0  0  0
  6 96  1  0  0  0
  6 97  1  0  0  0
  7  8  2  0  0  0
  7 26  1  0  0  0
  7 29  1  0  0  0
  8  9  1  0  0  0
  8 22  1  0  0  0
  9 10  1  0  0  0
  9 27  2  0  0  0
 10 11  2  0  0  0
 10 15  1  0  0  0
 11 12  1  0  0  0
 11 98  1  0  0  0
 12 13  2  0  0  0
 12 99  1  0  0  0
 13 14  1  0  0  0
 13 31  1  0  0  0
 14 15  2  0  0  0
 14100  1  0  0  0
 15101  1  0  0  0
 16 17  2  0  0  0
 16 21  1  0  0  0
 16 31  1  0  0  0
 17 18  1  0  0  0
 17102  1  0  0  0
 18 19  2  0  0  0
 18103  1  0  0  0
 19 20  1  0  0  0
 19 24  1  0  0  0
 20 21  2  0  0  0
 20104  1  0  0  0
 21 23  1  0  0  0
 22 28  1  0  0  0
 22 32  2  0  0  0
 26 27  1  0  0  0
 28105  1  0  0  0
 28106  1  0  0  0
 29107  1  0  0  0
 29108  1  0  0  0
 33 34  1  0  0  0
 33 66  1  0  0  0
 33 70  2  0  0  0
 34 36  1  0  0  0
 34 59  1  0  0  0
 34109  1  0  0  0
 35 44  2  0  0  0
 35 45  1  0  0  0
 35 68  1  0  0  0
 36 56  1  0  0  0
 36110  1  0  0  0
 37 39  1  0  0  0
 37 47  1  0  0  0
 37 66  1  0  0  0
 37111  1  0  0  0
 38 43  2  0  0  0
 38 46  1  0  0  0
 38 47  1  0  0  0
 39 64  1  0  0  0
 39 67  2  0  0  0
 40 52  1  0  0  0
 40 53  2  0  0  0
 40 58  1  0  0  0
 41112  1  0  0  0
 41113  1  0  0  0
 41114  1  0  0  0
 41 48  1  0  0  0
 42 43  1  0  0  0
 42 66  1  0  0  0
 42115  1  0  0  0
 42116  1  0  0  0
 43 44  1  0  0  0
 44117  1  0  0  0
 45 46  2  0  0  0
 45118  1  0  0  0
 46119  1  0  0  0
 47120  1  0  0  0
 47121  1  0  0  0
 48 56  1  0  0  0
 48 65  1  0  0  0
 48122  1  0  0  0
 49 50  1  0  0  0
 49 53  1  0  0  0
 49 64  1  0  0  0
 49123  1  0  0  0
 50 51  1  0  0  0
 50124  1  0  0  0
 50125  1  0  0  0
 51 52  1  0  0  0
 51126  1  0  0  0
 51127  1  0  0  0
 52128  1  0  0  0
 52129  1  0  0  0
 53 54  1  0  0  0
 54 55  2  0  0  0
 54130  1  0  0  0
 55 57  1  0  0  0
 55131  1  0  0  0
 56 69  2  0  0  0
 57 58  2  0  0  0
 57132  1  0  0  0
 58133  1  0  0  0
 59 60  1  0  0  0
 59 61  1  0  0  0
 59 62  1  0  0  0
 60134  1  0  0  0
 60135  1  0  0  0
 60136  1  0  0  0
 61137  1  0  0  0
 61138  1  0  0  0
 61139  1  0  0  0
 62140  1  0  0  0
 62141  1  0  0  0
 62142  1  0  0  0
 63 65  1  0  0  0
 63143  1  0  0  0
 63144  1  0  0  0
 63145  1  0  0  0
 64146  1  0  0  0
 65147  1  0  0  0
 68 83  1  0  0  0
 71 73  1  0  0  0
 71 74  2  0  0  0
 71148  1  0  0  0
 72 73  2  0  0  0
 72 87  1  0  0  0
 72149  1  0  0  0
 73 84  1  0  0  0
 74 86  1  0  0  0
 74 87  1  0  0  0
 75150  1  0  0  0
 75151  1  0  0  0
 75152  1  0  0  0
 75 84  1  0  0  0
 76153  1  0  0  0
 76154  1  0  0  0
 76155  1  0  0  0
 76 85  1  0  0  0
 77156  1  0  0  0
 77157  1  0  0  0
 77158  1  0  0  0
 77 86  1  0  0  0
 78 86  1  0  0  0
 78159  1  0  0  0
 78160  1  0  0  0
 78161  1  0  0  0
 79 86  1  0  0  0
 79162  1  0  0  0
 79163  1  0  0  0
 79164  1  0  0  0
 80 81  1  0  0  0
 80 85  1  0  0  0
 80165  1  0  0  0
 80166  1  0  0  0
 81 87  1  0  0  0
 81167  1  0  0  0
 81168  1  0  0  0
 82 84  1  0  0  0
 82 88  1  0  0  0
 82169  1  0  0  0
 82170  1  0  0  0
 83 85  1  0  0  0
 83171  1  0  0  0
 83172  1  0  0  0
 84173  1  0  0  0
 85174  1  0  0  0
 88175  1  0  0  0
M  ISO  4   1 100  68 101  83 101  88 100
M  END
> <chiral flag>
0

> <version>
0

> <s_m_source_file>
/data/baiqing/PycharmProjects/Reinvent-master-3.2/result/LINK_invent/BTK/process_docking_weight1_custom_sum_contain_oxygen_bond_distance_aromatic_linkinvent_7_9_3/rearranged_h_0082.sdf

> <i_m_source_file_index>
74

> <r_mmod_Potential_Energy-OPLS-2005>
-121.943519592285

> <r_mmod_Stretch_Energy-OPLS-2005>
37.368335723877

> <r_mmod_Bend_Energy-OPLS-2005>
123.875564575195

> <r_mmod_Torsional_Energy-OPLS-2005>
228.587997436523

> <r_mmod_Improper_Torsional_Energy-OPLS-2005>
2.65393829345703

> <r_mmod_Van_der_Waal_Energy-OPLS-2005>
130.204742431641

> <r_mmod_Electrostatic_Energy-OPLS-2005>
-460.97607421875

> <r_mmod_Solvation_Energy-OPLS-2005>
-192.897857666016

> <b_mmod_Minimization_Converged-OPLS-2005>
0

> <r_mmod_RMS_Derivative-OPLS-2005>
1.6757538318634

$$$$
75
                    3D
 Structure written by MMmdl.
167175  0  0  1  0            999 V2000
  -30.7972  -14.6689   20.5638 C   0  0  0  0  0  0
  -30.4279  -12.3609   19.5862 C   0  0  0  0  0  0
  -29.5794  -12.4138   18.2822 C   0  0  0  0  0  0
  -28.0716  -12.3106   18.6472 C   0  0  0  0  0  0
  -27.6750  -13.2414   19.8543 C   0  0  2  0  0  0
  -28.7116  -13.1964   21.0386 C   0  0  0  0  0  0
  -25.2881  -13.8296   20.5543 C   0  0  0  0  0  0
  -24.2073  -13.0509   20.9316 C   0  0  0  0  0  0
  -24.6641  -11.7056   20.8852 C   0  0  0  0  0  0
  -23.9145  -10.4451   21.0520 C   0  0  0  0  0  0
  -24.3699   -9.4364   21.9239 C   0  0  0  0  0  0
  -23.6339   -8.2467   22.0805 C   0  0  0  0  0  0
  -22.4273   -8.0543   21.3695 C   0  0  0  0  0  0
  -21.9982   -9.0456   20.4718 C   0  0  0  0  0  0
  -22.7388  -10.2313   20.3095 C   0  0  0  0  0  0
  -21.6852   -6.0779   22.5288 C   0  0  0  0  0  0
  -21.4068   -6.5683   23.8194 C   0  0  0  0  0  0
  -21.3628   -5.6842   24.9165 C   0  0  0  0  0  0
  -21.6064   -4.3090   24.7202 C   0  0  0  0  0  0
  -21.8801   -3.8205   23.4318 C   0  0  0  0  0  0
  -21.9268   -4.7019   22.3393 C   0  0  0  0  0  0
  -22.8117  -13.5444   21.1910 C   0  0  0  0  0  0
  -22.1689   -4.2189   21.0944 F   0  0  0  0  0  0
  -21.5637   -3.4584   25.7681 F   0  0  0  0  0  0
  -30.0483  -13.4892   20.4774 N   0  0  0  0  0  0
  -26.3200  -12.9452   20.3284 N   0  0  0  0  0  0
  -25.9558  -11.6572   20.5627 N   0  0  0  0  0  0
  -22.0472  -12.8321   22.0293 N   0  0  0  0  0  0
  -25.4524  -15.1902   20.3868 N   0  0  0  0  0  0
  -31.8132  -14.7484   19.8820 O   0  0  0  0  0  0
  -21.6751   -6.9067   21.4272 O   0  0  0  0  0  0
  -22.3945  -14.5811   20.6858 O   0  0  0  0  0  0
  -24.6443  -31.8511   23.1945 C   0  0  0  0  0  0
  -25.9224  -32.4750   23.8305 C   0  0  1  0  0  0
  -27.1443  -27.2186   20.0232 C   0  0  0  0  0  0
  -25.6047  -33.8547   24.2269 N   0  0  0  0  0  0
  -23.4235  -30.5003   21.5514 C   0  0  2  0  0  0
  -24.8454  -28.9553   20.0885 C   0  0  0  0  0  0
  -22.7473  -29.4757   22.4968 C   0  0  0  0  0  0
  -18.0312  -28.1434   22.8486 C   0  0  0  0  0  0
  -24.1484  -36.7326   23.2614 C   0  0  0  0  0  0
  -25.9824  -30.7410   21.3824 C   0  0  0  0  0  0
  -26.0319  -29.3747   20.7036 C   0  0  0  0  0  0
  -27.1950  -28.5229   20.6614 C   0  0  0  0  0  0
  -25.9126  -26.9047   19.4043 C   0  0  0  0  0  0
  -24.7887  -27.7296   19.4426 C   0  0  0  0  0  0
  -23.6209  -29.8586   20.1564 C   0  0  0  0  0  0
  -25.4066  -36.3107   24.0345 C   0  0  1  0  0  0
  -20.5930  -28.3717   23.1236 C   0  0  2  0  0  0
  -20.6793  -26.9455   22.5322 C   0  0  0  0  0  0
  -19.5733  -26.6402   21.5172 C   0  0  0  0  0  0
  -18.1948  -26.7953   22.1665 C   0  0  0  0  0  0
  -19.1579  -28.8862   23.2908 C   0  0  0  0  0  0
  -18.9517  -30.1476   23.8874 C   0  0  0  0  0  0
  -17.6510  -30.6600   24.0563 C   0  0  0  0  0  0
  -25.9032  -34.9434   23.5118 C   0  0  0  0  0  0
  -16.5396  -29.9055   23.6403 C   0  0  0  0  0  0
  -16.7291  -28.6523   23.0346 C   0  0  0  0  0  0
  -26.4545  -31.6535   25.0665 C   0  0  0  0  0  0
  -25.3745  -31.3676   26.1402 C   0  0  0  0  0  0
  -27.0364  -30.2916   24.6143 C   0  0  0  0  0  0
  -27.6131  -32.4183   25.7483 C   0  0  0  0  0  0
  -27.5583  -37.1800   24.8464 C   0  0  0  0  0  0
  -21.4145  -29.3127   22.3578 N   0  0  0  0  0  0
  -26.4268  -37.3791   23.9453 N   0  0  0  0  0  0
  -24.7054  -31.0456   22.0987 N   0  0  0  0  0  0
  -23.4221  -28.8319   23.3049 O   0  0  0  0  0  0
  -28.2089  -26.2791   20.0577 O   0  0  0  0  0  0
  -26.5611  -34.8904   22.4697 O   0  0  0  0  0  0
  -23.5537  -32.1433   23.7193 O   0  0  0  0  0  0
  -30.4271  -21.0382   21.5724 C   0  0  0  0  0  0
  -30.4301  -21.4447   20.2119 C   0  0  0  0  0  0
  -30.6875  -19.1426   19.6684 C   0  0  0  0  0  0
  -30.4095  -18.7203   20.9930 C   0  0  0  0  0  0
  -31.1785  -18.1380   18.6358 C   0  0  0  0  0  0
  -29.3229  -24.6980   16.8632 C   0  0  0  0  0  0
  -27.9327  -23.0194   21.1329 C   0  0  0  0  0  0
  -27.1320  -24.2072   18.6728 C   0  0  0  0  0  0
  -30.1999  -22.9226   19.7290 C   0  0  0  0  0  0
  -29.9085  -17.2960   21.5029 C   0  0  0  0  0  0
  -30.6672  -15.8795   21.6242 C   0  0  0  0  0  0
  -29.3318  -25.4068   18.2226 C   0  0  0  0  0  0
  -29.0094  -23.8372   20.3143 C   0  0  1  0  0  0
  -28.3480  -24.9452   19.3292 C   0  0  2  0  0  0
  -30.3960  -19.7195   21.9350 N   0  0  0  0  0  0
  -30.6395  -20.4585   19.2750 N   0  0  0  0  0  0
  -31.5068  -12.3199   19.4296 H   0  0  0  0  0  0
  -30.2309  -11.4364   20.1472 H   0  0  0  0  0  0
  -29.8396  -11.6005   17.5982 H   0  0  0  0  0  0
  -29.7402  -13.3518   17.7278 H   0  0  0  0  0  0
  -27.5333  -12.5656   17.7360 H   0  0  0  0  0  0
  -27.8530  -11.2655   18.8848 H   0  0  0  0  0  0
  -27.6985  -14.2751   19.4671 H   0  0  0  0  0  0
  -28.6977  -12.2020   21.5052 H   0  0  0  0  0  0
  -28.4716  -13.9154   21.8492 H   0  0  0  0  0  0
  -25.2860   -9.5926   22.4732 H   0  0  0  0  0  0
  -24.0105   -7.4864   22.7416 H   0  0  0  0  0  0
  -21.0979   -8.8951   19.8965 H   0  0  0  0  0  0
  -22.3860  -10.9788   19.6168 H   0  0  0  0  0  0
  -21.2000   -7.6165   23.9731 H   0  0  0  0  0  0
  -21.1434   -6.0506   25.9028 H   0  0  0  0  0  0
  -22.0575   -2.7648   23.2782 H   0  0  0  0  0  0
  -22.3974  -12.0146   22.4951 H   0  0  0  0  0  0
  -21.1051  -13.1373   22.2237 H   0  0  0  0  0  0
  -24.6850  -15.8197   20.5467 H   0  0  0  0  0  0
  -26.3137  -15.6636   20.1334 H   0  0  0  0  0  0
  -26.7226  -32.5240   23.0962 H   0  0  0  0  0  0
  -25.0211  -33.9738   25.0431 H   0  0  0  0  0  0
  -22.7262  -31.3296   21.4319 H   0  0  0  0  0  0
  -23.3787  -35.9654   23.3206 H   0  0  0  0  0  0
  -24.3642  -36.9015   22.2067 H   0  0  0  0  0  0
  -23.7207  -37.6467   23.6669 H   0  0  0  0  0  0
  -26.1285  -31.5004   20.6131 H   0  0  0  0  0  0
  -26.8515  -30.7703   22.0297 H   0  0  0  0  0  0
  -28.0893  -28.8430   21.1780 H   0  0  0  0  0  0
  -25.6919  -25.9985   18.8949 H   0  0  0  0  0  0
  -23.8898  -27.3952   18.9643 H   0  0  0  0  0  0
  -23.7554  -30.6494   19.4174 H   0  0  0  0  0  0
  -22.7107  -29.3263   19.8497 H   0  0  0  0  0  0
  -25.1255  -36.1994   25.0848 H   0  0  0  0  0  0
  -21.0064  -28.3284   24.1363 H   0  0  0  0  0  0
  -20.5773  -26.2318   23.3543 H   0  0  0  0  0  0
  -21.6653  -26.7514   22.1112 H   0  0  0  0  0  0
  -19.6931  -25.6314   21.1173 H   0  0  0  0  0  0
  -19.6658  -27.3221   20.6711 H   0  0  0  0  0  0
  -17.4215  -26.6687   21.4068 H   0  0  0  0  0  0
  -18.0446  -26.0076   22.9062 H   0  0  0  0  0  0
  -19.7974  -30.7312   24.2211 H   0  0  0  0  0  0
  -17.5053  -31.6264   24.5178 H   0  0  0  0  0  0
  -15.5394  -30.2969   23.7644 H   0  0  0  0  0  0
  -15.8738  -28.0790   22.7064 H   0  0  0  0  0  0
  -24.5955  -30.7002   25.7723 H   0  0  0  0  0  0
  -24.8848  -32.2786   26.4780 H   0  0  0  0  0  0
  -25.8049  -30.8839   27.0186 H   0  0  0  0  0  0
  -26.2902  -29.6744   24.1067 H   0  0  0  0  0  0
  -27.4004  -29.7133   25.4675 H   0  0  0  0  0  0
  -27.8831  -30.4235   23.9404 H   0  0  0  0  0  0
  -27.2831  -33.3473   26.2120 H   0  0  0  0  0  0
  -28.3932  -32.6721   25.0319 H   0  0  0  0  0  0
  -28.0797  -31.8197   26.5315 H   0  0  0  0  0  0
  -28.2569  -38.0101   24.7553 H   0  0  0  0  0  0
  -28.1113  -36.2678   24.6244 H   0  0  0  0  0  0
  -27.2338  -37.1360   25.8855 H   0  0  0  0  0  0
  -20.9356  -29.8861   21.6800 H   0  0  0  0  0  0
  -26.0189  -38.2893   24.1431 H   0  0  0  0  0  0
  -30.3982  -21.7490   22.3875 H   0  0  0  0  0  0
  -31.7649  -17.3697   19.1459 H   0  0  0  0  0  0
  -31.8675  -18.5965   17.9148 H   0  0  0  0  0  0
  -30.3640  -17.6222   18.1151 H   0  0  0  0  0  0
  -30.3388  -24.6098   16.4628 H   0  0  0  0  0  0
  -28.6607  -25.2477   16.1708 H   0  0  0  0  0  0
  -28.9159  -23.7100   16.8867 H   0  0  0  0  0  0
  -28.3171  -22.3907   21.9261 H   0  0  0  0  0  0
  -27.3387  -22.3849   20.4831 H   0  0  0  0  0  0
  -27.2441  -23.6899   21.6490 H   0  0  0  0  0  0
  -27.4262  -23.2295   18.3058 H   0  0  0  0  0  0
  -26.7445  -24.6813   17.7787 H   0  0  0  0  0  0
  -26.2846  -24.0179   19.3586 H   0  0  0  0  0  0
  -30.2121  -22.9317   18.6431 H   0  0  0  0  0  0
  -31.1122  -23.5054   19.9581 H   0  0  0  0  0  0
  -28.8292  -17.1668   21.3606 H   0  0  0  0  0  0
  -29.8968  -17.5118   22.5859 H   0  0  0  0  0  0
  -30.2438  -15.4064   22.4962 H   0  0  0  0  0  0
  -31.6682  -16.1074   21.9747 H   0  0  0  0  0  0
  -30.3390  -25.3832   18.6460 H   0  0  0  0  0  0
  -29.1200  -26.4507   17.9770 H   0  0  0  0  0  0
  -29.4978  -24.4460   21.0644 H   0  0  0  0  0  0
  1 25  1  0  0  0
  1 30  2  0  0  0
  1 81  1  0  0  0
  2  3  1  0  0  0
  2 25  1  0  0  0
  2 87  1  0  0  0
  2 88  1  0  0  0
  3  4  1  0  0  0
  3 89  1  0  0  0
  3 90  1  0  0  0
  4  5  1  0  0  0
  4 91  1  0  0  0
  4 92  1  0  0  0
  5  6  1  0  0  0
  5 26  1  0  0  0
  5 93  1  0  0  0
  6 25  1  0  0  0
  6 94  1  0  0  0
  6 95  1  0  0  0
  7  8  2  0  0  0
  7 26  1  0  0  0
  7 29  1  0  0  0
  8  9  1  0  0  0
  8 22  1  0  0  0
  9 10  1  0  0  0
  9 27  2  0  0  0
 10 11  2  0  0  0
 10 15  1  0  0  0
 11 12  1  0  0  0
 11 96  1  0  0  0
 12 13  2  0  0  0
 12 97  1  0  0  0
 13 14  1  0  0  0
 13 31  1  0  0  0
 14 15  2  0  0  0
 14 98  1  0  0  0
 15 99  1  0  0  0
 16 17  2  0  0  0
 16 21  1  0  0  0
 16 31  1  0  0  0
 17 18  1  0  0  0
 17100  1  0  0  0
 18 19  2  0  0  0
 18101  1  0  0  0
 19 20  1  0  0  0
 19 24  1  0  0  0
 20 21  2  0  0  0
 20102  1  0  0  0
 21 23  1  0  0  0
 22 28  1  0  0  0
 22 32  2  0  0  0
 26 27  1  0  0  0
 28103  1  0  0  0
 28104  1  0  0  0
 29105  1  0  0  0
 29106  1  0  0  0
 33 34  1  0  0  0
 33 66  1  0  0  0
 33 70  2  0  0  0
 34 36  1  0  0  0
 34 59  1  0  0  0
 34107  1  0  0  0
 35 44  2  0  0  0
 35 45  1  0  0  0
 35 68  1  0  0  0
 36 56  1  0  0  0
 36108  1  0  0  0
 37 39  1  0  0  0
 37 47  1  0  0  0
 37 66  1  0  0  0
 37109  1  0  0  0
 38 43  2  0  0  0
 38 46  1  0  0  0
 38 47  1  0  0  0
 39 64  1  0  0  0
 39 67  2  0  0  0
 40 52  1  0  0  0
 40 53  2  0  0  0
 40 58  1  0  0  0
 41110  1  0  0  0
 41111  1  0  0  0
 41112  1  0  0  0
 41 48  1  0  0  0
 42 43  1  0  0  0
 42 66  1  0  0  0
 42113  1  0  0  0
 42114  1  0  0  0
 43 44  1  0  0  0
 44115  1  0  0  0
 45 46  2  0  0  0
 45116  1  0  0  0
 46117  1  0  0  0
 47118  1  0  0  0
 47119  1  0  0  0
 48 56  1  0  0  0
 48 65  1  0  0  0
 48120  1  0  0  0
 49 50  1  0  0  0
 49 53  1  0  0  0
 49 64  1  0  0  0
 49121  1  0  0  0
 50 51  1  0  0  0
 50122  1  0  0  0
 50123  1  0  0  0
 51 52  1  0  0  0
 51124  1  0  0  0
 51125  1  0  0  0
 52126  1  0  0  0
 52127  1  0  0  0
 53 54  1  0  0  0
 54 55  2  0  0  0
 54128  1  0  0  0
 55 57  1  0  0  0
 55129  1  0  0  0
 56 69  2  0  0  0
 57 58  2  0  0  0
 57130  1  0  0  0
 58131  1  0  0  0
 59 60  1  0  0  0
 59 61  1  0  0  0
 59 62  1  0  0  0
 60132  1  0  0  0
 60133  1  0  0  0
 60134  1  0  0  0
 61135  1  0  0  0
 61136  1  0  0  0
 61137  1  0  0  0
 62138  1  0  0  0
 62139  1  0  0  0
 62140  1  0  0  0
 63 65  1  0  0  0
 63141  1  0  0  0
 63142  1  0  0  0
 63143  1  0  0  0
 64144  1  0  0  0
 65145  1  0  0  0
 68 84  1  0  0  0
 71 72  2  0  0  0
 71 85  1  0  0  0
 71146  1  0  0  0
 72 79  1  0  0  0
 72 86  1  0  0  0
 73 74  1  0  0  0
 73 75  1  0  0  0
 73 86  2  0  0  0
 74 80  1  0  0  0
 74 85  2  0  0  0
 75147  1  0  0  0
 75148  1  0  0  0
 75149  1  0  0  0
 76 82  1  0  0  0
 76150  1  0  0  0
 76151  1  0  0  0
 76152  1  0  0  0
 77153  1  0  0  0
 77154  1  0  0  0
 77155  1  0  0  0
 77 83  1  0  0  0
 78156  1  0  0  0
 78157  1  0  0  0
 78158  1  0  0  0
 78 84  1  0  0  0
 79 83  1  0  0  0
 79159  1  0  0  0
 79160  1  0  0  0
 80 81  1  0  0  0
 80161  1  0  0  0
 80162  1  0  0  0
 81163  1  0  0  0
 81164  1  0  0  0
 82 84  1  0  0  0
 82165  1  0  0  0
 82166  1  0  0  0
 83 84  1  0  0  0
 83167  1  0  0  0
M  ISO  4   1 100  68 101  81 100  84 101
M  END
> <chiral flag>
0

> <version>
0

> <s_m_source_file>
/data/baiqing/PycharmProjects/Reinvent-master-3.2/result/LINK_invent/BTK/process_docking_weight1_custom_sum_contain_oxygen_bond_distance_aromatic_linkinvent_7_9_3/rearranged_h_0082.sdf

> <i_m_source_file_index>
75

> <r_mmod_Potential_Energy-OPLS-2005>
452.037750244141

> <r_mmod_Stretch_Energy-OPLS-2005>
151.452453613281

> <r_mmod_Bend_Energy-OPLS-2005>
328.485931396484

> <r_mmod_Torsional_Energy-OPLS-2005>
240.090606689453

> <r_mmod_Improper_Torsional_Energy-OPLS-2005>
6.09114027023315

> <r_mmod_Van_der_Waal_Energy-OPLS-2005>
177.480865478516

> <r_mmod_Electrostatic_Energy-OPLS-2005>
-353.510406494141

> <r_mmod_Solvation_Energy-OPLS-2005>
-197.612991333008

> <b_mmod_Minimization_Converged-OPLS-2005>
0

> <r_mmod_RMS_Derivative-OPLS-2005>
33.1541023254395

$$$$
76
                    3D
 Structure written by MMmdl.
166174  0  0  1  0            999 V2000
  -30.6816  -14.5146   20.5565 C   0  0  0  0  0  0
  -30.4438  -12.3386   19.4130 C   0  0  0  0  0  0
  -29.4915  -12.5266   18.2116 C   0  0  0  0  0  0
  -28.0183  -12.3668   18.6325 C   0  0  0  0  0  0
  -27.6738  -13.1971   19.8930 C   0  0  2  0  0  0
  -28.7254  -12.9700   21.0058 C   0  0  0  0  0  0
  -25.2697  -13.8163   20.5714 C   0  0  0  0  0  0
  -24.1907  -13.0477   20.9185 C   0  0  0  0  0  0
  -24.6415  -11.6925   20.8765 C   0  0  0  0  0  0
  -23.9056  -10.4336   21.0429 C   0  0  0  0  0  0
  -24.3597   -9.4263   21.9225 C   0  0  0  0  0  0
  -23.6303   -8.2283   22.0787 C   0  0  0  0  0  0
  -22.4288   -8.0310   21.3565 C   0  0  0  0  0  0
  -21.9924   -9.0289   20.4646 C   0  0  0  0  0  0
  -22.7220  -10.2186   20.3074 C   0  0  0  0  0  0
  -21.6869   -6.0739   22.5271 C   0  0  0  0  0  0
  -21.3995   -6.5640   23.8179 C   0  0  0  0  0  0
  -21.3662   -5.6792   24.9151 C   0  0  0  0  0  0
  -21.6054   -4.3067   24.7223 C   0  0  0  0  0  0
  -21.8829   -3.8155   23.4348 C   0  0  0  0  0  0
  -21.9204   -4.6964   22.3395 C   0  0  0  0  0  0
  -22.7937  -13.5322   21.1776 C   0  0  0  0  0  0
  -22.1688   -4.2152   21.0978 F   0  0  0  0  0  0
  -21.5642   -3.4549   25.7737 F   0  0  0  0  0  0
  -30.0547  -13.3052   20.4575 N   0  0  0  0  0  0
  -26.3120  -12.9286   20.3529 N   0  0  0  0  0  0
  -25.9357  -11.6465   20.5894 N   0  0  0  0  0  0
  -22.0508  -12.8385   22.0310 N   0  0  0  0  0  0
  -25.4551  -15.1866   20.4028 N   0  0  0  0  0  0
  -31.7679  -14.7343   20.0225 O   0  0  0  0  0  0
  -21.6654   -6.8907   21.4246 O   0  0  0  0  0  0
  -22.3674  -14.5609   20.6543 O   0  0  0  0  0  0
  -24.6202  -31.8679   23.2148 C   0  0  0  0  0  0
  -25.9089  -32.4807   23.8474 C   0  0  1  0  0  0
  -27.2312  -27.4131   20.0759 C   0  0  0  0  0  0
  -25.5938  -33.8617   24.2393 N   0  0  0  0  0  0
  -23.4094  -30.4942   21.5570 C   0  0  2  0  0  0
  -24.8484  -28.9599   20.1143 C   0  0  0  0  0  0
  -22.7447  -29.4647   22.5017 C   0  0  0  0  0  0
  -18.0290  -28.1371   22.8512 C   0  0  0  0  0  0
  -24.1483  -36.7307   23.2650 C   0  0  0  0  0  0
  -25.9475  -30.8158   21.3815 C   0  0  0  0  0  0
  -26.0161  -29.4575   20.7104 C   0  0  0  0  0  0
  -27.2077  -28.6917   20.6854 C   0  0  0  0  0  0
  -26.0426  -26.9455   19.4646 C   0  0  0  0  0  0
  -24.8595  -27.7021   19.4914 C   0  0  0  0  0  0
  -23.6160  -29.8349   20.1699 C   0  0  0  0  0  0
  -25.4092  -36.3103   24.0375 C   0  0  1  0  0  0
  -20.5878  -28.3650   23.1318 C   0  0  2  0  0  0
  -20.6754  -26.9383   22.5412 C   0  0  0  0  0  0
  -19.5722  -26.6364   21.5228 C   0  0  0  0  0  0
  -18.1902  -26.7919   22.1637 C   0  0  0  0  0  0
  -19.1540  -28.8825   23.2914 C   0  0  0  0  0  0
  -18.9455  -30.1428   23.8932 C   0  0  0  0  0  0
  -17.6452  -30.6564   24.0570 C   0  0  0  0  0  0
  -25.9023  -34.9467   23.5172 C   0  0  0  0  0  0
  -16.5348  -29.9077   23.6305 C   0  0  0  0  0  0
  -16.7274  -28.6488   23.0345 C   0  0  0  0  0  0
  -26.4500  -31.6591   25.0815 C   0  0  0  0  0  0
  -25.3786  -31.3698   26.1574 C   0  0  0  0  0  0
  -27.0342  -30.3020   24.6240 C   0  0  0  0  0  0
  -27.6059  -32.4343   25.7555 C   0  0  0  0  0  0
  -27.5581  -37.1807   24.8472 C   0  0  0  0  0  0
  -21.4168  -29.3055   22.3758 N   0  0  0  0  0  0
  -26.4287  -37.3772   23.9417 N   0  0  0  0  0  0
  -24.6773  -31.0760   22.1055 N   0  0  0  0  0  0
  -23.4202  -28.8166   23.3055 O   0  0  0  0  0  0
  -28.3939  -26.6567   20.1073 O   0  0  0  0  0  0
  -26.5556  -34.8912   22.4708 O   0  0  0  0  0  0
  -23.5377  -32.1453   23.7501 O   0  0  0  0  0  0
  -29.5541  -23.0081   20.1526 C   0  0  0  0  0  0
  -29.3061  -24.3338   20.6211 C   0  0  0  0  0  0
  -30.3946  -22.1555   20.9141 C   0  0  0  0  0  0
  -29.9599  -24.7066   21.8226 C   0  0  0  0  0  0
  -29.8031  -26.0744   22.4704 C   0  0  0  0  0  0
  -28.9875  -19.7589   22.0251 C   0  0  0  0  0  0
  -31.7352  -17.9897   19.7824 C   0  0  0  0  0  0
  -31.3357  -17.8817   22.2579 C   0  0  0  0  0  0
  -28.2821  -25.2282   19.9047 C   0  0  0  0  0  0
  -30.8098  -20.7279   20.4717 C   0  0  0  0  0  0
  -29.6586  -16.8637   20.6389 C   0  0  0  0  0  0
  -29.9041  -19.4804   20.8115 C   0  0  1  0  0  0
  -30.6535  -18.0644   20.8886 C   0  0  0  0  0  0
  -30.9568  -22.5938   22.0683 N   0  0  0  0  0  0
  -30.7535  -23.8422   22.5054 N   0  0  0  0  0  0
  -29.9599  -15.4949   21.1444 N   0  0  0  0  0  0
  -31.4764  -12.4705   19.0841 H   0  0  0  0  0  0
  -30.3874  -11.3196   19.7972 H   0  0  0  0  0  0
  -29.7300  -11.8079   17.4267 H   0  0  0  0  0  0
  -29.6426  -13.5227   17.7861 H   0  0  0  0  0  0
  -27.8351  -11.3090   18.8268 H   0  0  0  0  0  0
  -27.3530  -12.6434   17.8113 H   0  0  0  0  0  0
  -27.7243  -14.2470   19.6022 H   0  0  0  0  0  0
  -28.7207  -11.9243   21.3204 H   0  0  0  0  0  0
  -28.4890  -13.5454   21.9034 H   0  0  0  0  0  0
  -25.2735   -9.5772   22.4795 H   0  0  0  0  0  0
  -24.0035   -7.4682   22.7518 H   0  0  0  0  0  0
  -21.0858   -8.8779   19.8926 H   0  0  0  0  0  0
  -22.3678  -10.9729   19.6178 H   0  0  0  0  0  0
  -21.1949   -7.6140   23.9696 H   0  0  0  0  0  0
  -21.1473   -6.0516   25.9053 H   0  0  0  0  0  0
  -22.0600   -2.7618   23.2835 H   0  0  0  0  0  0
  -22.4080  -12.0082   22.4800 H   0  0  0  0  0  0
  -21.1087  -13.1438   22.2319 H   0  0  0  0  0  0
  -24.7058  -15.8615   20.5109 H   0  0  0  0  0  0
  -26.3162  -15.6041   20.0725 H   0  0  0  0  0  0
  -26.7180  -32.5474   23.1249 H   0  0  0  0  0  0
  -25.0174  -33.9806   25.0598 H   0  0  0  0  0  0
  -22.7019  -31.3142   21.4239 H   0  0  0  0  0  0
  -23.3747  -35.9634   23.3305 H   0  0  0  0  0  0
  -24.3613  -36.8904   22.2067 H   0  0  0  0  0  0
  -23.7228  -37.6520   23.6645 H   0  0  0  0  0  0
  -26.1035  -31.5918   20.6307 H   0  0  0  0  0  0
  -26.8184  -30.8348   22.0256 H   0  0  0  0  0  0
  -28.1068  -29.0692   21.1520 H   0  0  0  0  0  0
  -26.0046  -25.9927   18.9579 H   0  0  0  0  0  0
  -23.9656  -27.3048   19.0282 H   0  0  0  0  0  0
  -23.7377  -30.6183   19.4219 H   0  0  0  0  0  0
  -22.7319  -29.2714   19.8619 H   0  0  0  0  0  0
  -25.1257  -36.2004   25.0873 H   0  0  0  0  0  0
  -20.9998  -28.3203   24.1427 H   0  0  0  0  0  0
  -20.5644  -26.2272   23.3609 H   0  0  0  0  0  0
  -21.6619  -26.7392   22.1201 H   0  0  0  0  0  0
  -19.6851  -25.6282   21.1234 H   0  0  0  0  0  0
  -19.6639  -27.3200   20.6783 H   0  0  0  0  0  0
  -17.4169  -26.6721   21.4028 H   0  0  0  0  0  0
  -18.0252  -26.0049   22.9010 H   0  0  0  0  0  0
  -19.7925  -30.7239   24.2304 H   0  0  0  0  0  0
  -17.4998  -31.6244   24.5167 H   0  0  0  0  0  0
  -15.5338  -30.2982   23.7586 H   0  0  0  0  0  0
  -15.8683  -28.0809   22.7035 H   0  0  0  0  0  0
  -24.5932  -30.7069   25.7946 H   0  0  0  0  0  0
  -24.9018  -32.2835   26.5120 H   0  0  0  0  0  0
  -25.8159  -30.8818   27.0286 H   0  0  0  0  0  0
  -26.2905  -29.6785   24.1254 H   0  0  0  0  0  0
  -27.4038  -29.7277   25.4748 H   0  0  0  0  0  0
  -27.8791  -30.4344   23.9477 H   0  0  0  0  0  0
  -27.2655  -33.3615   26.2183 H   0  0  0  0  0  0
  -28.3807  -32.6949   25.0339 H   0  0  0  0  0  0
  -28.0791  -31.8462   26.5423 H   0  0  0  0  0  0
  -28.2581  -38.0116   24.7492 H   0  0  0  0  0  0
  -28.1096  -36.2643   24.6304 H   0  0  0  0  0  0
  -27.2326  -37.1469   25.8886 H   0  0  0  0  0  0
  -20.9310  -29.8914   21.7114 H   0  0  0  0  0  0
  -26.0197  -38.2867   24.1373 H   0  0  0  0  0  0
  -29.0984  -22.6540   19.2369 H   0  0  0  0  0  0
  -28.7491  -26.3245   22.5964 H   0  0  0  0  0  0
  -30.2738  -26.8513   21.8650 H   0  0  0  0  0  0
  -30.2736  -26.1058   23.4521 H   0  0  0  0  0  0
  -28.4063  -20.6690   21.8746 H   0  0  0  0  0  0
  -29.5608  -19.8903   22.9422 H   0  0  0  0  0  0
  -28.2662  -18.9613   22.1928 H   0  0  0  0  0  0
  -32.3390  -17.0891   19.8717 H   0  0  0  0  0  0
  -32.4556  -18.8038   19.8205 H   0  0  0  0  0  0
  -31.2889  -17.9949   18.7864 H   0  0  0  0  0  0
  -31.9281  -16.9662   22.2799 H   0  0  0  0  0  0
  -30.6116  -17.8026   23.0697 H   0  0  0  0  0  0
  -32.0046  -18.7091   22.4959 H   0  0  0  0  0  0
  -27.3169  -24.8556   20.2555 H   0  0  0  0  0  0
  -28.3361  -25.0308   18.8325 H   0  0  0  0  0  0
  -31.7794  -20.5611   20.9395 H   0  0  0  0  0  0
  -31.0172  -20.7480   19.4002 H   0  0  0  0  0  0
  -29.4354  -16.7881   19.5741 H   0  0  0  0  0  0
  -28.7017  -17.1015   21.1032 H   0  0  0  0  0  0
  -29.2135  -19.4186   19.9707 H   0  0  0  0  0  0
  -29.2356  -15.1250   21.7409 H   0  0  0  0  0  0
  1 25  1  0  0  0
  1 30  2  0  0  0
  1 86  1  0  0  0
  2  3  1  0  0  0
  2 25  1  0  0  0
  2 87  1  0  0  0
  2 88  1  0  0  0
  3  4  1  0  0  0
  3 89  1  0  0  0
  3 90  1  0  0  0
  4  5  1  0  0  0
  4 91  1  0  0  0
  4 92  1  0  0  0
  5  6  1  0  0  0
  5 26  1  0  0  0
  5 93  1  0  0  0
  6 25  1  0  0  0
  6 94  1  0  0  0
  6 95  1  0  0  0
  7  8  2  0  0  0
  7 26  1  0  0  0
  7 29  1  0  0  0
  8  9  1  0  0  0
  8 22  1  0  0  0
  9 10  1  0  0  0
  9 27  2  0  0  0
 10 11  2  0  0  0
 10 15  1  0  0  0
 11 12  1  0  0  0
 11 96  1  0  0  0
 12 13  2  0  0  0
 12 97  1  0  0  0
 13 14  1  0  0  0
 13 31  1  0  0  0
 14 15  2  0  0  0
 14 98  1  0  0  0
 15 99  1  0  0  0
 16 17  2  0  0  0
 16 21  1  0  0  0
 16 31  1  0  0  0
 17 18  1  0  0  0
 17100  1  0  0  0
 18 19  2  0  0  0
 18101  1  0  0  0
 19 20  1  0  0  0
 19 24  1  0  0  0
 20 21  2  0  0  0
 20102  1  0  0  0
 21 23  1  0  0  0
 22 28  1  0  0  0
 22 32  2  0  0  0
 26 27  1  0  0  0
 28103  1  0  0  0
 28104  1  0  0  0
 29105  1  0  0  0
 29106  1  0  0  0
 33 34  1  0  0  0
 33 66  1  0  0  0
 33 70  2  0  0  0
 34 36  1  0  0  0
 34 59  1  0  0  0
 34107  1  0  0  0
 35 44  2  0  0  0
 35 45  1  0  0  0
 35 68  1  0  0  0
 36 56  1  0  0  0
 36108  1  0  0  0
 37 39  1  0  0  0
 37 47  1  0  0  0
 37 66  1  0  0  0
 37109  1  0  0  0
 38 43  2  0  0  0
 38 46  1  0  0  0
 38 47  1  0  0  0
 39 64  1  0  0  0
 39 67  2  0  0  0
 40 52  1  0  0  0
 40 53  2  0  0  0
 40 58  1  0  0  0
 41110  1  0  0  0
 41111  1  0  0  0
 41112  1  0  0  0
 41 48  1  0  0  0
 42 43  1  0  0  0
 42 66  1  0  0  0
 42113  1  0  0  0
 42114  1  0  0  0
 43 44  1  0  0  0
 44115  1  0  0  0
 45 46  2  0  0  0
 45116  1  0  0  0
 46117  1  0  0  0
 47118  1  0  0  0
 47119  1  0  0  0
 48 56  1  0  0  0
 48 65  1  0  0  0
 48120  1  0  0  0
 49 50  1  0  0  0
 49 53  1  0  0  0
 49 64  1  0  0  0
 49121  1  0  0  0
 50 51  1  0  0  0
 50122  1  0  0  0
 50123  1  0  0  0
 51 52  1  0  0  0
 51124  1  0  0  0
 51125  1  0  0  0
 52126  1  0  0  0
 52127  1  0  0  0
 53 54  1  0  0  0
 54 55  2  0  0  0
 54128  1  0  0  0
 55 57  1  0  0  0
 55129  1  0  0  0
 56 69  2  0  0  0
 57 58  2  0  0  0
 57130  1  0  0  0
 58131  1  0  0  0
 59 60  1  0  0  0
 59 61  1  0  0  0
 59 62  1  0  0  0
 60132  1  0  0  0
 60133  1  0  0  0
 60134  1  0  0  0
 61135  1  0  0  0
 61136  1  0  0  0
 61137  1  0  0  0
 62138  1  0  0  0
 62139  1  0  0  0
 62140  1  0  0  0
 63 65  1  0  0  0
 63141  1  0  0  0
 63142  1  0  0  0
 63143  1  0  0  0
 64144  1  0  0  0
 65145  1  0  0  0
 68 79  1  0  0  0
 71 72  2  0  0  0
 71 73  1  0  0  0
 71146  1  0  0  0
 72 74  1  0  0  0
 72 79  1  0  0  0
 73 80  1  0  0  0
 73 84  2  0  0  0
 74 75  1  0  0  0
 74 85  2  0  0  0
 75147  1  0  0  0
 75148  1  0  0  0
 75149  1  0  0  0
 76150  1  0  0  0
 76151  1  0  0  0
 76152  1  0  0  0
 76 82  1  0  0  0
 77153  1  0  0  0
 77154  1  0  0  0
 77155  1  0  0  0
 77 83  1  0  0  0
 78 83  1  0  0  0
 78156  1  0  0  0
 78157  1  0  0  0
 78158  1  0  0  0
 79159  1  0  0  0
 79160  1  0  0  0
 80 82  1  0  0  0
 80161  1  0  0  0
 80162  1  0  0  0
 81 83  1  0  0  0
 81 86  1  0  0  0
 81163  1  0  0  0
 81164  1  0  0  0
 82 83  1  0  0  0
 82165  1  0  0  0
 84 85  1  0  0  0
 86166  1  0  0  0
M  ISO  4   1 100  68 101  79 101  86 100
M  END
> <chiral flag>
0

> <version>
0

> <s_m_source_file>
/data/baiqing/PycharmProjects/Reinvent-master-3.2/result/LINK_invent/BTK/process_docking_weight1_custom_sum_contain_oxygen_bond_distance_aromatic_linkinvent_7_9_3/rearranged_h_0082.sdf

> <i_m_source_file_index>
76

> <r_mmod_Potential_Energy-OPLS-2005>
-7.69665098190308

> <r_mmod_Stretch_Energy-OPLS-2005>
57.9938354492188

> <r_mmod_Bend_Energy-OPLS-2005>
138.439529418945

> <r_mmod_Torsional_Energy-OPLS-2005>
252.391937255859

> <r_mmod_Improper_Torsional_Energy-OPLS-2005>
6.21308135986328

> <r_mmod_Van_der_Waal_Energy-OPLS-2005>
163.972045898438

> <r_mmod_Electrostatic_Energy-OPLS-2005>
-418.163787841797

> <r_mmod_Solvation_Energy-OPLS-2005>
-226.528518676758

> <b_mmod_Minimization_Converged-OPLS-2005>
0

> <r_mmod_RMS_Derivative-OPLS-2005>
4.66593837738037

$$$$
77
                    3D
 Structure written by MMmdl.
160168  0  0  1  0            999 V2000
  -30.5727  -14.7964   20.4181 C   0  0  0  0  0  0
  -30.4382  -12.4752   19.4944 C   0  0  0  0  0  0
  -29.5196  -12.5100   18.2515 C   0  0  0  0  0  0
  -28.0460  -12.3220   18.6596 C   0  0  0  0  0  0
  -27.6433  -13.2210   19.8578 C   0  0  2  0  0  0
  -28.6861  -13.1790   20.9977 C   0  0  0  0  0  0
  -25.2510  -13.8147   20.5707 C   0  0  0  0  0  0
  -24.1796  -13.0407   20.9213 C   0  0  0  0  0  0
  -24.6382  -11.6886   20.8747 C   0  0  0  0  0  0
  -23.9058  -10.4272   21.0401 C   0  0  0  0  0  0
  -24.3612   -9.4191   21.9179 C   0  0  0  0  0  0
  -23.6287   -8.2230   22.0752 C   0  0  0  0  0  0
  -22.4271   -8.0266   21.3540 C   0  0  0  0  0  0
  -21.9902   -9.0240   20.4644 C   0  0  0  0  0  0
  -22.7230  -10.2118   20.3051 C   0  0  0  0  0  0
  -21.6852   -6.0723   22.5277 C   0  0  0  0  0  0
  -21.4014   -6.5632   23.8206 C   0  0  0  0  0  0
  -21.3662   -5.6788   24.9172 C   0  0  0  0  0  0
  -21.6049   -4.3051   24.7226 C   0  0  0  0  0  0
  -21.8821   -3.8138   23.4347 C   0  0  0  0  0  0
  -21.9192   -4.6951   22.3401 C   0  0  0  0  0  0
  -22.7821  -13.5205   21.1863 C   0  0  0  0  0  0
  -22.1661   -4.2136   21.0980 F   0  0  0  0  0  0
  -21.5632   -3.4536   25.7741 F   0  0  0  0  0  0
  -29.9872  -13.5441   20.4213 N   0  0  0  0  0  0
  -26.2937  -12.9341   20.3311 N   0  0  0  0  0  0
  -25.9314  -11.6495   20.5767 N   0  0  0  0  0  0
  -22.0465  -12.8207   22.0424 N   0  0  0  0  0  0
  -25.4176  -15.1869   20.4129 N   0  0  0  0  0  0
  -31.7490  -14.9005   20.0570 O   0  0  0  0  0  0
  -21.6638   -6.8863   21.4237 O   0  0  0  0  0  0
  -22.3512  -14.5508   20.6697 O   0  0  0  0  0  0
  -24.6304  -31.8508   23.1932 C   0  0  0  0  0  0
  -25.9125  -32.4728   23.8296 C   0  0  1  0  0  0
  -27.2389  -27.2552   20.1345 C   0  0  0  0  0  0
  -25.5911  -33.8533   24.2212 N   0  0  0  0  0  0
  -23.4300  -30.4678   21.5344 C   0  0  2  0  0  0
  -24.8831  -28.9065   20.1023 C   0  0  0  0  0  0
  -22.7499  -29.4570   22.4888 C   0  0  0  0  0  0
  -18.0289  -28.1384   22.8489 C   0  0  0  0  0  0
  -24.1489  -36.7279   23.2644 C   0  0  0  0  0  0
  -25.9723  -30.7614   21.3736 C   0  0  0  0  0  0
  -26.0466  -29.3811   20.7182 C   0  0  0  0  0  0
  -27.2192  -28.5631   20.7293 C   0  0  0  0  0  0
  -26.0583  -26.8427   19.4826 C   0  0  0  0  0  0
  -24.8942  -27.6465   19.4744 C   0  0  0  0  0  0
  -23.6497  -29.7908   20.1520 C   0  0  0  0  0  0
  -25.4117  -36.3051   24.0317 C   0  0  1  0  0  0
  -20.5893  -28.3699   23.1266 C   0  0  2  0  0  0
  -20.6770  -26.9411   22.5415 C   0  0  0  0  0  0
  -19.5750  -26.6379   21.5214 C   0  0  0  0  0  0
  -18.1934  -26.7928   22.1622 C   0  0  0  0  0  0
  -19.1545  -28.8859   23.2874 C   0  0  0  0  0  0
  -18.9464  -30.1459   23.8898 C   0  0  0  0  0  0
  -17.6462  -30.6588   24.0564 C   0  0  0  0  0  0
  -25.9055  -34.9424   23.5074 C   0  0  0  0  0  0
  -16.5354  -29.9085   23.6328 C   0  0  0  0  0  0
  -16.7277  -28.6499   23.0361 C   0  0  0  0  0  0
  -26.4503  -31.6575   25.0700 C   0  0  0  0  0  0
  -25.3719  -31.3736   26.1416 C   0  0  0  0  0  0
  -27.0363  -30.2990   24.6211 C   0  0  0  0  0  0
  -27.6045  -32.4336   25.7477 C   0  0  0  0  0  0
  -27.5579  -37.1790   24.8462 C   0  0  0  0  0  0
  -21.4204  -29.3038   22.3643 N   0  0  0  0  0  0
  -26.4290  -37.3752   23.9404 N   0  0  0  0  0  0
  -24.6961  -31.0462   22.0906 N   0  0  0  0  0  0
  -23.4188  -28.8126   23.3010 O   0  0  0  0  0  0
  -28.3486  -26.3917   20.2827 O   0  0  0  0  0  0
  -26.5642  -34.8911   22.4653 O   0  0  0  0  0  0
  -23.5451  -32.1336   23.7219 O   0  0  0  0  0  0
  -28.9589  -19.8616   20.3258 C   0  0  0  0  0  0
  -29.4431  -21.1670   20.7150 C   0  0  0  0  0  0
  -29.8034  -18.6808   20.4558 C   0  0  0  0  0  0
  -31.4089  -20.0879   21.3135 C   0  0  0  0  0  0
  -32.8007  -20.2300   21.8894 C   0  0  0  0  0  0
  -30.4164  -17.1946   18.5178 C   0  0  0  0  0  0
  -28.0910  -17.1878   19.3236 C   0  0  0  0  0  0
  -28.6337  -22.5421   20.9243 C   0  0  0  0  0  0
  -28.1335  -23.5783   19.7842 C   0  0  0  0  0  0
  -28.6206  -25.1185   19.5358 C   0  0  0  0  0  0
  -29.5562  -17.2312   19.8023 C   0  0  0  0  0  0
  -30.7059  -21.2148   21.1840 N   0  0  0  0  0  0
  -31.0238  -18.8553   20.9915 N   0  0  0  0  0  0
  -29.7519  -15.9116   20.5927 N   0  0  0  0  0  0
  -31.4796  -12.6008   19.1932 H   0  0  0  0  0  0
  -30.3893  -11.5011   19.9834 H   0  0  0  0  0  0
  -29.8141  -11.7347   17.5427 H   0  0  0  0  0  0
  -29.6406  -13.4622   17.7322 H   0  0  0  0  0  0
  -27.9097  -11.2729   18.9239 H   0  0  0  0  0  0
  -27.3912  -12.5085   17.8081 H   0  0  0  0  0  0
  -27.6295  -14.2340   19.4685 H   0  0  0  0  0  0
  -28.7310  -12.1867   21.4491 H   0  0  0  0  0  0
  -28.4091  -13.8659   21.7992 H   0  0  0  0  0  0
  -25.2754   -9.5672   22.4755 H   0  0  0  0  0  0
  -23.9993   -7.4625   22.7477 H   0  0  0  0  0  0
  -21.0829   -8.8760   19.8955 H   0  0  0  0  0  0
  -22.3683  -10.9659   19.6164 H   0  0  0  0  0  0
  -21.2006   -7.6140   23.9706 H   0  0  0  0  0  0
  -21.1485   -6.0519   25.9074 H   0  0  0  0  0  0
  -22.0598   -2.7600   23.2855 H   0  0  0  0  0  0
  -22.4083  -11.9877   22.4829 H   0  0  0  0  0  0
  -21.1077  -13.1229   22.2613 H   0  0  0  0  0  0
  -24.6445  -15.8336   20.5240 H   0  0  0  0  0  0
  -26.2550  -15.6272   20.0587 H   0  0  0  0  0  0
  -26.7191  -32.5372   23.1037 H   0  0  0  0  0  0
  -25.0041  -33.9672   25.0347 H   0  0  0  0  0  0
  -22.7278  -31.2898   21.3810 H   0  0  0  0  0  0
  -23.3748  -35.9615   23.3295 H   0  0  0  0  0  0
  -24.3589  -36.8918   22.2063 H   0  0  0  0  0  0
  -23.7248  -37.6475   23.6686 H   0  0  0  0  0  0
  -26.1109  -31.5207   20.6026 H   0  0  0  0  0  0
  -26.8491  -30.8142   22.0075 H   0  0  0  0  0  0
  -28.1054  -28.9159   21.2383 H   0  0  0  0  0  0
  -26.0128  -25.8672   19.0202 H   0  0  0  0  0  0
  -24.0005  -27.2756   18.9920 H   0  0  0  0  0  0
  -23.7680  -30.5616   19.3897 H   0  0  0  0  0  0
  -22.7705  -29.2171   19.8532 H   0  0  0  0  0  0
  -25.1306  -36.1888   25.0809 H   0  0  0  0  0  0
  -20.9999  -28.3284   24.1382 H   0  0  0  0  0  0
  -20.5657  -26.2315   23.3629 H   0  0  0  0  0  0
  -21.6640  -26.7424   22.1216 H   0  0  0  0  0  0
  -19.6910  -25.6286   21.1258 H   0  0  0  0  0  0
  -19.6685  -27.3180   20.6739 H   0  0  0  0  0  0
  -17.4201  -26.6685   21.4022 H   0  0  0  0  0  0
  -18.0324  -26.0067   22.9013 H   0  0  0  0  0  0
  -19.7941  -30.7274   24.2273 H   0  0  0  0  0  0
  -17.5015  -31.6271   24.5161 H   0  0  0  0  0  0
  -15.5354  -30.2986   23.7653 H   0  0  0  0  0  0
  -15.8677  -28.0811   22.7087 H   0  0  0  0  0  0
  -24.5888  -30.7098   25.7736 H   0  0  0  0  0  0
  -24.8924  -32.2911   26.4834 H   0  0  0  0  0  0
  -25.8024  -30.8908   27.0197 H   0  0  0  0  0  0
  -26.2956  -29.6715   24.1242 H   0  0  0  0  0  0
  -27.4044  -29.7280   25.4747 H   0  0  0  0  0  0
  -27.8829  -30.4260   23.9459 H   0  0  0  0  0  0
  -27.2639  -33.3635   26.2045 H   0  0  0  0  0  0
  -28.3859  -32.6902   25.0311 H   0  0  0  0  0  0
  -28.0715  -31.8473   26.5402 H   0  0  0  0  0  0
  -28.2585  -38.0098   24.7509 H   0  0  0  0  0  0
  -28.1081  -36.2627   24.6279 H   0  0  0  0  0  0
  -27.2301  -37.1426   25.8866 H   0  0  0  0  0  0
  -20.9391  -29.8760   21.6843 H   0  0  0  0  0  0
  -26.0159  -38.2822   24.1406 H   0  0  0  0  0  0
  -27.9548  -19.7810   19.9344 H   0  0  0  0  0  0
  -33.1903  -19.2706   22.2313 H   0  0  0  0  0  0
  -33.4809  -20.6259   21.1359 H   0  0  0  0  0  0
  -32.7987  -20.9110   22.7406 H   0  0  0  0  0  0
  -30.1984  -18.0494   17.8763 H   0  0  0  0  0  0
  -30.2421  -16.2945   17.9279 H   0  0  0  0  0  0
  -31.4799  -17.2423   18.7513 H   0  0  0  0  0  0
  -27.8748  -17.9926   18.6200 H   0  0  0  0  0  0
  -27.3989  -17.2912   20.1593 H   0  0  0  0  0  0
  -27.8615  -16.2685   18.7908 H   0  0  0  0  0  0
  -29.1810  -23.1330   21.6591 H   0  0  0  0  0  0
  -27.7385  -22.2369   21.4665 H   0  0  0  0  0  0
  -27.0464  -23.6154   19.8526 H   0  0  0  0  0  0
  -28.3081  -23.0552   18.8434 H   0  0  0  0  0  0
  -28.3454  -25.3494   18.5060 H   0  0  0  0  0  0
  -29.7091  -25.0690   19.4989 H   0  0  0  0  0  0
  -28.9193  -15.6789   21.1089 H   0  0  0  0  0  0
  1 25  1  0  0  0
  1 30  2  0  0  0
  1 84  1  0  0  0
  2  3  1  0  0  0
  2 25  1  0  0  0
  2 85  1  0  0  0
  2 86  1  0  0  0
  3  4  1  0  0  0
  3 87  1  0  0  0
  3 88  1  0  0  0
  4  5  1  0  0  0
  4 89  1  0  0  0
  4 90  1  0  0  0
  5  6  1  0  0  0
  5 26  1  0  0  0
  5 91  1  0  0  0
  6 25  1  0  0  0
  6 92  1  0  0  0
  6 93  1  0  0  0
  7  8  2  0  0  0
  7 26  1  0  0  0
  7 29  1  0  0  0
  8  9  1  0  0  0
  8 22  1  0  0  0
  9 10  1  0  0  0
  9 27  2  0  0  0
 10 11  2  0  0  0
 10 15  1  0  0  0
 11 12  1  0  0  0
 11 94  1  0  0  0
 12 13  2  0  0  0
 12 95  1  0  0  0
 13 14  1  0  0  0
 13 31  1  0  0  0
 14 15  2  0  0  0
 14 96  1  0  0  0
 15 97  1  0  0  0
 16 17  2  0  0  0
 16 21  1  0  0  0
 16 31  1  0  0  0
 17 18  1  0  0  0
 17 98  1  0  0  0
 18 19  2  0  0  0
 18 99  1  0  0  0
 19 20  1  0  0  0
 19 24  1  0  0  0
 20 21  2  0  0  0
 20100  1  0  0  0
 21 23  1  0  0  0
 22 28  1  0  0  0
 22 32  2  0  0  0
 26 27  1  0  0  0
 28101  1  0  0  0
 28102  1  0  0  0
 29103  1  0  0  0
 29104  1  0  0  0
 33 34  1  0  0  0
 33 66  1  0  0  0
 33 70  2  0  0  0
 34 36  1  0  0  0
 34 59  1  0  0  0
 34105  1  0  0  0
 35 44  2  0  0  0
 35 45  1  0  0  0
 35 68  1  0  0  0
 36 56  1  0  0  0
 36106  1  0  0  0
 37 39  1  0  0  0
 37 47  1  0  0  0
 37 66  1  0  0  0
 37107  1  0  0  0
 38 43  2  0  0  0
 38 46  1  0  0  0
 38 47  1  0  0  0
 39 64  1  0  0  0
 39 67  2  0  0  0
 40 52  1  0  0  0
 40 53  2  0  0  0
 40 58  1  0  0  0
 41108  1  0  0  0
 41109  1  0  0  0
 41110  1  0  0  0
 41 48  1  0  0  0
 42 43  1  0  0  0
 42 66  1  0  0  0
 42111  1  0  0  0
 42112  1  0  0  0
 43 44  1  0  0  0
 44113  1  0  0  0
 45 46  2  0  0  0
 45114  1  0  0  0
 46115  1  0  0  0
 47116  1  0  0  0
 47117  1  0  0  0
 48 56  1  0  0  0
 48 65  1  0  0  0
 48118  1  0  0  0
 49 50  1  0  0  0
 49 53  1  0  0  0
 49 64  1  0  0  0
 49119  1  0  0  0
 50 51  1  0  0  0
 50120  1  0  0  0
 50121  1  0  0  0
 51 52  1  0  0  0
 51122  1  0  0  0
 51123  1  0  0  0
 52124  1  0  0  0
 52125  1  0  0  0
 53 54  1  0  0  0
 54 55  2  0  0  0
 54126  1  0  0  0
 55 57  1  0  0  0
 55127  1  0  0  0
 56 69  2  0  0  0
 57 58  2  0  0  0
 57128  1  0  0  0
 58129  1  0  0  0
 59 60  1  0  0  0
 59 61  1  0  0  0
 59 62  1  0  0  0
 60130  1  0  0  0
 60131  1  0  0  0
 60132  1  0  0  0
 61133  1  0  0  0
 61134  1  0  0  0
 61135  1  0  0  0
 62136  1  0  0  0
 62137  1  0  0  0
 62138  1  0  0  0
 63 65  1  0  0  0
 63139  1  0  0  0
 63140  1  0  0  0
 63141  1  0  0  0
 64142  1  0  0  0
 65143  1  0  0  0
 68 80  1  0  0  0
 71 72  2  0  0  0
 71 73  1  0  0  0
 71144  1  0  0  0
 72 78  1  0  0  0
 72 82  1  0  0  0
 73 81  1  0  0  0
 73 83  2  0  0  0
 74 75  1  0  0  0
 74 82  2  0  0  0
 74 83  1  0  0  0
 75145  1  0  0  0
 75146  1  0  0  0
 75147  1  0  0  0
 76148  1  0  0  0
 76149  1  0  0  0
 76150  1  0  0  0
 76 81  1  0  0  0
 77 81  1  0  0  0
 77151  1  0  0  0
 77152  1  0  0  0
 77153  1  0  0  0
 78 79  1  0  0  0
 78154  1  0  0  0
 78155  1  0  0  0
 79 80  1  0  0  0
 79156  1  0  0  0
 79157  1  0  0  0
 80158  1  0  0  0
 80159  1  0  0  0
 81 84  1  0  0  0
 84160  1  0  0  0
M  ISO  4   1 100  68 101  80 101  84 100
M  END
> <chiral flag>
0

> <version>
0

> <s_m_source_file>
/data/baiqing/PycharmProjects/Reinvent-master-3.2/result/LINK_invent/BTK/process_docking_weight1_custom_sum_contain_oxygen_bond_distance_aromatic_linkinvent_7_9_3/rearranged_h_0082.sdf

> <i_m_source_file_index>
77

> <r_mmod_Potential_Energy-OPLS-2005>
-323.267333984375

> <r_mmod_Stretch_Energy-OPLS-2005>
136.992324829102

> <r_mmod_Bend_Energy-OPLS-2005>
263.446380615234

> <r_mmod_Torsional_Energy-OPLS-2005>
228.52473449707

> <r_mmod_Improper_Torsional_Energy-OPLS-2005>
9.55212688446045

> <r_mmod_Van_der_Waal_Energy-OPLS-2005>
141.417770385742

> <r_mmod_Electrostatic_Energy-OPLS-2005>
-961.937866210938

> <r_mmod_Solvation_Energy-OPLS-2005>
-243.576629638672

> <b_mmod_Minimization_Converged-OPLS-2005>
0

> <r_mmod_RMS_Derivative-OPLS-2005>
0.886691510677338

$$$$
78
                    3D
 Structure written by MMmdl.
168176  0  0  1  0            999 V2000
  -30.6267  -14.5293   20.4155 C   0  0  0  0  0  0
  -30.4367  -12.2936   19.4319 C   0  0  0  0  0  0
  -29.5078  -12.4707   18.2150 C   0  0  0  0  0  0
  -28.0183  -12.3599   18.6174 C   0  0  0  0  0  0
  -27.6565  -13.2017   19.8729 C   0  0  2  0  0  0
  -28.7060  -13.0004   20.9867 C   0  0  0  0  0  0
  -25.2548  -13.8104   20.5694 C   0  0  0  0  0  0
  -24.1834  -13.0419   20.9188 C   0  0  0  0  0  0
  -24.6385  -11.6851   20.8795 C   0  0  0  0  0  0
  -23.9055  -10.4236   21.0378 C   0  0  0  0  0  0
  -24.3600   -9.4163   21.9166 C   0  0  0  0  0  0
  -23.6266   -8.2223   22.0761 C   0  0  0  0  0  0
  -22.4255   -8.0240   21.3542 C   0  0  0  0  0  0
  -21.9870   -9.0217   20.4659 C   0  0  0  0  0  0
  -22.7209  -10.2084   20.3032 C   0  0  0  0  0  0
  -21.6840   -6.0731   22.5281 C   0  0  0  0  0  0
  -21.4039   -6.5637   23.8224 C   0  0  0  0  0  0
  -21.3646   -5.6781   24.9182 C   0  0  0  0  0  0
  -21.6074   -4.3050   24.7236 C   0  0  0  0  0  0
  -21.8792   -3.8134   23.4344 C   0  0  0  0  0  0
  -21.9193   -4.6963   22.3405 C   0  0  0  0  0  0
  -22.7838  -13.5192   21.1906 C   0  0  0  0  0  0
  -22.1642   -4.2123   21.0985 F   0  0  0  0  0  0
  -21.5615   -3.4538   25.7753 F   0  0  0  0  0  0
  -30.0331  -13.3021   20.4210 N   0  0  0  0  0  0
  -26.2998  -12.9305   20.3328 N   0  0  0  0  0  0
  -25.9303  -11.6467   20.5759 N   0  0  0  0  0  0
  -22.0487  -12.8191   22.0450 N   0  0  0  0  0  0
  -25.4185  -15.1828   20.4029 N   0  0  0  0  0  0
  -31.7984  -14.7149   20.0699 O   0  0  0  0  0  0
  -21.6618   -6.8845   21.4227 O   0  0  0  0  0  0
  -22.3508  -14.5502   20.6736 O   0  0  0  0  0  0
  -24.6167  -31.8721   23.2103 C   0  0  0  0  0  0
  -25.9087  -32.4853   23.8388 C   0  0  1  0  0  0
  -27.2200  -27.4179   20.0764 C   0  0  0  0  0  0
  -25.5991  -33.8656   24.2374 N   0  0  0  0  0  0
  -23.4084  -30.5028   21.5449 C   0  0  2  0  0  0
  -24.8492  -28.9709   20.1077 C   0  0  0  0  0  0
  -22.7436  -29.4728   22.4891 C   0  0  0  0  0  0
  -18.0268  -28.1113   22.8878 C   0  0  0  0  0  0
  -24.1502  -36.7328   23.2631 C   0  0  0  0  0  0
  -25.9367  -30.8289   21.3692 C   0  0  0  0  0  0
  -26.0106  -29.4597   20.7181 C   0  0  0  0  0  0
  -27.2054  -28.6935   20.6988 C   0  0  0  0  0  0
  -26.0494  -26.9634   19.4405 C   0  0  0  0  0  0
  -24.8713  -27.7268   19.4594 C   0  0  0  0  0  0
  -23.6204  -29.8554   20.1503 C   0  0  0  0  0  0
  -25.4112  -36.3103   24.0329 C   0  0  1  0  0  0
  -20.5919  -28.3546   23.1045 C   0  0  2  0  0  0
  -20.6852  -26.9378   22.4929 C   0  0  0  0  0  0
  -19.5394  -26.6175   21.5293 C   0  0  0  0  0  0
  -18.1973  -26.7438   22.2439 C   0  0  0  0  0  0
  -19.1571  -28.8790   23.2787 C   0  0  0  0  0  0
  -18.9474  -30.1608   23.8295 C   0  0  0  0  0  0
  -17.6483  -30.6805   23.9854 C   0  0  0  0  0  0
  -25.9037  -34.9481   23.5098 C   0  0  0  0  0  0
  -16.5338  -29.9089   23.6188 C   0  0  0  0  0  0
  -16.7252  -28.6236   23.0816 C   0  0  0  0  0  0
  -26.4505  -31.6586   25.0691 C   0  0  0  0  0  0
  -25.3783  -31.3761   26.1474 C   0  0  0  0  0  0
  -27.0356  -30.3028   24.6031 C   0  0  0  0  0  0
  -27.6092  -32.4303   25.7462 C   0  0  0  0  0  0
  -27.5568  -37.1846   24.8451 C   0  0  0  0  0  0
  -21.4181  -29.3018   22.3517 N   0  0  0  0  0  0
  -26.4288  -37.3786   23.9414 N   0  0  0  0  0  0
  -24.6713  -31.0851   22.1022 N   0  0  0  0  0  0
  -23.4190  -28.8312   23.3030 O   0  0  0  0  0  0
  -28.3678  -26.6451   20.0206 O   0  0  0  0  0  0
  -26.5543  -34.8904   22.4610 O   0  0  0  0  0  0
  -23.5378  -32.1529   23.7488 O   0  0  0  0  0  0
  -28.6798  -19.9007   18.7628 C   0  0  0  0  0  0
  -27.7469  -20.8803   18.4677 C   0  0  0  0  0  0
  -26.5037  -20.3078   18.9231 C   0  0  0  0  0  0
  -24.0477  -19.6124   18.8815 C   0  0  0  0  0  0
  -24.7078  -21.6532   17.6933 C   0  0  0  0  0  0
  -24.7564  -21.5665   20.2411 C   0  0  0  0  0  0
  -28.0296  -22.2059   17.7519 C   0  0  0  0  0  0
  -27.6489  -23.5325   18.4847 C   0  0  0  0  0  0
  -28.7366  -24.1988   19.3657 C   0  0  0  0  0  0
  -28.4345  -17.6072   20.0986 C   0  0  0  0  0  0
  -29.7900  -16.8867   19.8348 C   0  0  0  0  0  0
  -28.2410  -25.2532   20.4003 C   0  0  0  0  0  0
  -25.0390  -20.8009   18.9329 C   0  0  0  0  0  0
  -26.7223  -19.1459   19.5182 N   0  0  0  0  0  0
  -28.0316  -18.8549   19.4180 N   0  0  0  0  0  0
  -29.7476  -15.5492   20.4950 N   0  0  0  0  0  0
  -31.4791  -12.3956   19.1343 H   0  0  0  0  0  0
  -30.3441  -11.2925   19.8487 H   0  0  0  0  0  0
  -29.7392  -11.7280   17.4544 H   0  0  0  0  0  0
  -29.6885  -13.4444   17.7581 H   0  0  0  0  0  0
  -27.7942  -11.3054   18.7950 H   0  0  0  0  0  0
  -27.3792  -12.6543   17.7809 H   0  0  0  0  0  0
  -27.6789  -14.2397   19.5551 H   0  0  0  0  0  0
  -28.6786  -11.9643   21.3277 H   0  0  0  0  0  0
  -28.4934  -13.6050   21.8680 H   0  0  0  0  0  0
  -25.2733   -9.5655   22.4744 H   0  0  0  0  0  0
  -23.9976   -7.4608   22.7462 H   0  0  0  0  0  0
  -21.0815   -8.8741   19.8950 H   0  0  0  0  0  0
  -22.3661  -10.9645   19.6150 H   0  0  0  0  0  0
  -21.2040   -7.6144   23.9716 H   0  0  0  0  0  0
  -21.1506   -6.0527   25.9088 H   0  0  0  0  0  0
  -22.0592   -2.7592   23.2867 H   0  0  0  0  0  0
  -22.4075  -11.9814   22.4860 H   0  0  0  0  0  0
  -21.1112  -13.1211   22.2727 H   0  0  0  0  0  0
  -24.6412  -15.8235   20.5092 H   0  0  0  0  0  0
  -26.2339  -15.6244   20.0064 H   0  0  0  0  0  0
  -26.7191  -32.5560   23.1178 H   0  0  0  0  0  0
  -25.0357  -33.9838   25.0662 H   0  0  0  0  0  0
  -22.7147  -31.3312   21.4147 H   0  0  0  0  0  0
  -23.3718  -35.9698   23.3264 H   0  0  0  0  0  0
  -24.3622  -36.8969   22.2060 H   0  0  0  0  0  0
  -23.7322  -37.6543   23.6664 H   0  0  0  0  0  0
  -26.0405  -31.5914   20.5975 H   0  0  0  0  0  0
  -26.8354  -30.9073   21.9681 H   0  0  0  0  0  0
  -28.1001  -29.0749   21.1778 H   0  0  0  0  0  0
  -26.0439  -26.0278   18.9036 H   0  0  0  0  0  0
  -23.9999  -27.3534   18.9448 H   0  0  0  0  0  0
  -23.7682  -30.6440   19.4127 H   0  0  0  0  0  0
  -22.7409  -29.3036   19.8129 H   0  0  0  0  0  0
  -25.1275  -36.1960   25.0830 H   0  0  0  0  0  0
  -21.0080  -28.2881   24.1196 H   0  0  0  0  0  0
  -20.6594  -26.2065   23.3040 H   0  0  0  0  0  0
  -21.6451  -26.7831   21.9984 H   0  0  0  0  0  0
  -19.6543  -25.6054   21.1313 H   0  0  0  0  0  0
  -19.5636  -27.3147   20.6894 H   0  0  0  0  0  0
  -17.3717  -26.5230   21.5662 H   0  0  0  0  0  0
  -18.1421  -25.9878   23.0348 H   0  0  0  0  0  0
  -19.8024  -30.7661   24.0983 H   0  0  0  0  0  0
  -17.5185  -31.6920   24.3531 H   0  0  0  0  0  0
  -15.5304  -30.3047   23.7228 H   0  0  0  0  0  0
  -15.8631  -28.0326   22.8038 H   0  0  0  0  0  0
  -24.5955  -30.7078   25.7863 H   0  0  0  0  0  0
  -24.8949  -32.2963   26.4782 H   0  0  0  0  0  0
  -25.8137  -30.9053   27.0309 H   0  0  0  0  0  0
  -26.2891  -29.6786   24.1107 H   0  0  0  0  0  0
  -27.4247  -29.7265   25.4445 H   0  0  0  0  0  0
  -27.8654  -30.4387   23.9095 H   0  0  0  0  0  0
  -27.2701  -33.3626   26.2001 H   0  0  0  0  0  0
  -28.3900  -32.6870   25.0280 H   0  0  0  0  0  0
  -28.0751  -31.8458   26.5416 H   0  0  0  0  0  0
  -28.2556  -38.0155   24.7428 H   0  0  0  0  0  0
  -28.1089  -36.2685   24.6324 H   0  0  0  0  0  0
  -27.2281  -37.1524   25.8846 H   0  0  0  0  0  0
  -20.9396  -29.8628   21.6629 H   0  0  0  0  0  0
  -26.0131  -38.2830   24.1441 H   0  0  0  0  0  0
  -29.7450  -19.8648   18.5812 H   0  0  0  0  0  0
  -24.2051  -18.9953   18.0021 H   0  0  0  0  0  0
  -23.0077  -19.9568   18.8760 H   0  0  0  0  0  0
  -24.1407  -18.9673   19.7582 H   0  0  0  0  0  0
  -24.9685  -21.1226   16.7733 H   0  0  0  0  0  0
  -25.2279  -22.6073   17.6789 H   0  0  0  0  0  0
  -23.6367  -21.8781   17.6397 H   0  0  0  0  0  0
  -25.0014  -20.9389   21.1017 H   0  0  0  0  0  0
  -23.7106  -21.8581   20.3466 H   0  0  0  0  0  0
  -25.3665  -22.4594   20.3383 H   0  0  0  0  0  0
  -27.4920  -22.2013   16.8070 H   0  0  0  0  0  0
  -29.0743  -22.2689   17.4429 H   0  0  0  0  0  0
  -27.3854  -24.2724   17.7292 H   0  0  0  0  0  0
  -26.7464  -23.3941   19.0574 H   0  0  0  0  0  0
  -29.5245  -24.6239   18.7446 H   0  0  0  0  0  0
  -29.2180  -23.3946   19.9188 H   0  0  0  0  0  0
  -28.3519  -17.7975   21.1652 H   0  0  0  0  0  0
  -27.6573  -16.8751   19.8782 H   0  0  0  0  0  0
  -30.6240  -17.4790   20.2288 H   0  0  0  0  0  0
  -29.9383  -16.7561   18.7600 H   0  0  0  0  0  0
  -28.8730  -25.1469   21.2855 H   0  0  0  0  0  0
  -27.2442  -24.9921   20.7611 H   0  0  0  0  0  0
  -28.8385  -15.2762   20.8290 H   0  0  0  0  0  0
  1 25  1  0  0  0
  1 30  2  0  0  0
  1 86  1  0  0  0
  2  3  1  0  0  0
  2 25  1  0  0  0
  2 87  1  0  0  0
  2 88  1  0  0  0
  3  4  1  0  0  0
  3 89  1  0  0  0
  3 90  1  0  0  0
  4  5  1  0  0  0
  4 91  1  0  0  0
  4 92  1  0  0  0
  5  6  1  0  0  0
  5 26  1  0  0  0
  5 93  1  0  0  0
  6 25  1  0  0  0
  6 94  1  0  0  0
  6 95  1  0  0  0
  7  8  2  0  0  0
  7 26  1  0  0  0
  7 29  1  0  0  0
  8  9  1  0  0  0
  8 22  1  0  0  0
  9 10  1  0  0  0
  9 27  2  0  0  0
 10 11  2  0  0  0
 10 15  1  0  0  0
 11 12  1  0  0  0
 11 96  1  0  0  0
 12 13  2  0  0  0
 12 97  1  0  0  0
 13 14  1  0  0  0
 13 31  1  0  0  0
 14 15  2  0  0  0
 14 98  1  0  0  0
 15 99  1  0  0  0
 16 17  2  0  0  0
 16 21  1  0  0  0
 16 31  1  0  0  0
 17 18  1  0  0  0
 17100  1  0  0  0
 18 19  2  0  0  0
 18101  1  0  0  0
 19 20  1  0  0  0
 19 24  1  0  0  0
 20 21  2  0  0  0
 20102  1  0  0  0
 21 23  1  0  0  0
 22 28  1  0  0  0
 22 32  2  0  0  0
 26 27  1  0  0  0
 28103  1  0  0  0
 28104  1  0  0  0
 29105  1  0  0  0
 29106  1  0  0  0
 33 34  1  0  0  0
 33 66  1  0  0  0
 33 70  2  0  0  0
 34 36  1  0  0  0
 34 59  1  0  0  0
 34107  1  0  0  0
 35 44  2  0  0  0
 35 45  1  0  0  0
 35 68  1  0  0  0
 36 56  1  0  0  0
 36108  1  0  0  0
 37 39  1  0  0  0
 37 47  1  0  0  0
 37 66  1  0  0  0
 37109  1  0  0  0
 38 43  2  0  0  0
 38 46  1  0  0  0
 38 47  1  0  0  0
 39 64  1  0  0  0
 39 67  2  0  0  0
 40 52  1  0  0  0
 40 53  2  0  0  0
 40 58  1  0  0  0
 41110  1  0  0  0
 41111  1  0  0  0
 41112  1  0  0  0
 41 48  1  0  0  0
 42 43  1  0  0  0
 42 66  1  0  0  0
 42113  1  0  0  0
 42114  1  0  0  0
 43 44  1  0  0  0
 44115  1  0  0  0
 45 46  2  0  0  0
 45116  1  0  0  0
 46117  1  0  0  0
 47118  1  0  0  0
 47119  1  0  0  0
 48 56  1  0  0  0
 48 65  1  0  0  0
 48120  1  0  0  0
 49 50  1  0  0  0
 49 53  1  0  0  0
 49 64  1  0  0  0
 49121  1  0  0  0
 50 51  1  0  0  0
 50122  1  0  0  0
 50123  1  0  0  0
 51 52  1  0  0  0
 51124  1  0  0  0
 51125  1  0  0  0
 52126  1  0  0  0
 52127  1  0  0  0
 53 54  1  0  0  0
 54 55  2  0  0  0
 54128  1  0  0  0
 55 57  1  0  0  0
 55129  1  0  0  0
 56 69  2  0  0  0
 57 58  2  0  0  0
 57130  1  0  0  0
 58131  1  0  0  0
 59 60  1  0  0  0
 59 61  1  0  0  0
 59 62  1  0  0  0
 60132  1  0  0  0
 60133  1  0  0  0
 60134  1  0  0  0
 61135  1  0  0  0
 61136  1  0  0  0
 61137  1  0  0  0
 62138  1  0  0  0
 62139  1  0  0  0
 62140  1  0  0  0
 63 65  1  0  0  0
 63141  1  0  0  0
 63142  1  0  0  0
 63143  1  0  0  0
 64144  1  0  0  0
 65145  1  0  0  0
 68 82  1  0  0  0
 71 72  2  0  0  0
 71 85  1  0  0  0
 71146  1  0  0  0
 72 73  1  0  0  0
 72 77  1  0  0  0
 73 83  1  0  0  0
 73 84  2  0  0  0
 74147  1  0  0  0
 74148  1  0  0  0
 74149  1  0  0  0
 74 83  1  0  0  0
 75 83  1  0  0  0
 75150  1  0  0  0
 75151  1  0  0  0
 75152  1  0  0  0
 76 83  1  0  0  0
 76153  1  0  0  0
 76154  1  0  0  0
 76155  1  0  0  0
 77 78  1  0  0  0
 77156  1  0  0  0
 77157  1  0  0  0
 78 79  1  0  0  0
 78158  1  0  0  0
 78159  1  0  0  0
 79 82  1  0  0  0
 79160  1  0  0  0
 79161  1  0  0  0
 80 81  1  0  0  0
 80 85  1  0  0  0
 80162  1  0  0  0
 80163  1  0  0  0
 81 86  1  0  0  0
 81164  1  0  0  0
 81165  1  0  0  0
 82166  1  0  0  0
 82167  1  0  0  0
 84 85  1  0  0  0
 86168  1  0  0  0
M  ISO  4   1 100  68 101  82 101  86 100
M  END
> <chiral flag>
0

> <version>
0

> <s_m_source_file>
/data/baiqing/PycharmProjects/Reinvent-master-3.2/result/LINK_invent/BTK/process_docking_weight1_custom_sum_contain_oxygen_bond_distance_aromatic_linkinvent_7_9_3/rearranged_h_0082.sdf

> <i_m_source_file_index>
78

> <r_mmod_Potential_Energy-OPLS-2005>
-20.2062816619873

> <r_mmod_Stretch_Energy-OPLS-2005>
49.4256019592285

> <r_mmod_Bend_Energy-OPLS-2005>
146.015075683594

> <r_mmod_Torsional_Energy-OPLS-2005>
253.537933349609

> <r_mmod_Improper_Torsional_Energy-OPLS-2005>
10.3835077285767

> <r_mmod_Van_der_Waal_Energy-OPLS-2005>
122.264915466309

> <r_mmod_Electrostatic_Energy-OPLS-2005>
-418.519622802734

> <r_mmod_Solvation_Energy-OPLS-2005>
-209.455474853516

> <b_mmod_Minimization_Converged-OPLS-2005>
0

> <r_mmod_RMS_Derivative-OPLS-2005>
11.7400522232056

$$$$
79
                    3D
 Structure written by MMmdl.
154162  0  0  1  0            999 V2000
  -30.3669  -15.3837   20.3551 C   0  0  0  0  0  0
  -30.4369  -12.8840   19.5593 C   0  0  0  0  0  0
  -29.5454  -12.6004   18.3206 C   0  0  0  0  0  0
  -28.1039  -12.2903   18.7498 C   0  0  0  0  0  0
  -27.6072  -13.2838   19.8268 C   0  0  2  0  0  0
  -28.6272  -13.5017   20.9672 C   0  0  0  0  0  0
  -25.2351  -13.8257   20.5760 C   0  0  0  0  0  0
  -24.1721  -13.0430   20.9260 C   0  0  0  0  0  0
  -24.6396  -11.6926   20.8763 C   0  0  0  0  0  0
  -23.9108  -10.4276   21.0415 C   0  0  0  0  0  0
  -24.3640   -9.4189   21.9183 C   0  0  0  0  0  0
  -23.6305   -8.2235   22.0749 C   0  0  0  0  0  0
  -22.4284   -8.0280   21.3537 C   0  0  0  0  0  0
  -21.9935   -9.0260   20.4646 C   0  0  0  0  0  0
  -22.7276  -10.2137   20.3063 C   0  0  0  0  0  0
  -21.6849   -6.0733   22.5277 C   0  0  0  0  0  0
  -21.4014   -6.5640   23.8214 C   0  0  0  0  0  0
  -21.3668   -5.6799   24.9184 C   0  0  0  0  0  0
  -21.6045   -4.3058   24.7246 C   0  0  0  0  0  0
  -21.8811   -3.8144   23.4365 C   0  0  0  0  0  0
  -21.9188   -4.6964   22.3416 C   0  0  0  0  0  0
  -22.7744  -13.5178   21.1907 C   0  0  0  0  0  0
  -22.1651   -4.2147   21.0999 F   0  0  0  0  0  0
  -21.5634   -3.4539   25.7757 F   0  0  0  0  0  0
  -29.8544  -14.0402   20.3553 N   0  0  0  0  0  0
  -26.2784  -12.9549   20.3234 N   0  0  0  0  0  0
  -25.9335  -11.6647   20.5727 N   0  0  0  0  0  0
  -22.0413  -12.8170   22.0470 N   0  0  0  0  0  0
  -25.3982  -15.2010   20.4243 N   0  0  0  0  0  0
  -31.5730  -15.3968   20.0576 O   0  0  0  0  0  0
  -21.6636   -6.8878   21.4240 O   0  0  0  0  0  0
  -22.3425  -14.5481   20.6732 O   0  0  0  0  0  0
  -24.6697  -31.8129   23.1620 C   0  0  0  0  0  0
  -25.9349  -32.4524   23.8108 C   0  0  1  0  0  0
  -27.2173  -26.8414   20.1991 C   0  0  0  0  0  0
  -25.5985  -33.8342   24.2002 N   0  0  0  0  0  0
  -23.4881  -30.4208   21.5121 C   0  0  2  0  0  0
  -24.9419  -28.7880   20.1135 C   0  0  0  0  0  0
  -22.7700  -29.4378   22.4744 C   0  0  0  0  0  0
  -18.0333  -28.1399   22.8467 C   0  0  0  0  0  0
  -24.1501  -36.7195   23.2643 C   0  0  0  0  0  0
  -26.0608  -30.5919   21.4044 C   0  0  0  0  0  0
  -26.1266  -29.1715   20.7536 C   0  0  0  0  0  0
  -27.2541  -28.2210   20.7699 C   0  0  0  0  0  0
  -26.0037  -26.6293   19.5051 C   0  0  0  0  0  0
  -24.9106  -27.5392   19.4685 C   0  0  0  0  0  0
  -23.7344  -29.7298   20.1409 C   0  0  0  0  0  0
  -25.4139  -36.2926   24.0282 C   0  0  1  0  0  0
  -20.5957  -28.3756   23.1169 C   0  0  2  0  0  0
  -20.6807  -26.9432   22.5397 C   0  0  0  0  0  0
  -19.5777  -26.6371   21.5211 C   0  0  0  0  0  0
  -18.1965  -26.7929   22.1631 C   0  0  0  0  0  0
  -19.1598  -28.8904   23.2800 C   0  0  0  0  0  0
  -18.9504  -30.1492   23.8831 C   0  0  0  0  0  0
  -17.6499  -30.6592   24.0554 C   0  0  0  0  0  0
  -25.9113  -34.9314   23.4966 C   0  0  0  0  0  0
  -16.5387  -29.9081   23.6337 C   0  0  0  0  0  0
  -16.7317  -28.6500   23.0359 C   0  0  0  0  0  0
  -26.4572  -31.6511   25.0679 C   0  0  0  0  0  0
  -25.3689  -31.3822   26.1338 C   0  0  0  0  0  0
  -27.0467  -30.2856   24.6491 C   0  0  0  0  0  0
  -27.6030  -32.4353   25.7494 C   0  0  0  0  0  0
  -27.5561  -37.1748   24.8457 C   0  0  0  0  0  0
  -21.4363  -29.3026   22.3505 N   0  0  0  0  0  0
  -26.4276  -37.3669   23.9401 N   0  0  0  0  0  0
  -24.7615  -30.9714   22.0791 N   0  0  0  0  0  0
  -23.4215  -28.7982   23.3040 O   0  0  0  0  0  0
  -28.2081  -25.7015   20.2941 O   0  0  0  0  0  0
  -26.5736  -34.8868   22.4581 O   0  0  0  0  0  0
  -23.5746  -32.1140   23.6659 O   0  0  0  0  0  0
  -29.5458  -19.4396   20.9174 C   0  0  0  0  0  0
  -28.4918  -20.0236   19.1411 C   0  0  0  0  0  0
  -28.9854  -20.7257   20.2355 C   0  0  0  0  0  0
  -29.4215  -18.1297   20.2607 C   0  0  0  0  0  0
  -30.4208  -22.9241   20.1744 C   0  0  0  0  0  0
  -28.8878  -22.5811   22.1046 C   0  0  0  0  0  0
  -28.1451  -17.7052   18.1435 C   0  0  0  0  0  0
  -28.0367  -24.0303   20.0670 C   0  0  0  0  0  0
  -28.9937  -22.5206   20.5730 C   0  0  0  0  0  0
  -28.6924  -18.5933   19.1532 N   0  0  0  0  0  0
  -29.5755  -16.6430   20.6153 N   0  0  0  0  0  0
  -31.4524  -13.0981   19.2251 H   0  0  0  0  0  0
  -30.5258  -11.9912   20.1805 H   0  0  0  0  0  0
  -29.9482  -11.7704   17.7385 H   0  0  0  0  0  0
  -29.5505  -13.4734   17.6666 H   0  0  0  0  0  0
  -28.0974  -11.2804   19.1629 H   0  0  0  0  0  0
  -27.4334  -12.2721   17.8898 H   0  0  0  0  0  0
  -27.5095  -14.2359   19.3030 H   0  0  0  0  0  0
  -28.8156  -12.5820   21.5220 H   0  0  0  0  0  0
  -28.2362  -14.2188   21.6903 H   0  0  0  0  0  0
  -25.2782   -9.5667   22.4769 H   0  0  0  0  0  0
  -23.9990   -7.4645   22.7493 H   0  0  0  0  0  0
  -21.0837   -8.8808   19.8981 H   0  0  0  0  0  0
  -22.3717  -10.9689   19.6188 H   0  0  0  0  0  0
  -21.1994   -7.6141   23.9724 H   0  0  0  0  0  0
  -21.1498   -6.0526   25.9093 H   0  0  0  0  0  0
  -22.0578   -2.7606   23.2872 H   0  0  0  0  0  0
  -22.4022  -11.9838   22.4889 H   0  0  0  0  0  0
  -21.1047  -13.1205   22.2706 H   0  0  0  0  0  0
  -24.6237  -15.8441   20.5496 H   0  0  0  0  0  0
  -26.2458  -15.6559   20.1144 H   0  0  0  0  0  0
  -26.7431  -32.5019   23.0819 H   0  0  0  0  0  0
  -25.0069  -33.9411   25.0112 H   0  0  0  0  0  0
  -22.8046  -31.2537   21.3339 H   0  0  0  0  0  0
  -23.3754  -35.9533   23.3262 H   0  0  0  0  0  0
  -24.3575  -36.8897   22.2065 H   0  0  0  0  0  0
  -23.7284  -37.6379   23.6742 H   0  0  0  0  0  0
  -26.2492  -31.3251   20.6184 H   0  0  0  0  0  0
  -26.9161  -30.6516   22.0658 H   0  0  0  0  0  0
  -28.1467  -28.5126   21.3044 H   0  0  0  0  0  0
  -25.8656  -25.6756   19.0146 H   0  0  0  0  0  0
  -24.0114  -27.2395   18.9471 H   0  0  0  0  0  0
  -23.9032  -30.4951   19.3820 H   0  0  0  0  0  0
  -22.8411  -29.1935   19.8169 H   0  0  0  0  0  0
  -25.1353  -36.1681   25.0771 H   0  0  0  0  0  0
  -21.0047  -28.3365   24.1291 H   0  0  0  0  0  0
  -20.5681  -26.2381   23.3650 H   0  0  0  0  0  0
  -21.6671  -26.7399   22.1198 H   0  0  0  0  0  0
  -19.6939  -25.6268   21.1275 H   0  0  0  0  0  0
  -19.6710  -27.3154   20.6718 H   0  0  0  0  0  0
  -17.4231  -26.6666   21.4035 H   0  0  0  0  0  0
  -18.0374  -26.0079   22.9043 H   0  0  0  0  0  0
  -19.7986  -30.7323   24.2162 H   0  0  0  0  0  0
  -17.5053  -31.6262   24.5190 H   0  0  0  0  0  0
  -15.5382  -30.2966   23.7689 H   0  0  0  0  0  0
  -15.8723  -28.0797   22.7097 H   0  0  0  0  0  0
  -24.5819  -30.7236   25.7654 H   0  0  0  0  0  0
  -24.8959  -32.3065   26.4655 H   0  0  0  0  0  0
  -25.7899  -30.9032   27.0187 H   0  0  0  0  0  0
  -26.3147  -29.6503   24.1497 H   0  0  0  0  0  0
  -27.3950  -29.7251   25.5175 H   0  0  0  0  0  0
  -27.9109  -30.3986   23.9947 H   0  0  0  0  0  0
  -27.2539  -33.3663   26.1967 H   0  0  0  0  0  0
  -28.3893  -32.6909   25.0385 H   0  0  0  0  0  0
  -28.0648  -31.8571   26.5505 H   0  0  0  0  0  0
  -28.2552  -38.0065   24.7487 H   0  0  0  0  0  0
  -28.1087  -36.2587   24.6302 H   0  0  0  0  0  0
  -27.2281  -37.1410   25.8864 H   0  0  0  0  0  0
  -20.9633  -29.8714   21.6624 H   0  0  0  0  0  0
  -26.0098  -38.2717   24.1420 H   0  0  0  0  0  0
  -30.0251  -19.4987   21.8864 H   0  0  0  0  0  0
  -27.9594  -20.4421   18.2956 H   0  0  0  0  0  0
  -31.1711  -22.3147   20.6795 H   0  0  0  0  0  0
  -30.6239  -23.9656   20.4253 H   0  0  0  0  0  0
  -30.5698  -22.8101   19.1002 H   0  0  0  0  0  0
  -29.6562  -21.9788   22.5884 H   0  0  0  0  0  0
  -27.9220  -22.2053   22.4432 H   0  0  0  0  0  0
  -28.9931  -23.6016   22.4738 H   0  0  0  0  0  0
  -27.7026  -18.2732   17.3245 H   0  0  0  0  0  0
  -27.3744  -17.0774   18.5923 H   0  0  0  0  0  0
  -28.9312  -17.0628   17.7482 H   0  0  0  0  0  0
  -27.0202  -23.8346   20.4109 H   0  0  0  0  0  0
  -27.9614  -23.9481   18.9822 H   0  0  0  0  0  0
  -28.7123  -16.3213   21.0279 H   0  0  0  0  0  0
  1 25  1  0  0  0
  1 30  2  0  0  0
  1 81  1  0  0  0
  2  3  1  0  0  0
  2 25  1  0  0  0
  2 82  1  0  0  0
  2 83  1  0  0  0
  3  4  1  0  0  0
  3 84  1  0  0  0
  3 85  1  0  0  0
  4  5  1  0  0  0
  4 86  1  0  0  0
  4 87  1  0  0  0
  5  6  1  0  0  0
  5 26  1  0  0  0
  5 88  1  0  0  0
  6 25  1  0  0  0
  6 89  1  0  0  0
  6 90  1  0  0  0
  7  8  2  0  0  0
  7 26  1  0  0  0
  7 29  1  0  0  0
  8  9  1  0  0  0
  8 22  1  0  0  0
  9 10  1  0  0  0
  9 27  2  0  0  0
 10 11  2  0  0  0
 10 15  1  0  0  0
 11 12  1  0  0  0
 11 91  1  0  0  0
 12 13  2  0  0  0
 12 92  1  0  0  0
 13 14  1  0  0  0
 13 31  1  0  0  0
 14 15  2  0  0  0
 14 93  1  0  0  0
 15 94  1  0  0  0
 16 17  2  0  0  0
 16 21  1  0  0  0
 16 31  1  0  0  0
 17 18  1  0  0  0
 17 95  1  0  0  0
 18 19  2  0  0  0
 18 96  1  0  0  0
 19 20  1  0  0  0
 19 24  1  0  0  0
 20 21  2  0  0  0
 20 97  1  0  0  0
 21 23  1  0  0  0
 22 28  1  0  0  0
 22 32  2  0  0  0
 26 27  1  0  0  0
 28 98  1  0  0  0
 28 99  1  0  0  0
 29100  1  0  0  0
 29101  1  0  0  0
 33 34  1  0  0  0
 33 66  1  0  0  0
 33 70  2  0  0  0
 34 36  1  0  0  0
 34 59  1  0  0  0
 34102  1  0  0  0
 35 44  2  0  0  0
 35 45  1  0  0  0
 35 68  1  0  0  0
 36 56  1  0  0  0
 36103  1  0  0  0
 37 39  1  0  0  0
 37 47  1  0  0  0
 37 66  1  0  0  0
 37104  1  0  0  0
 38 43  2  0  0  0
 38 46  1  0  0  0
 38 47  1  0  0  0
 39 64  1  0  0  0
 39 67  2  0  0  0
 40 52  1  0  0  0
 40 53  2  0  0  0
 40 58  1  0  0  0
 41105  1  0  0  0
 41106  1  0  0  0
 41107  1  0  0  0
 41 48  1  0  0  0
 42 43  1  0  0  0
 42 66  1  0  0  0
 42108  1  0  0  0
 42109  1  0  0  0
 43 44  1  0  0  0
 44110  1  0  0  0
 45 46  2  0  0  0
 45111  1  0  0  0
 46112  1  0  0  0
 47113  1  0  0  0
 47114  1  0  0  0
 48 56  1  0  0  0
 48 65  1  0  0  0
 48115  1  0  0  0
 49 50  1  0  0  0
 49 53  1  0  0  0
 49 64  1  0  0  0
 49116  1  0  0  0
 50 51  1  0  0  0
 50117  1  0  0  0
 50118  1  0  0  0
 51 52  1  0  0  0
 51119  1  0  0  0
 51120  1  0  0  0
 52121  1  0  0  0
 52122  1  0  0  0
 53 54  1  0  0  0
 54 55  2  0  0  0
 54123  1  0  0  0
 55 57  1  0  0  0
 55124  1  0  0  0
 56 69  2  0  0  0
 57 58  2  0  0  0
 57125  1  0  0  0
 58126  1  0  0  0
 59 60  1  0  0  0
 59 61  1  0  0  0
 59 62  1  0  0  0
 60127  1  0  0  0
 60128  1  0  0  0
 60129  1  0  0  0
 61130  1  0  0  0
 61131  1  0  0  0
 61132  1  0  0  0
 62133  1  0  0  0
 62134  1  0  0  0
 62135  1  0  0  0
 63 65  1  0  0  0
 63136  1  0  0  0
 63137  1  0  0  0
 63138  1  0  0  0
 64139  1  0  0  0
 65140  1  0  0  0
 68 78  1  0  0  0
 71 73  1  0  0  0
 71 74  2  0  0  0
 71141  1  0  0  0
 72 73  2  0  0  0
 72 80  1  0  0  0
 72142  1  0  0  0
 73 79  1  0  0  0
 74 80  1  0  0  0
 74 81  1  0  0  0
 75143  1  0  0  0
 75144  1  0  0  0
 75145  1  0  0  0
 75 79  1  0  0  0
 76 79  1  0  0  0
 76146  1  0  0  0
 76147  1  0  0  0
 76148  1  0  0  0
 77 80  1  0  0  0
 77149  1  0  0  0
 77150  1  0  0  0
 77151  1  0  0  0
 78 79  1  0  0  0
 78152  1  0  0  0
 78153  1  0  0  0
 81154  1  0  0  0
M  ISO  4   1 100  68 101  78 101  81 100
M  END
> <chiral flag>
0

> <version>
0

> <s_m_source_file>
/data/baiqing/PycharmProjects/Reinvent-master-3.2/result/LINK_invent/BTK/process_docking_weight1_custom_sum_contain_oxygen_bond_distance_aromatic_linkinvent_7_9_3/rearranged_h_0082.sdf

> <i_m_source_file_index>
79

> <r_mmod_Potential_Energy-OPLS-2005>
1568.44543457031

> <r_mmod_Stretch_Energy-OPLS-2005>
701.145568847656

> <r_mmod_Bend_Energy-OPLS-2005>
515.303527832031

> <r_mmod_Torsional_Energy-OPLS-2005>
251.807586669922

> <r_mmod_Improper_Torsional_Energy-OPLS-2005>
6.69251728057861

> <r_mmod_Van_der_Waal_Energy-OPLS-2005>
100.014617919922

> <r_mmod_Electrostatic_Energy-OPLS-2005>
-388.230072021484

> <r_mmod_Solvation_Energy-OPLS-2005>
-214.890548706055

> <b_mmod_Minimization_Converged-OPLS-2005>
0

> <r_mmod_RMS_Derivative-OPLS-2005>
2.6801164150238

$$$$
80
                    3D
 Structure written by MMmdl.
167175  0  0  1  0            999 V2000
  -30.4086  -15.2999   20.3555 C   0  0  0  0  0  0
  -30.4398  -12.8388   19.5061 C   0  0  0  0  0  0
  -29.5313  -12.5663   18.2827 C   0  0  0  0  0  0
  -28.0853  -12.2810   18.7248 C   0  0  0  0  0  0
  -27.6052  -13.2684   19.8137 C   0  0  2  0  0  0
  -28.6415  -13.4661   20.9361 C   0  0  0  0  0  0
  -25.2384  -13.8234   20.5767 C   0  0  0  0  0  0
  -24.1732  -13.0441   20.9288 C   0  0  0  0  0  0
  -24.6368  -11.6935   20.8775 C   0  0  0  0  0  0
  -23.9065  -10.4293   21.0429 C   0  0  0  0  0  0
  -24.3613   -9.4206   21.9200 C   0  0  0  0  0  0
  -23.6291   -8.2226   22.0747 C   0  0  0  0  0  0
  -22.4270   -8.0271   21.3537 C   0  0  0  0  0  0
  -21.9917   -9.0248   20.4638 C   0  0  0  0  0  0
  -22.7245  -10.2134   20.3069 C   0  0  0  0  0  0
  -21.6854   -6.0743   22.5268 C   0  0  0  0  0  0
  -21.4022   -6.5649   23.8208 C   0  0  0  0  0  0
  -21.3653   -5.6797   24.9175 C   0  0  0  0  0  0
  -21.6039   -4.3057   24.7221 C   0  0  0  0  0  0
  -21.8825   -3.8151   23.4354 C   0  0  0  0  0  0
  -21.9196   -4.6965   22.3400 C   0  0  0  0  0  0
  -22.7753  -13.5191   21.1925 C   0  0  0  0  0  0
  -22.1666   -4.2160   21.0977 F   0  0  0  0  0  0
  -21.5618   -3.4536   25.7735 F   0  0  0  0  0  0
  -29.8552  -13.9893   20.2859 N   0  0  0  0  0  0
  -26.2785  -12.9488   20.3202 N   0  0  0  0  0  0
  -25.9302  -11.6596   20.5732 N   0  0  0  0  0  0
  -22.0386  -12.8182   22.0463 N   0  0  0  0  0  0
  -25.4041  -15.1976   20.4203 N   0  0  0  0  0  0
  -31.6429  -15.2906   20.2425 O   0  0  0  0  0  0
  -21.6638   -6.8879   21.4225 O   0  0  0  0  0  0
  -22.3448  -14.5498   20.6751 O   0  0  0  0  0  0
  -24.6685  -31.8232   23.1671 C   0  0  0  0  0  0
  -25.9339  -32.4594   23.8164 C   0  0  1  0  0  0
  -27.2204  -26.9200   20.1564 C   0  0  0  0  0  0
  -25.5962  -33.8401   24.2072 N   0  0  0  0  0  0
  -23.4836  -30.4297   21.5208 C   0  0  2  0  0  0
  -24.9293  -28.8146   20.1002 C   0  0  0  0  0  0
  -22.7714  -29.4408   22.4808 C   0  0  0  0  0  0
  -18.0327  -28.1384   22.8454 C   0  0  0  0  0  0
  -24.1510  -36.7216   23.2650 C   0  0  0  0  0  0
  -26.0523  -30.6187   21.4007 C   0  0  0  0  0  0
  -26.1145  -29.2109   20.7339 C   0  0  0  0  0  0
  -27.2498  -28.2841   20.7370 C   0  0  0  0  0  0
  -26.0087  -26.6743   19.4686 C   0  0  0  0  0  0
  -24.9039  -27.5667   19.4480 C   0  0  0  0  0  0
  -23.7178  -29.7459   20.1447 C   0  0  0  0  0  0
  -25.4138  -36.2984   24.0318 C   0  0  1  0  0  0
  -20.5959  -28.3739   23.1168 C   0  0  2  0  0  0
  -20.6813  -26.9406   22.5424 C   0  0  0  0  0  0
  -19.5790  -26.6339   21.5221 C   0  0  0  0  0  0
  -18.1965  -26.7918   22.1602 C   0  0  0  0  0  0
  -19.1585  -28.8889   23.2797 C   0  0  0  0  0  0
  -18.9492  -30.1482   23.8835 C   0  0  0  0  0  0
  -17.6491  -30.6582   24.0532 C   0  0  0  0  0  0
  -25.9099  -34.9362   23.5019 C   0  0  0  0  0  0
  -16.5378  -29.9064   23.6333 C   0  0  0  0  0  0
  -16.7308  -28.6485   23.0356 C   0  0  0  0  0  0
  -26.4545  -31.6521   25.0709 C   0  0  0  0  0  0
  -25.3630  -31.3744   26.1349 C   0  0  0  0  0  0
  -27.0484  -30.2893   24.6476 C   0  0  0  0  0  0
  -27.6032  -32.4370   25.7486 C   0  0  0  0  0  0
  -27.5584  -37.1759   24.8459 C   0  0  0  0  0  0
  -21.4385  -29.3039   22.3558 N   0  0  0  0  0  0
  -26.4295  -37.3707   23.9405 N   0  0  0  0  0  0
  -24.7565  -30.9849   22.0823 N   0  0  0  0  0  0
  -23.4240  -28.7962   23.3059 O   0  0  0  0  0  0
  -28.2364  -25.8359   20.3035 O   0  0  0  0  0  0
  -26.5743  -34.8911   22.4639 O   0  0  0  0  0  0
  -23.5747  -32.1229   23.6743 O   0  0  0  0  0  0
  -26.8634  -22.1890   22.8735 C   0  0  0  0  0  0
  -27.5329  -23.1227   22.0710 C   0  0  0  0  0  0
  -28.2088  -22.7581   20.8498 C   0  0  0  0  0  0
  -26.8682  -20.8548   22.5200 C   0  0  0  0  0  0
  -28.4440  -21.1614   20.7762 C   0  0  0  0  0  0
  -27.4144  -24.5463   22.5928 C   0  0  0  0  0  0
  -25.9893  -19.8483   23.2304 C   0  0  0  0  0  0
  -29.9844  -22.9983   18.3169 C   0  0  0  0  0  0
  -28.5011  -19.5056   18.6447 C   0  0  0  0  0  0
  -29.9647  -18.3391   22.1769 C   0  0  0  0  0  0
  -29.6195  -24.2814   19.0606 C   0  0  0  0  0  0
  -28.3234  -24.2265   19.8843 C   0  0  2  0  0  0
  -29.2172  -19.8094   19.9707 C   0  0  2  0  0  0
  -29.8588  -18.2211   20.6477 C   0  0  2  0  0  0
  -27.6495  -20.3912   21.5502 N   0  0  0  0  0  0
  -29.6338  -16.5775   20.3514 N   0  0  0  0  0  0
  -31.4470  -13.0713   19.1586 H   0  0  0  0  0  0
  -30.5386  -11.9498   20.1305 H   0  0  0  0  0  0
  -29.9180  -11.7304   17.6983 H   0  0  0  0  0  0
  -29.5429  -13.4360   17.6251 H   0  0  0  0  0  0
  -28.0574  -11.2660   19.1191 H   0  0  0  0  0  0
  -27.4122  -12.2896   17.8686 H   0  0  0  0  0  0
  -27.5133  -14.2246   19.2990 H   0  0  0  0  0  0
  -28.8272  -12.5407   21.4837 H   0  0  0  0  0  0
  -28.2757  -14.1878   21.6676 H   0  0  0  0  0  0
  -25.2745   -9.5697   22.4790 H   0  0  0  0  0  0
  -24.0012   -7.4631   22.7458 H   0  0  0  0  0  0
  -21.0856   -8.8768   19.8935 H   0  0  0  0  0  0
  -22.3691  -10.9683   19.6186 H   0  0  0  0  0  0
  -21.2017   -7.6158   23.9725 H   0  0  0  0  0  0
  -21.1465   -6.0522   25.9083 H   0  0  0  0  0  0
  -22.0605   -2.7610   23.2839 H   0  0  0  0  0  0
  -22.4012  -11.9874   22.4889 H   0  0  0  0  0  0
  -21.0991  -13.1183   22.2623 H   0  0  0  0  0  0
  -24.6351  -15.8489   20.5478 H   0  0  0  0  0  0
  -26.2463  -15.6369   20.0723 H   0  0  0  0  0  0
  -26.7431  -32.5124   23.0898 H   0  0  0  0  0  0
  -25.0009  -33.9414   25.0169 H   0  0  0  0  0  0
  -22.7987  -31.2624   21.3546 H   0  0  0  0  0  0
  -23.3786  -35.9524   23.3284 H   0  0  0  0  0  0
  -24.3561  -36.8915   22.2059 H   0  0  0  0  0  0
  -23.7260  -37.6387   23.6739 H   0  0  0  0  0  0
  -26.2500  -31.3602   20.6247 H   0  0  0  0  0  0
  -26.9025  -30.6535   22.0687 H   0  0  0  0  0  0
  -28.1464  -28.5748   21.2675 H   0  0  0  0  0  0
  -25.8714  -25.7167   18.9875 H   0  0  0  0  0  0
  -24.0018  -27.2596   18.9336 H   0  0  0  0  0  0
  -23.8741  -30.5216   19.3941 H   0  0  0  0  0  0
  -22.8245  -29.2075   19.8250 H   0  0  0  0  0  0
  -25.1343  -36.1784   25.0810 H   0  0  0  0  0  0
  -21.0028  -28.3364   24.1281 H   0  0  0  0  0  0
  -20.5745  -26.2334   23.3678 H   0  0  0  0  0  0
  -21.6664  -26.7438   22.1177 H   0  0  0  0  0  0
  -19.6960  -25.6239   21.1272 H   0  0  0  0  0  0
  -19.6718  -27.3134   20.6738 H   0  0  0  0  0  0
  -17.4263  -26.6693   21.3979 H   0  0  0  0  0  0
  -18.0309  -26.0076   22.8992 H   0  0  0  0  0  0
  -19.7974  -30.7291   24.2187 H   0  0  0  0  0  0
  -17.5041  -31.6240   24.5151 H   0  0  0  0  0  0
  -15.5378  -30.2929   23.7695 H   0  0  0  0  0  0
  -15.8700  -28.0777   22.7096 H   0  0  0  0  0  0
  -24.5822  -30.7105   25.7617 H   0  0  0  0  0  0
  -24.8771  -32.2926   26.4661 H   0  0  0  0  0  0
  -25.7802  -30.8949   27.0217 H   0  0  0  0  0  0
  -26.3166  -29.6514   24.1520 H   0  0  0  0  0  0
  -27.4017  -29.7334   25.5160 H   0  0  0  0  0  0
  -27.9106  -30.4044   23.9912 H   0  0  0  0  0  0
  -27.2592  -33.3736   26.1893 H   0  0  0  0  0  0
  -28.3871  -32.6847   25.0312 H   0  0  0  0  0  0
  -28.0696  -31.8638   26.5509 H   0  0  0  0  0  0
  -28.2591  -38.0084   24.7552 H   0  0  0  0  0  0
  -28.1129  -36.2608   24.6271 H   0  0  0  0  0  0
  -27.2308  -37.1369   25.8872 H   0  0  0  0  0  0
  -20.9699  -29.8695   21.6619 H   0  0  0  0  0  0
  -26.0185  -38.2793   24.1369 H   0  0  0  0  0  0
  -26.2842  -22.5091   23.7301 H   0  0  0  0  0  0
  -27.1327  -24.5511   23.6455 H   0  0  0  0  0  0
  -26.6267  -25.0914   22.0720 H   0  0  0  0  0  0
  -28.3687  -25.0732   22.5495 H   0  0  0  0  0  0
  -24.9794  -20.2511   23.3126 H   0  0  0  0  0  0
  -26.3585  -19.6418   24.2344 H   0  0  0  0  0  0
  -25.9247  -18.9075   22.6795 H   0  0  0  0  0  0
  -30.7017  -23.2042   17.5209 H   0  0  0  0  0  0
  -29.1096  -22.5301   17.8679 H   0  0  0  0  0  0
  -30.4529  -22.2964   19.0016 H   0  0  0  0  0  0
  -28.3772  -20.4024   18.0402 H   0  0  0  0  0  0
  -27.5089  -19.0922   18.8150 H   0  0  0  0  0  0
  -29.0702  -18.7878   18.0535 H   0  0  0  0  0  0
  -30.3746  -19.3055   22.4660 H   0  0  0  0  0  0
  -30.6158  -17.5737   22.5961 H   0  0  0  0  0  0
  -28.9896  -18.2384   22.6519 H   0  0  0  0  0  0
  -29.5316  -25.0948   18.3376 H   0  0  0  0  0  0
  -30.4492  -24.5538   19.7152 H   0  0  0  0  0  0
  -27.5155  -24.0959   19.1636 H   0  0  0  0  0  0
  -30.1534  -20.2743   19.6714 H   0  0  0  0  0  0
  -30.8923  -18.2861   20.3052 H   0  0  0  0  0  0
  -28.6486  -16.3714   20.2569 H   0  0  0  0  0  0
  1 25  1  0  0  0
  1 30  2  0  0  0
  1 86  1  0  0  0
  2  3  1  0  0  0
  2 25  1  0  0  0
  2 87  1  0  0  0
  2 88  1  0  0  0
  3  4  1  0  0  0
  3 89  1  0  0  0
  3 90  1  0  0  0
  4  5  1  0  0  0
  4 91  1  0  0  0
  4 92  1  0  0  0
  5  6  1  0  0  0
  5 26  1  0  0  0
  5 93  1  0  0  0
  6 25  1  0  0  0
  6 94  1  0  0  0
  6 95  1  0  0  0
  7  8  2  0  0  0
  7 26  1  0  0  0
  7 29  1  0  0  0
  8  9  1  0  0  0
  8 22  1  0  0  0
  9 10  1  0  0  0
  9 27  2  0  0  0
 10 11  2  0  0  0
 10 15  1  0  0  0
 11 12  1  0  0  0
 11 96  1  0  0  0
 12 13  2  0  0  0
 12 97  1  0  0  0
 13 14  1  0  0  0
 13 31  1  0  0  0
 14 15  2  0  0  0
 14 98  1  0  0  0
 15 99  1  0  0  0
 16 17  2  0  0  0
 16 21  1  0  0  0
 16 31  1  0  0  0
 17 18  1  0  0  0
 17100  1  0  0  0
 18 19  2  0  0  0
 18101  1  0  0  0
 19 20  1  0  0  0
 19 24  1  0  0  0
 20 21  2  0  0  0
 20102  1  0  0  0
 21 23  1  0  0  0
 22 28  1  0  0  0
 22 32  2  0  0  0
 26 27  1  0  0  0
 28103  1  0  0  0
 28104  1  0  0  0
 29105  1  0  0  0
 29106  1  0  0  0
 33 34  1  0  0  0
 33 66  1  0  0  0
 33 70  2  0  0  0
 34 36  1  0  0  0
 34 59  1  0  0  0
 34107  1  0  0  0
 35 44  2  0  0  0
 35 45  1  0  0  0
 35 68  1  0  0  0
 36 56  1  0  0  0
 36108  1  0  0  0
 37 39  1  0  0  0
 37 47  1  0  0  0
 37 66  1  0  0  0
 37109  1  0  0  0
 38 43  2  0  0  0
 38 46  1  0  0  0
 38 47  1  0  0  0
 39 64  1  0  0  0
 39 67  2  0  0  0
 40 52  1  0  0  0
 40 53  2  0  0  0
 40 58  1  0  0  0
 41110  1  0  0  0
 41111  1  0  0  0
 41112  1  0  0  0
 41 48  1  0  0  0
 42 43  1  0  0  0
 42 66  1  0  0  0
 42113  1  0  0  0
 42114  1  0  0  0
 43 44  1  0  0  0
 44115  1  0  0  0
 45 46  2  0  0  0
 45116  1  0  0  0
 46117  1  0  0  0
 47118  1  0  0  0
 47119  1  0  0  0
 48 56  1  0  0  0
 48 65  1  0  0  0
 48120  1  0  0  0
 49 50  1  0  0  0
 49 53  1  0  0  0
 49 64  1  0  0  0
 49121  1  0  0  0
 50 51  1  0  0  0
 50122  1  0  0  0
 50123  1  0  0  0
 51 52  1  0  0  0
 51124  1  0  0  0
 51125  1  0  0  0
 52126  1  0  0  0
 52127  1  0  0  0
 53 54  1  0  0  0
 54 55  2  0  0  0
 54128  1  0  0  0
 55 57  1  0  0  0
 55129  1  0  0  0
 56 69  2  0  0  0
 57 58  2  0  0  0
 57130  1  0  0  0
 58131  1  0  0  0
 59 60  1  0  0  0
 59 61  1  0  0  0
 59 62  1  0  0  0
 60132  1  0  0  0
 60133  1  0  0  0
 60134  1  0  0  0
 61135  1  0  0  0
 61136  1  0  0  0
 61137  1  0  0  0
 62138  1  0  0  0
 62139  1  0  0  0
 62140  1  0  0  0
 63 65  1  0  0  0
 63141  1  0  0  0
 63142  1  0  0  0
 63143  1  0  0  0
 64144  1  0  0  0
 65145  1  0  0  0
 68 82  1  0  0  0
 71 72  2  0  0  0
 71 74  1  0  0  0
 71146  1  0  0  0
 72 73  1  0  0  0
 72 76  1  0  0  0
 73 75  2  0  0  0
 73 82  1  0  0  0
 74 77  1  0  0  0
 74 85  2  0  0  0
 75 83  1  0  0  0
 75 85  1  0  0  0
 76147  1  0  0  0
 76148  1  0  0  0
 76149  1  0  0  0
 77150  1  0  0  0
 77151  1  0  0  0
 77152  1  0  0  0
 78 81  1  0  0  0
 78153  1  0  0  0
 78154  1  0  0  0
 78155  1  0  0  0
 79156  1  0  0  0
 79157  1  0  0  0
 79158  1  0  0  0
 79 83  1  0  0  0
 80159  1  0  0  0
 80160  1  0  0  0
 80161  1  0  0  0
 80 84  1  0  0  0
 81162  1  0  0  0
 81163  1  0  0  0
 81 82  1  0  0  0
 82164  1  0  0  0
 83 84  1  0  0  0
 83165  1  0  0  0
 84 86  1  0  0  0
 84166  1  0  0  0
 86167  1  0  0  0
M  ISO  4   1 100  68 101  82 101  86 100
M  END
> <chiral flag>
0

> <version>
0

> <s_m_source_file>
/data/baiqing/PycharmProjects/Reinvent-master-3.2/result/LINK_invent/BTK/process_docking_weight1_custom_sum_contain_oxygen_bond_distance_aromatic_linkinvent_7_9_3/rearranged_h_0082.sdf

> <i_m_source_file_index>
80

> <r_mmod_Potential_Energy-OPLS-2005>
1497.01159667969

> <r_mmod_Stretch_Energy-OPLS-2005>
698.388549804688

> <r_mmod_Bend_Energy-OPLS-2005>
605.863952636719

> <r_mmod_Torsional_Energy-OPLS-2005>
261.159484863281

> <r_mmod_Improper_Torsional_Energy-OPLS-2005>
5.77583169937134

> <r_mmod_Van_der_Waal_Energy-OPLS-2005>
126.170181274414

> <r_mmod_Electrostatic_Energy-OPLS-2005>
-487.442749023438

> <r_mmod_Solvation_Energy-OPLS-2005>
-202.973297119141

> <b_mmod_Minimization_Converged-OPLS-2005>
0

> <r_mmod_RMS_Derivative-OPLS-2005>
4.56582546234131

$$$$
81
                    3D
 Structure written by MMmdl.
175183  0  0  1  0            999 V2000
  -30.6122  -14.6797   20.4996 C   0  0  0  0  0  0
  -30.4385  -12.4075   19.4985 C   0  0  0  0  0  0
  -29.5251  -12.5125   18.2526 C   0  0  0  0  0  0
  -28.0436  -12.3531   18.6471 C   0  0  0  0  0  0
  -27.6551  -13.2260   19.8698 C   0  0  2  0  0  0
  -28.6911  -13.0987   21.0137 C   0  0  0  0  0  0
  -25.2542  -13.8190   20.5676 C   0  0  0  0  0  0
  -24.1806  -13.0452   20.9169 C   0  0  0  0  0  0
  -24.6372  -11.6921   20.8704 C   0  0  0  0  0  0
  -23.9044  -10.4287   21.0361 C   0  0  0  0  0  0
  -24.3587   -9.4216   21.9144 C   0  0  0  0  0  0
  -23.6279   -8.2241   22.0743 C   0  0  0  0  0  0
  -22.4253   -8.0265   21.3544 C   0  0  0  0  0  0
  -21.9885   -9.0225   20.4648 C   0  0  0  0  0  0
  -22.7205  -10.2105   20.3042 C   0  0  0  0  0  0
  -21.6857   -6.0700   22.5258 C   0  0  0  0  0  0
  -21.4021   -6.5612   23.8183 C   0  0  0  0  0  0
  -21.3666   -5.6776   24.9148 C   0  0  0  0  0  0
  -21.6054   -4.3040   24.7215 C   0  0  0  0  0  0
  -21.8807   -3.8122   23.4341 C   0  0  0  0  0  0
  -21.9198   -4.6928   22.3391 C   0  0  0  0  0  0
  -22.7820  -13.5238   21.1824 C   0  0  0  0  0  0
  -22.1658   -4.2115   21.0969 F   0  0  0  0  0  0
  -21.5647   -3.4537   25.7741 F   0  0  0  0  0  0
  -30.0133  -13.4413   20.4682 N   0  0  0  0  0  0
  -26.2989  -12.9395   20.3323 N   0  0  0  0  0  0
  -25.9314  -11.6540   20.5732 N   0  0  0  0  0  0
  -22.0468  -12.8240   22.0398 N   0  0  0  0  0  0
  -25.4259  -15.1898   20.4031 N   0  0  0  0  0  0
  -31.7294  -14.8504   20.0053 O   0  0  0  0  0  0
  -21.6647   -6.8848   21.4219 O   0  0  0  0  0  0
  -22.3487  -14.5526   20.6651 O   0  0  0  0  0  0
  -24.6286  -31.8580   23.2020 C   0  0  0  0  0  0
  -25.9124  -32.4766   23.8356 C   0  0  1  0  0  0
  -27.2276  -27.3031   20.1097 C   0  0  0  0  0  0
  -25.5927  -33.8568   24.2287 N   0  0  0  0  0  0
  -23.4229  -30.4829   21.5436 C   0  0  2  0  0  0
  -24.8677  -28.9373   20.1067 C   0  0  0  0  0  0
  -22.7480  -29.4624   22.4916 C   0  0  0  0  0  0
  -18.0292  -28.1387   22.8485 C   0  0  0  0  0  0
  -24.1485  -36.7294   23.2635 C   0  0  0  0  0  0
  -25.9661  -30.7828   21.3762 C   0  0  0  0  0  0
  -26.0368  -29.4107   20.7138 C   0  0  0  0  0  0
  -27.2137  -28.6039   20.7085 C   0  0  0  0  0  0
  -26.0231  -26.8745   19.5037 C   0  0  0  0  0  0
  -24.8641  -27.6736   19.4966 C   0  0  0  0  0  0
  -23.6382  -29.8214   20.1571 C   0  0  0  0  0  0
  -25.4107  -36.3078   24.0329 C   0  0  1  0  0  0
  -20.5888  -28.3695   23.1269 C   0  0  2  0  0  0
  -20.6779  -26.9418   22.5404 C   0  0  0  0  0  0
  -19.5758  -26.6389   21.5206 C   0  0  0  0  0  0
  -18.1937  -26.7933   22.1620 C   0  0  0  0  0  0
  -19.1540  -28.8860   23.2875 C   0  0  0  0  0  0
  -18.9462  -30.1459   23.8893 C   0  0  0  0  0  0
  -17.6462  -30.6591   24.0564 C   0  0  0  0  0  0
  -25.9043  -34.9447   23.5109 C   0  0  0  0  0  0
  -16.5358  -29.9087   23.6330 C   0  0  0  0  0  0
  -16.7281  -28.6508   23.0352 C   0  0  0  0  0  0
  -26.4501  -31.6585   25.0740 C   0  0  0  0  0  0
  -25.3729  -31.3746   26.1472 C   0  0  0  0  0  0
  -27.0340  -30.2999   24.6227 C   0  0  0  0  0  0
  -27.6068  -32.4318   25.7500 C   0  0  0  0  0  0
  -27.5583  -37.1794   24.8459 C   0  0  0  0  0  0
  -21.4194  -29.3048   22.3658 N   0  0  0  0  0  0
  -26.4287  -37.3772   23.9414 N   0  0  0  0  0  0
  -24.6914  -31.0580   22.0976 N   0  0  0  0  0  0
  -23.4203  -28.8158   23.2995 O   0  0  0  0  0  0
  -28.3559  -26.4655   20.1943 O   0  0  0  0  0  0
  -26.5614  -34.8912   22.4677 O   0  0  0  0  0  0
  -23.5445  -32.1386   23.7338 O   0  0  0  0  0  0
  -30.0370  -23.0819   19.7263 C   0  0  0  0  0  0
  -27.9708  -21.8370   20.9245 C   0  0  0  0  0  0
  -28.8313  -23.8237   19.9707 C   0  0  0  0  0  0
  -29.1633  -21.0803   20.6446 C   0  0  0  0  0  0
  -25.7816  -20.5751   20.6828 C   0  0  0  0  0  0
  -33.1594  -25.3325   19.0049 C   0  0  0  0  0  0
  -31.4699  -18.3164   20.0351 C   0  0  0  0  0  0
  -29.4956  -18.8725   18.6335 C   0  0  0  0  0  0
  -26.7695  -21.2432   21.6451 C   0  0  0  0  0  0
  -31.2167  -23.6771   18.9688 C   0  0  0  0  0  0
  -28.5268  -25.2561   19.3532 C   0  0  0  0  0  0
  -32.0204  -24.6859   19.8033 C   0  0  0  0  0  0
  -29.3095  -16.9117   20.1784 C   0  0  0  0  0  0
  -29.4048  -19.5575   21.0866 C   0  0  1  0  0  0
  -29.9275  -18.4096   20.0502 C   0  0  0  0  0  0
  -27.8120  -23.1602   20.5845 N   0  0  0  0  0  0
  -30.2078  -21.7698   20.1017 N   0  0  0  0  0  0
  -29.8711  -15.7400   20.9665 N   0  0  0  0  0  0
  -30.1857  -19.5521   22.3312 N   0  3  0  0  0  0
  -31.4838  -12.5219   19.2088 H   0  0  0  0  0  0
  -30.3665  -11.4182   19.9552 H   0  0  0  0  0  0
  -29.8083  -11.7586   17.5179 H   0  0  0  0  0  0
  -29.6752  -13.4788   17.7690 H   0  0  0  0  0  0
  -27.8745  -11.3007   18.8758 H   0  0  0  0  0  0
  -27.3995  -12.5866   17.7965 H   0  0  0  0  0  0
  -27.6749  -14.2615   19.5262 H   0  0  0  0  0  0
  -28.7034  -12.0812   21.4079 H   0  0  0  0  0  0
  -28.4189  -13.7391   21.8534 H   0  0  0  0  0  0
  -25.2737   -9.5720   22.4712 H   0  0  0  0  0  0
  -23.9996   -7.4650   22.7471 H   0  0  0  0  0  0
  -21.0811   -8.8731   19.8963 H   0  0  0  0  0  0
  -22.3641  -10.9625   19.6143 H   0  0  0  0  0  0
  -21.2013   -7.6116   23.9684 H   0  0  0  0  0  0
  -21.1511   -6.0501   25.9053 H   0  0  0  0  0  0
  -22.0598   -2.7583   23.2842 H   0  0  0  0  0  0
  -22.4093  -11.9911   22.4793 H   0  0  0  0  0  0
  -21.1076  -13.1253   22.2595 H   0  0  0  0  0  0
  -24.6585  -15.8465   20.4897 H   0  0  0  0  0  0
  -26.2700  -15.6132   20.0408 H   0  0  0  0  0  0
  -26.7195  -32.5420   23.1101 H   0  0  0  0  0  0
  -25.0074  -33.9711   25.0436 H   0  0  0  0  0  0
  -22.7180  -31.3046   21.4022 H   0  0  0  0  0  0
  -23.3751  -35.9618   23.3277 H   0  0  0  0  0  0
  -24.3594  -36.8941   22.2056 H   0  0  0  0  0  0
  -23.7231  -37.6486   23.6676 H   0  0  0  0  0  0
  -26.1032  -31.5484   20.6115 H   0  0  0  0  0  0
  -26.8445  -30.8258   22.0092 H   0  0  0  0  0  0
  -28.1104  -28.9625   21.1940 H   0  0  0  0  0  0
  -25.9196  -25.8943   19.0675 H   0  0  0  0  0  0
  -23.9612  -27.2952   19.0369 H   0  0  0  0  0  0
  -23.7636  -30.6019   19.4057 H   0  0  0  0  0  0
  -22.7559  -29.2571   19.8508 H   0  0  0  0  0  0
  -25.1282  -36.1928   25.0819 H   0  0  0  0  0  0
  -20.9992  -28.3274   24.1386 H   0  0  0  0  0  0
  -20.5684  -26.2299   23.3600 H   0  0  0  0  0  0
  -21.6645  -26.7451   22.1190 H   0  0  0  0  0  0
  -19.6913  -25.6299   21.1238 H   0  0  0  0  0  0
  -19.6692  -27.3192   20.6730 H   0  0  0  0  0  0
  -17.4200  -26.6683   21.4029 H   0  0  0  0  0  0
  -18.0342  -26.0084   22.9027 H   0  0  0  0  0  0
  -19.7931  -30.7282   24.2259 H   0  0  0  0  0  0
  -17.5014  -31.6270   24.5167 H   0  0  0  0  0  0
  -15.5358  -30.2988   23.7658 H   0  0  0  0  0  0
  -15.8679  -28.0831   22.7065 H   0  0  0  0  0  0
  -24.5871  -30.7133   25.7814 H   0  0  0  0  0  0
  -24.8951  -32.2917   26.4926 H   0  0  0  0  0  0
  -25.8035  -30.8899   27.0239 H   0  0  0  0  0  0
  -26.2922  -29.6746   24.1243 H   0  0  0  0  0  0
  -27.4009  -29.7272   25.4757 H   0  0  0  0  0  0
  -27.8809  -30.4279   23.9481 H   0  0  0  0  0  0
  -27.2699  -33.3626   26.2078 H   0  0  0  0  0  0
  -28.3870  -32.6866   25.0316 H   0  0  0  0  0  0
  -28.0744  -31.8441   26.5411 H   0  0  0  0  0  0
  -28.2578  -38.0111   24.7526 H   0  0  0  0  0  0
  -28.1097  -36.2644   24.6245 H   0  0  0  0  0  0
  -27.2311  -37.1400   25.8862 H   0  0  0  0  0  0
  -20.9364  -29.8772   21.6873 H   0  0  0  0  0  0
  -26.0167  -38.2842   24.1431 H   0  0  0  0  0  0
  -24.9243  -20.1767   21.2264 H   0  0  0  0  0  0
  -26.2456  -19.7481   20.1440 H   0  0  0  0  0  0
  -25.4096  -21.2885   19.9463 H   0  0  0  0  0  0
  -33.7299  -26.0214   19.6297 H   0  0  0  0  0  0
  -32.7743  -25.8997   18.1557 H   0  0  0  0  0  0
  -33.8497  -24.5804   18.6194 H   0  0  0  0  0  0
  -31.8192  -17.6738   19.2270 H   0  0  0  0  0  0
  -31.8727  -17.9007   20.9579 H   0  0  0  0  0  0
  -31.9228  -19.2969   19.8793 H   0  0  0  0  0  0
  -29.8097  -18.1729   17.8568 H   0  0  0  0  0  0
  -29.9247  -19.8325   18.3505 H   0  0  0  0  0  0
  -28.4104  -18.9655   18.5592 H   0  0  0  0  0  0
  -26.2558  -22.0410   22.1849 H   0  0  0  0  0  0
  -27.0891  -20.5491   22.4209 H   0  0  0  0  0  0
  -30.8689  -24.1278   18.0394 H   0  0  0  0  0  0
  -31.8818  -22.8718   18.6527 H   0  0  0  0  0  0
  -27.7333  -25.1168   18.6261 H   0  0  0  0  0  0
  -29.3631  -25.5301   18.7177 H   0  0  0  0  0  0
  -31.3597  -25.4712   20.1725 H   0  0  0  0  0  0
  -32.4222  -24.1897   20.6868 H   0  0  0  0  0  0
  -29.2139  -16.4968   19.1755 H   0  0  0  0  0  0
  -28.2725  -17.0182   20.5029 H   0  0  0  0  0  0
  -28.4186  -19.1986   21.3715 H   0  0  0  0  0  0
  -29.1959  -15.4109   21.6426 H   0  0  0  0  0  0
  -31.1287  -19.8357   22.1357 H   0  0  0  0  0  0
  -30.1906  -18.6380   22.7460 H   0  0  0  0  0  0
  -29.7957  -20.2034   22.9867 H   0  0  0  0  0  0
  1 25  1  0  0  0
  1 30  2  0  0  0
  1 88  1  0  0  0
  2  3  1  0  0  0
  2 25  1  0  0  0
  2 90  1  0  0  0
  2 91  1  0  0  0
  3  4  1  0  0  0
  3 92  1  0  0  0
  3 93  1  0  0  0
  4  5  1  0  0  0
  4 94  1  0  0  0
  4 95  1  0  0  0
  5  6  1  0  0  0
  5 26  1  0  0  0
  5 96  1  0  0  0
  6 25  1  0  0  0
  6 97  1  0  0  0
  6 98  1  0  0  0
  7  8  2  0  0  0
  7 26  1  0  0  0
  7 29  1  0  0  0
  8  9  1  0  0  0
  8 22  1  0  0  0
  9 10  1  0  0  0
  9 27  2  0  0  0
 10 11  2  0  0  0
 10 15  1  0  0  0
 11 12  1  0  0  0
 11 99  1  0  0  0
 12 13  2  0  0  0
 12100  1  0  0  0
 13 14  1  0  0  0
 13 31  1  0  0  0
 14 15  2  0  0  0
 14101  1  0  0  0
 15102  1  0  0  0
 16 17  2  0  0  0
 16 21  1  0  0  0
 16 31  1  0  0  0
 17 18  1  0  0  0
 17103  1  0  0  0
 18 19  2  0  0  0
 18104  1  0  0  0
 19 20  1  0  0  0
 19 24  1  0  0  0
 20 21  2  0  0  0
 20105  1  0  0  0
 21 23  1  0  0  0
 22 28  1  0  0  0
 22 32  2  0  0  0
 26 27  1  0  0  0
 28106  1  0  0  0
 28107  1  0  0  0
 29108  1  0  0  0
 29109  1  0  0  0
 33 34  1  0  0  0
 33 66  1  0  0  0
 33 70  2  0  0  0
 34 36  1  0  0  0
 34 59  1  0  0  0
 34110  1  0  0  0
 35 44  2  0  0  0
 35 45  1  0  0  0
 35 68  1  0  0  0
 36 56  1  0  0  0
 36111  1  0  0  0
 37 39  1  0  0  0
 37 47  1  0  0  0
 37 66  1  0  0  0
 37112  1  0  0  0
 38 43  2  0  0  0
 38 46  1  0  0  0
 38 47  1  0  0  0
 39 64  1  0  0  0
 39 67  2  0  0  0
 40 52  1  0  0  0
 40 53  2  0  0  0
 40 58  1  0  0  0
 41113  1  0  0  0
 41114  1  0  0  0
 41115  1  0  0  0
 41 48  1  0  0  0
 42 43  1  0  0  0
 42 66  1  0  0  0
 42116  1  0  0  0
 42117  1  0  0  0
 43 44  1  0  0  0
 44118  1  0  0  0
 45 46  2  0  0  0
 45119  1  0  0  0
 46120  1  0  0  0
 47121  1  0  0  0
 47122  1  0  0  0
 48 56  1  0  0  0
 48 65  1  0  0  0
 48123  1  0  0  0
 49 50  1  0  0  0
 49 53  1  0  0  0
 49 64  1  0  0  0
 49124  1  0  0  0
 50 51  1  0  0  0
 50125  1  0  0  0
 50126  1  0  0  0
 51 52  1  0  0  0
 51127  1  0  0  0
 51128  1  0  0  0
 52129  1  0  0  0
 52130  1  0  0  0
 53 54  1  0  0  0
 54 55  2  0  0  0
 54131  1  0  0  0
 55 57  1  0  0  0
 55132  1  0  0  0
 56 69  2  0  0  0
 57 58  2  0  0  0
 57133  1  0  0  0
 58134  1  0  0  0
 59 60  1  0  0  0
 59 61  1  0  0  0
 59 62  1  0  0  0
 60135  1  0  0  0
 60136  1  0  0  0
 60137  1  0  0  0
 61138  1  0  0  0
 61139  1  0  0  0
 61140  1  0  0  0
 62141  1  0  0  0
 62142  1  0  0  0
 62143  1  0  0  0
 63 65  1  0  0  0
 63144  1  0  0  0
 63145  1  0  0  0
 63146  1  0  0  0
 64147  1  0  0  0
 65148  1  0  0  0
 68 81  1  0  0  0
 71 73  2  0  0  0
 71 80  1  0  0  0
 71 87  1  0  0  0
 72 74  1  0  0  0
 72 79  1  0  0  0
 72 86  2  0  0  0
 73 81  1  0  0  0
 73 86  1  0  0  0
 74 84  1  0  0  0
 74 87  2  0  0  0
 75 79  1  0  0  0
 75149  1  0  0  0
 75150  1  0  0  0
 75151  1  0  0  0
 76 82  1  0  0  0
 76152  1  0  0  0
 76153  1  0  0  0
 76154  1  0  0  0
 77155  1  0  0  0
 77156  1  0  0  0
 77157  1  0  0  0
 77 85  1  0  0  0
 78 85  1  0  0  0
 78158  1  0  0  0
 78159  1  0  0  0
 78160  1  0  0  0
 79161  1  0  0  0
 79162  1  0  0  0
 80 82  1  0  0  0
 80163  1  0  0  0
 80164  1  0  0  0
 81165  1  0  0  0
 81166  1  0  0  0
 82167  1  0  0  0
 82168  1  0  0  0
 83 85  1  0  0  0
 83 88  1  0  0  0
 83169  1  0  0  0
 83170  1  0  0  0
 84 85  1  0  0  0
 84 89  1  0  0  0
 84171  1  0  0  0
 88172  1  0  0  0
 89173  1  0  0  0
 89174  1  0  0  0
 89175  1  0  0  0
M  CHG  1  89   1
M  ISO  4   1 100  68 101  81 101  88 100
M  END
> <chiral flag>
0

> <version>
0

> <s_m_source_file>
/data/baiqing/PycharmProjects/Reinvent-master-3.2/result/LINK_invent/BTK/process_docking_weight1_custom_sum_contain_oxygen_bond_distance_aromatic_linkinvent_7_9_3/rearranged_h_0082.sdf

> <i_m_source_file_index>
81

> <r_mmod_Potential_Energy-OPLS-2005>
-21.5275421142578

> <r_mmod_Stretch_Energy-OPLS-2005>
115.051559448242

> <r_mmod_Bend_Energy-OPLS-2005>
204.82795715332

> <r_mmod_Torsional_Energy-OPLS-2005>
262.659454345703

> <r_mmod_Improper_Torsional_Energy-OPLS-2005>
9.18270683288574

> <r_mmod_Van_der_Waal_Energy-OPLS-2005>
141.571029663086

> <r_mmod_Electrostatic_Energy-OPLS-2005>
-319.277709960938

> <r_mmod_Solvation_Energy-OPLS-2005>
-495.463500976562

> <b_mmod_Minimization_Converged-OPLS-2005>
0

> <r_mmod_RMS_Derivative-OPLS-2005>
3.02270722389221

$$$$
82
                    3D
 Structure written by MMmdl.
166174  0  0  1  0            999 V2000
  -30.5982  -14.7260   20.4564 C   0  0  0  0  0  0
  -30.4253  -12.4336   19.4910 C   0  0  0  0  0  0
  -29.5128  -12.4980   18.2468 C   0  0  0  0  0  0
  -28.0366  -12.3239   18.6512 C   0  0  0  0  0  0
  -27.6404  -13.2254   19.8527 C   0  0  2  0  0  0
  -28.6760  -13.1558   20.9953 C   0  0  0  0  0  0
  -25.2498  -13.8182   20.5653 C   0  0  0  0  0  0
  -24.1786  -13.0437   20.9178 C   0  0  0  0  0  0
  -24.6358  -11.6911   20.8728 C   0  0  0  0  0  0
  -23.9041  -10.4287   21.0399 C   0  0  0  0  0  0
  -24.3607   -9.4213   21.9179 C   0  0  0  0  0  0
  -23.6298   -8.2243   22.0753 C   0  0  0  0  0  0
  -22.4280   -8.0269   21.3544 C   0  0  0  0  0  0
  -21.9897   -9.0233   20.4644 C   0  0  0  0  0  0
  -22.7213  -10.2118   20.3046 C   0  0  0  0  0  0
  -21.6856   -6.0720   22.5270 C   0  0  0  0  0  0
  -21.4023   -6.5626   23.8197 C   0  0  0  0  0  0
  -21.3665   -5.6794   24.9162 C   0  0  0  0  0  0
  -21.6046   -4.3056   24.7222 C   0  0  0  0  0  0
  -21.8831   -3.8127   23.4350 C   0  0  0  0  0  0
  -21.9199   -4.6943   22.3401 C   0  0  0  0  0  0
  -22.7818  -13.5223   21.1850 C   0  0  0  0  0  0
  -22.1662   -4.2129   21.0979 F   0  0  0  0  0  0
  -21.5630   -3.4541   25.7737 F   0  0  0  0  0  0
  -29.9848  -13.4957   20.4249 N   0  0  0  0  0  0
  -26.2912  -12.9377   20.3255 N   0  0  0  0  0  0
  -25.9291  -11.6527   20.5743 N   0  0  0  0  0  0
  -22.0465  -12.8207   22.0401 N   0  0  0  0  0  0
  -25.4182  -15.1905   20.4039 N   0  0  0  0  0  0
  -31.7761  -14.8380   20.1058 O   0  0  0  0  0  0
  -21.6654   -6.8862   21.4232 O   0  0  0  0  0  0
  -22.3496  -14.5519   20.6688 O   0  0  0  0  0  0
  -24.6292  -31.8535   23.1979 C   0  0  0  0  0  0
  -25.9140  -32.4743   23.8294 C   0  0  1  0  0  0
  -27.2113  -27.2730   20.1583 C   0  0  0  0  0  0
  -25.5941  -33.8541   24.2215 N   0  0  0  0  0  0
  -23.4232  -30.4778   21.5373 C   0  0  2  0  0  0
  -24.8705  -28.9234   20.1104 C   0  0  0  0  0  0
  -22.7493  -29.4596   22.4880 C   0  0  0  0  0  0
  -18.0309  -28.1399   22.8445 C   0  0  0  0  0  0
  -24.1506  -36.7283   23.2644 C   0  0  0  0  0  0
  -25.9652  -30.7776   21.3702 C   0  0  0  0  0  0
  -26.0380  -29.3983   20.7194 C   0  0  0  0  0  0
  -27.2144  -28.5862   20.7315 C   0  0  0  0  0  0
  -26.0253  -26.8570   19.5202 C   0  0  0  0  0  0
  -24.8682  -27.6603   19.4971 C   0  0  0  0  0  0
  -23.6385  -29.8083   20.1536 C   0  0  0  0  0  0
  -25.4124  -36.3049   24.0318 C   0  0  1  0  0  0
  -20.5908  -28.3685   23.1272 C   0  0  2  0  0  0
  -20.6799  -26.9410   22.5407 C   0  0  0  0  0  0
  -19.5784  -26.6384   21.5210 C   0  0  0  0  0  0
  -18.1954  -26.7933   22.1605 C   0  0  0  0  0  0
  -19.1563  -28.8858   23.2851 C   0  0  0  0  0  0
  -18.9487  -30.1462   23.8870 C   0  0  0  0  0  0
  -17.6484  -30.6583   24.0561 C   0  0  0  0  0  0
  -25.9067  -34.9431   23.5070 C   0  0  0  0  0  0
  -16.5370  -29.9082   23.6351 C   0  0  0  0  0  0
  -16.7296  -28.6519   23.0326 C   0  0  0  0  0  0
  -26.4510  -31.6573   25.0685 C   0  0  0  0  0  0
  -25.3717  -31.3736   26.1395 C   0  0  0  0  0  0
  -27.0370  -30.3001   24.6162 C   0  0  0  0  0  0
  -27.6067  -32.4298   25.7455 C   0  0  0  0  0  0
  -27.5569  -37.1790   24.8459 C   0  0  0  0  0  0
  -21.4203  -29.3033   22.3641 N   0  0  0  0  0  0
  -26.4292  -37.3743   23.9402 N   0  0  0  0  0  0
  -24.6908  -31.0546   22.0921 N   0  0  0  0  0  0
  -23.4218  -28.8129   23.2948 O   0  0  0  0  0  0
  -28.3080  -26.3942   20.1800 O   0  0  0  0  0  0
  -26.5632  -34.8923   22.4639 O   0  0  0  0  0  0
  -23.5458  -32.1337   23.7301 O   0  0  0  0  0  0
  -29.5052  -21.5791   18.1230 C   0  0  0  0  0  0
  -29.7512  -20.4914   17.3436 C   0  0  0  0  0  0
  -29.3663  -19.7659   19.4461 C   0  0  0  0  0  0
  -30.0339  -20.3889   15.8813 C   0  0  0  0  0  0
  -28.7256  -25.0601   22.1466 C   0  0  0  0  0  0
  -27.7033  -18.0668   20.2977 C   0  0  0  0  0  0
  -29.3595  -19.0319   21.8925 C   0  0  0  0  0  0
  -28.7287  -23.7693   19.9080 C   0  0  0  0  0  0
  -28.7224  -22.2150   20.4212 C   0  0  0  0  0  0
  -30.1351  -17.2712   20.1678 C   0  0  0  0  0  0
  -28.1265  -25.0115   20.7348 C   0  0  2  0  0  0
  -29.1566  -18.5564   20.4461 C   0  0  0  0  0  0
  -29.1922  -21.1595   19.4009 N   0  0  0  0  0  0
  -29.6648  -19.4224   18.1818 N   0  3  0  0  0  0
  -29.8142  -15.8534   20.6426 N   0  0  0  0  0  0
  -31.4686  -12.5498   19.1941 H   0  0  0  0  0  0
  -30.3567  -11.4564   19.9733 H   0  0  0  0  0  0
  -29.7976  -11.7284   17.5304 H   0  0  0  0  0  0
  -29.6504  -13.4539   17.7393 H   0  0  0  0  0  0
  -27.8890  -11.2747   18.9135 H   0  0  0  0  0  0
  -27.3833  -12.5130   17.7990 H   0  0  0  0  0  0
  -27.6388  -14.2482   19.4765 H   0  0  0  0  0  0
  -28.6952  -12.1615   21.4425 H   0  0  0  0  0  0
  -28.4052  -13.8463   21.7972 H   0  0  0  0  0  0
  -25.2742   -9.5711   22.4774 H   0  0  0  0  0  0
  -24.0002   -7.4638   22.7479 H   0  0  0  0  0  0
  -21.0828   -8.8747   19.8952 H   0  0  0  0  0  0
  -22.3646  -10.9672   19.6175 H   0  0  0  0  0  0
  -21.2007   -7.6141   23.9697 H   0  0  0  0  0  0
  -21.1485   -6.0520   25.9070 H   0  0  0  0  0  0
  -22.0600   -2.7592   23.2859 H   0  0  0  0  0  0
  -22.4097  -11.9882   22.4825 H   0  0  0  0  0  0
  -21.1084  -13.1245   22.2601 H   0  0  0  0  0  0
  -24.6426  -15.8368   20.4972 H   0  0  0  0  0  0
  -26.2509  -15.6266   20.0314 H   0  0  0  0  0  0
  -26.7193  -32.5391   23.1020 H   0  0  0  0  0  0
  -25.0071  -33.9650   25.0347 H   0  0  0  0  0  0
  -22.7179  -31.2981   21.3860 H   0  0  0  0  0  0
  -23.3761  -35.9622   23.3300 H   0  0  0  0  0  0
  -24.3614  -36.8919   22.2065 H   0  0  0  0  0  0
  -23.7293  -37.6496   23.6671 H   0  0  0  0  0  0
  -26.0953  -31.5380   20.5974 H   0  0  0  0  0  0
  -26.8486  -30.8313   21.9964 H   0  0  0  0  0  0
  -28.1083  -28.9399   21.2241 H   0  0  0  0  0  0
  -25.9839  -25.8836   19.0549 H   0  0  0  0  0  0
  -23.9750  -27.2897   19.0143 H   0  0  0  0  0  0
  -23.7529  -30.5809   19.3911 H   0  0  0  0  0  0
  -22.7584  -29.2344   19.8561 H   0  0  0  0  0  0
  -25.1324  -36.1862   25.0810 H   0  0  0  0  0  0
  -20.9998  -28.3264   24.1395 H   0  0  0  0  0  0
  -20.5742  -26.2277   23.3583 H   0  0  0  0  0  0
  -21.6653  -26.7457   22.1172 H   0  0  0  0  0  0
  -19.6968  -25.6305   21.1236 H   0  0  0  0  0  0
  -19.6754  -27.3192   20.6734 H   0  0  0  0  0  0
  -17.4227  -26.6680   21.4011 H   0  0  0  0  0  0
  -18.0352  -26.0097   22.9023 H   0  0  0  0  0  0
  -19.7972  -30.7289   24.2205 H   0  0  0  0  0  0
  -17.5053  -31.6280   24.5157 H   0  0  0  0  0  0
  -15.5376  -30.2968   23.7723 H   0  0  0  0  0  0
  -15.8690  -28.0862   22.7001 H   0  0  0  0  0  0
  -24.5878  -30.7117   25.7686 H   0  0  0  0  0  0
  -24.8939  -32.2925   26.4791 H   0  0  0  0  0  0
  -25.8013  -30.8897   27.0173 H   0  0  0  0  0  0
  -26.2952  -29.6710   24.1217 H   0  0  0  0  0  0
  -27.4123  -29.7295   25.4662 H   0  0  0  0  0  0
  -27.8784  -30.4298   23.9347 H   0  0  0  0  0  0
  -27.2683  -33.3593   26.2028 H   0  0  0  0  0  0
  -28.3869  -32.6860   25.0276 H   0  0  0  0  0  0
  -28.0727  -31.8425   26.5366 H   0  0  0  0  0  0
  -28.2568  -38.0101   24.7482 H   0  0  0  0  0  0
  -28.1094  -36.2626   24.6304 H   0  0  0  0  0  0
  -27.2290  -37.1441   25.8868 H   0  0  0  0  0  0
  -20.9373  -29.8714   21.6819 H   0  0  0  0  0  0
  -26.0175  -38.2819   24.1415 H   0  0  0  0  0  0
  -29.4952  -22.6076   17.8017 H   0  0  0  0  0  0
  -29.4863  -21.1620   15.3399 H   0  0  0  0  0  0
  -29.7209  -19.4203   15.4941 H   0  0  0  0  0  0
  -31.0975  -20.5256   15.6886 H   0  0  0  0  0  0
  -28.5134  -24.1445   22.6983 H   0  0  0  0  0  0
  -28.3086  -25.8872   22.7229 H   0  0  0  0  0  0
  -29.8076  -25.1900   22.1159 H   0  0  0  0  0  0
  -26.9843  -18.8741   20.4434 H   0  0  0  0  0  0
  -27.4674  -17.2891   21.0252 H   0  0  0  0  0  0
  -27.5287  -17.6498   19.3058 H   0  0  0  0  0  0
  -28.6356  -19.7991   22.1692 H   0  0  0  0  0  0
  -30.3574  -19.4504   22.0303 H   0  0  0  0  0  0
  -29.2471  -18.2097   22.6015 H   0  0  0  0  0  0
  -28.1841  -23.8036   18.9656 H   0  0  0  0  0  0
  -29.7635  -24.0190   19.6709 H   0  0  0  0  0  0
  -27.7106  -21.9395   20.7178 H   0  0  0  0  0  0
  -29.3472  -22.1145   21.3098 H   0  0  0  0  0  0
  -31.1456  -17.5315   20.4887 H   0  0  0  0  0  0
  -30.2182  -17.1311   19.0910 H   0  0  0  0  0  0
  -27.0616  -24.8120   20.8631 H   0  0  0  0  0  0
  -29.7938  -18.4633   17.8820 H   0  0  0  0  0  0
  -28.8667  -15.6840   20.9441 H   0  0  0  0  0  0
  1 25  1  0  0  0
  1 30  2  0  0  0
  1 85  1  0  0  0
  2  3  1  0  0  0
  2 25  1  0  0  0
  2 86  1  0  0  0
  2 87  1  0  0  0
  3  4  1  0  0  0
  3 88  1  0  0  0
  3 89  1  0  0  0
  4  5  1  0  0  0
  4 90  1  0  0  0
  4 91  1  0  0  0
  5  6  1  0  0  0
  5 26  1  0  0  0
  5 92  1  0  0  0
  6 25  1  0  0  0
  6 93  1  0  0  0
  6 94  1  0  0  0
  7  8  2  0  0  0
  7 26  1  0  0  0
  7 29  1  0  0  0
  8  9  1  0  0  0
  8 22  1  0  0  0
  9 10  1  0  0  0
  9 27  2  0  0  0
 10 11  2  0  0  0
 10 15  1  0  0  0
 11 12  1  0  0  0
 11 95  1  0  0  0
 12 13  2  0  0  0
 12 96  1  0  0  0
 13 14  1  0  0  0
 13 31  1  0  0  0
 14 15  2  0  0  0
 14 97  1  0  0  0
 15 98  1  0  0  0
 16 17  2  0  0  0
 16 21  1  0  0  0
 16 31  1  0  0  0
 17 18  1  0  0  0
 17 99  1  0  0  0
 18 19  2  0  0  0
 18100  1  0  0  0
 19 20  1  0  0  0
 19 24  1  0  0  0
 20 21  2  0  0  0
 20101  1  0  0  0
 21 23  1  0  0  0
 22 28  1  0  0  0
 22 32  2  0  0  0
 26 27  1  0  0  0
 28102  1  0  0  0
 28103  1  0  0  0
 29104  1  0  0  0
 29105  1  0  0  0
 33 34  1  0  0  0
 33 66  1  0  0  0
 33 70  2  0  0  0
 34 36  1  0  0  0
 34 59  1  0  0  0
 34106  1  0  0  0
 35 44  2  0  0  0
 35 45  1  0  0  0
 35 68  1  0  0  0
 36 56  1  0  0  0
 36107  1  0  0  0
 37 39  1  0  0  0
 37 47  1  0  0  0
 37 66  1  0  0  0
 37108  1  0  0  0
 38 43  2  0  0  0
 38 46  1  0  0  0
 38 47  1  0  0  0
 39 64  1  0  0  0
 39 67  2  0  0  0
 40 52  1  0  0  0
 40 53  2  0  0  0
 40 58  1  0  0  0
 41109  1  0  0  0
 41110  1  0  0  0
 41111  1  0  0  0
 41 48  1  0  0  0
 42 43  1  0  0  0
 42 66  1  0  0  0
 42112  1  0  0  0
 42113  1  0  0  0
 43 44  1  0  0  0
 44114  1  0  0  0
 45 46  2  0  0  0
 45115  1  0  0  0
 46116  1  0  0  0
 47117  1  0  0  0
 47118  1  0  0  0
 48 56  1  0  0  0
 48 65  1  0  0  0
 48119  1  0  0  0
 49 50  1  0  0  0
 49 53  1  0  0  0
 49 64  1  0  0  0
 49120  1  0  0  0
 50 51  1  0  0  0
 50121  1  0  0  0
 50122  1  0  0  0
 51 52  1  0  0  0
 51123  1  0  0  0
 51124  1  0  0  0
 52125  1  0  0  0
 52126  1  0  0  0
 53 54  1  0  0  0
 54 55  2  0  0  0
 54127  1  0  0  0
 55 57  1  0  0  0
 55128  1  0  0  0
 56 69  2  0  0  0
 57 58  2  0  0  0
 57129  1  0  0  0
 58130  1  0  0  0
 59 60  1  0  0  0
 59 61  1  0  0  0
 59 62  1  0  0  0
 60131  1  0  0  0
 60132  1  0  0  0
 60133  1  0  0  0
 61134  1  0  0  0
 61135  1  0  0  0
 61136  1  0  0  0
 62137  1  0  0  0
 62138  1  0  0  0
 62139  1  0  0  0
 63 65  1  0  0  0
 63140  1  0  0  0
 63141  1  0  0  0
 63142  1  0  0  0
 64143  1  0  0  0
 65144  1  0  0  0
 68 81  1  0  0  0
 71 72  2  0  0  0
 71 83  1  0  0  0
 71145  1  0  0  0
 72 74  1  0  0  0
 72 84  1  0  0  0
 73 82  1  0  0  0
 73 83  1  0  0  0
 73 84  2  0  0  0
 74146  1  0  0  0
 74147  1  0  0  0
 74148  1  0  0  0
 75149  1  0  0  0
 75150  1  0  0  0
 75151  1  0  0  0
 75 81  1  0  0  0
 76152  1  0  0  0
 76153  1  0  0  0
 76154  1  0  0  0
 76 82  1  0  0  0
 77 82  1  0  0  0
 77155  1  0  0  0
 77156  1  0  0  0
 77157  1  0  0  0
 78 79  1  0  0  0
 78 81  1  0  0  0
 78158  1  0  0  0
 78159  1  0  0  0
 79 83  1  0  0  0
 79160  1  0  0  0
 79161  1  0  0  0
 80 82  1  0  0  0
 80 85  1  0  0  0
 80162  1  0  0  0
 80163  1  0  0  0
 81164  1  0  0  0
 84165  1  0  0  0
 85166  1  0  0  0
M  CHG  1  84   1
M  ISO  4   1 100  68 101  81 101  85 100
M  END
> <chiral flag>
0

> <version>
0

> <s_m_source_file>
/data/baiqing/PycharmProjects/Reinvent-master-3.2/result/LINK_invent/BTK/process_docking_weight1_custom_sum_contain_oxygen_bond_distance_aromatic_linkinvent_7_9_3/rearranged_h_0082.sdf

> <i_m_source_file_index>
82

> <r_mmod_Potential_Energy-OPLS-2005>
132.748748779297

> <r_mmod_Stretch_Energy-OPLS-2005>
129.405868530273

> <r_mmod_Bend_Energy-OPLS-2005>
192.466049194336

> <r_mmod_Torsional_Energy-OPLS-2005>
269.514221191406

> <r_mmod_Improper_Torsional_Energy-OPLS-2005>
6.84937000274658

> <r_mmod_Van_der_Waal_Energy-OPLS-2005>
113.865211486816

> <r_mmod_Electrostatic_Energy-OPLS-2005>
-244.471038818359

> <r_mmod_Solvation_Energy-OPLS-2005>
-413.039520263672

> <b_mmod_Minimization_Converged-OPLS-2005>
0

> <r_mmod_RMS_Derivative-OPLS-2005>
3.17900514602661

$$$$
83
                    3D
 Structure written by MMmdl.
173181  0  0  1  0            999 V2000
  -30.6194  -14.5133   20.5799 C   0  0  0  0  0  0
  -30.4459  -12.3395   19.4190 C   0  0  0  0  0  0
  -29.4998  -12.5080   18.2086 C   0  0  0  0  0  0
  -28.0202  -12.3497   18.6193 C   0  0  0  0  0  0
  -27.6566  -13.1926   19.8698 C   0  0  2  0  0  0
  -28.6951  -12.9531   20.9879 C   0  0  0  0  0  0
  -25.2562  -13.8131   20.5644 C   0  0  0  0  0  0
  -24.1809  -13.0433   20.9178 C   0  0  0  0  0  0
  -24.6348  -11.6893   20.8731 C   0  0  0  0  0  0
  -23.9021  -10.4287   21.0416 C   0  0  0  0  0  0
  -24.3591   -9.4207   21.9187 C   0  0  0  0  0  0
  -23.6282   -8.2233   22.0748 C   0  0  0  0  0  0
  -22.4260   -8.0269   21.3545 C   0  0  0  0  0  0
  -21.9891   -9.0238   20.4642 C   0  0  0  0  0  0
  -22.7203  -10.2127   20.3059 C   0  0  0  0  0  0
  -21.6844   -6.0729   22.5277 C   0  0  0  0  0  0
  -21.4000   -6.5630   23.8211 C   0  0  0  0  0  0
  -21.3667   -5.6790   24.9174 C   0  0  0  0  0  0
  -21.6050   -4.3054   24.7231 C   0  0  0  0  0  0
  -21.8816   -3.8139   23.4352 C   0  0  0  0  0  0
  -21.9191   -4.6956   22.3404 C   0  0  0  0  0  0
  -22.7833  -13.5236   21.1863 C   0  0  0  0  0  0
  -22.1653   -4.2141   21.0986 F   0  0  0  0  0  0
  -21.5650   -3.4539   25.7749 F   0  0  0  0  0  0
  -30.0211  -13.2995   20.4462 N   0  0  0  0  0  0
  -26.2973  -12.9261   20.3309 N   0  0  0  0  0  0
  -25.9265  -11.6443   20.5745 N   0  0  0  0  0  0
  -22.0477  -12.8231   22.0425 N   0  0  0  0  0  0
  -25.4309  -15.1852   20.4017 N   0  0  0  0  0  0
  -31.7680  -14.7462   20.1912 O   0  0  0  0  0  0
  -21.6632   -6.8868   21.4237 O   0  0  0  0  0  0
  -22.3511  -14.5544   20.6721 O   0  0  0  0  0  0
  -24.6140  -31.8688   23.2113 C   0  0  0  0  0  0
  -25.9040  -32.4815   23.8397 C   0  0  1  0  0  0
  -27.2276  -27.4387   20.1005 C   0  0  0  0  0  0
  -25.5895  -33.8611   24.2346 N   0  0  0  0  0  0
  -23.4019  -30.4960   21.5480 C   0  0  2  0  0  0
  -24.8525  -28.9637   20.1121 C   0  0  0  0  0  0
  -22.7440  -29.4641   22.4929 C   0  0  0  0  0  0
  -18.0298  -28.1412   22.8464 C   0  0  0  0  0  0
  -24.1508  -36.7301   23.2645 C   0  0  0  0  0  0
  -25.9320  -30.8384   21.3637 C   0  0  0  0  0  0
  -26.0122  -29.4712   20.7159 C   0  0  0  0  0  0
  -27.2056  -28.7134   20.7136 C   0  0  0  0  0  0
  -26.0595  -26.9499   19.4850 C   0  0  0  0  0  0
  -24.8695  -27.7012   19.4961 C   0  0  0  0  0  0
  -23.6158  -29.8322   20.1609 C   0  0  0  0  0  0
  -25.4098  -36.3074   24.0364 C   0  0  1  0  0  0
  -20.5884  -28.3659   23.1322 C   0  0  2  0  0  0
  -20.6778  -26.9398   22.5410 C   0  0  0  0  0  0
  -19.5761  -26.6382   21.5208 C   0  0  0  0  0  0
  -18.1933  -26.7957   22.1609 C   0  0  0  0  0  0
  -19.1546  -28.8840   23.2895 C   0  0  0  0  0  0
  -18.9478  -30.1436   23.8912 C   0  0  0  0  0  0
  -17.6481  -30.6584   24.0546 C   0  0  0  0  0  0
  -25.9020  -34.9458   23.5140 C   0  0  0  0  0  0
  -16.5368  -29.9078   23.6337 C   0  0  0  0  0  0
  -16.7284  -28.6523   23.0307 C   0  0  0  0  0  0
  -26.4478  -31.6585   25.0714 C   0  0  0  0  0  0
  -25.3760  -31.3717   26.1463 C   0  0  0  0  0  0
  -27.0294  -30.3026   24.6061 C   0  0  0  0  0  0
  -27.6045  -32.4304   25.7487 C   0  0  0  0  0  0
  -27.5568  -37.1777   24.8468 C   0  0  0  0  0  0
  -21.4160  -29.3015   22.3707 N   0  0  0  0  0  0
  -26.4283  -37.3742   23.9430 N   0  0  0  0  0  0
  -24.6674  -31.0812   22.0996 N   0  0  0  0  0  0
  -23.4247  -28.8137   23.2907 O   0  0  0  0  0  0
  -28.3476  -26.6428   20.0932 O   0  0  0  0  0  0
  -26.5567  -34.8915   22.4685 O   0  0  0  0  0  0
  -23.5330  -32.1409   23.7504 O   0  0  0  0  0  0
  -30.2621  -24.0977   20.9270 C   0  0  0  0  0  0
  -30.6434  -22.7427   20.8905 C   0  0  0  0  0  0
  -28.9103  -24.4432   21.1334 C   0  0  0  0  0  0
  -29.6650  -21.7465   21.0543 C   0  0  0  0  0  0
  -27.9763  -23.3733   21.2397 C   0  0  0  0  0  0
  -29.9214  -19.8736   22.7074 C   0  0  0  0  0  0
  -25.9435  -22.9238   22.7054 C   0  0  0  0  0  0
  -25.6812  -23.1000   20.1781 C   0  0  0  0  0  0
  -28.7878  -17.2452   18.9653 C   0  0  0  0  0  0
  -31.1705  -17.9199   19.2797 C   0  0  0  0  0  0
  -28.5575  -25.9287   21.3188 C   0  0  0  0  0  0
  -29.2853  -19.3041   20.2741 C   0  0  0  0  0  0
  -29.9152  -16.9204   21.2351 C   0  0  0  0  0  0
  -30.0631  -20.2634   21.2261 C   0  0  1  0  0  0
  -26.4643  -23.5774   21.4123 C   0  0  0  0  0  0
  -29.7993  -17.8436   19.9708 C   0  0  0  0  0  0
  -28.3584  -22.0698   21.2018 N   0  0  0  0  0  0
  -29.7744  -15.4674   21.0244 N   0  0  0  0  0  0
  -31.4806  -12.5037   19.1112 H   0  0  0  0  0  0
  -30.4068  -11.3238   19.8157 H   0  0  0  0  0  0
  -29.7525  -11.7852   17.4322 H   0  0  0  0  0  0
  -29.6469  -13.4950   17.7672 H   0  0  0  0  0  0
  -27.8421  -11.2937   18.8243 H   0  0  0  0  0  0
  -27.3676  -12.6109   17.7856 H   0  0  0  0  0  0
  -27.7005  -14.2391   19.5685 H   0  0  0  0  0  0
  -28.6867  -11.9058   21.2938 H   0  0  0  0  0  0
  -28.4426  -13.5145   21.8894 H   0  0  0  0  0  0
  -25.2743   -9.5692   22.4749 H   0  0  0  0  0  0
  -24.0005   -7.4623   22.7459 H   0  0  0  0  0  0
  -21.0828   -8.8747   19.8941 H   0  0  0  0  0  0
  -22.3661  -10.9665   19.6163 H   0  0  0  0  0  0
  -21.1962   -7.6133   23.9710 H   0  0  0  0  0  0
  -21.1500   -6.0521   25.9086 H   0  0  0  0  0  0
  -22.0591   -2.7599   23.2856 H   0  0  0  0  0  0
  -22.4089  -11.9888   22.4809 H   0  0  0  0  0  0
  -21.1102  -13.1254   22.2653 H   0  0  0  0  0  0
  -24.6654  -15.8434   20.4990 H   0  0  0  0  0  0
  -26.2814  -15.6171   20.0635 H   0  0  0  0  0  0
  -26.7100  -32.5561   23.1157 H   0  0  0  0  0  0
  -25.0108  -33.9787   25.0518 H   0  0  0  0  0  0
  -22.6882  -31.3110   21.4080 H   0  0  0  0  0  0
  -23.3746  -35.9650   23.3327 H   0  0  0  0  0  0
  -24.3617  -36.8892   22.2052 H   0  0  0  0  0  0
  -23.7300  -37.6537   23.6644 H   0  0  0  0  0  0
  -26.0460  -31.6031   20.5943 H   0  0  0  0  0  0
  -26.8205  -30.8939   21.9811 H   0  0  0  0  0  0
  -28.1038  -29.0974   21.1793 H   0  0  0  0  0  0
  -26.0696  -25.9796   19.0095 H   0  0  0  0  0  0
  -23.9790  -27.3055   19.0276 H   0  0  0  0  0  0
  -23.7263  -30.6121   19.4064 H   0  0  0  0  0  0
  -22.7399  -29.2589   19.8553 H   0  0  0  0  0  0
  -25.1263  -36.1919   25.0853 H   0  0  0  0  0  0
  -20.9977  -28.3205   24.1437 H   0  0  0  0  0  0
  -20.5708  -26.2233   23.3581 H   0  0  0  0  0  0
  -21.6636  -26.7426   22.1174 H   0  0  0  0  0  0
  -19.6928  -25.6291   21.1232 H   0  0  0  0  0  0
  -19.6750  -27.3183   20.6751 H   0  0  0  0  0  0
  -17.4204  -26.6705   21.4019 H   0  0  0  0  0  0
  -18.0320  -26.0124   22.9035 H   0  0  0  0  0  0
  -19.7947  -30.7239   24.2294 H   0  0  0  0  0  0
  -17.5032  -31.6280   24.5111 H   0  0  0  0  0  0
  -15.5354  -30.2960   23.7673 H   0  0  0  0  0  0
  -15.8703  -28.0849   22.6977 H   0  0  0  0  0  0
  -24.5924  -30.7085   25.7805 H   0  0  0  0  0  0
  -24.8972  -32.2902   26.4872 H   0  0  0  0  0  0
  -25.8088  -30.8906   27.0243 H   0  0  0  0  0  0
  -26.2818  -29.6807   24.1130 H   0  0  0  0  0  0
  -27.4120  -29.7222   25.4474 H   0  0  0  0  0  0
  -27.8639  -30.4379   23.9175 H   0  0  0  0  0  0
  -27.2642  -33.3582   26.2088 H   0  0  0  0  0  0
  -28.3828  -32.6891   25.0309 H   0  0  0  0  0  0
  -28.0746  -31.8437   26.5396 H   0  0  0  0  0  0
  -28.2518  -38.0114   24.7440 H   0  0  0  0  0  0
  -28.1111  -36.2624   24.6326 H   0  0  0  0  0  0
  -27.2310  -37.1444   25.8879 H   0  0  0  0  0  0
  -20.9290  -29.8765   21.6974 H   0  0  0  0  0  0
  -26.0184  -38.2827   24.1401 H   0  0  0  0  0  0
  -31.0167  -24.8677   20.8442 H   0  0  0  0  0  0
  -31.6878  -22.4823   20.7865 H   0  0  0  0  0  0
  -30.4182  -20.5956   23.3555 H   0  0  0  0  0  0
  -30.3663  -18.9087   22.9270 H   0  0  0  0  0  0
  -28.8705  -19.8330   22.9951 H   0  0  0  0  0  0
  -26.4773  -23.3094   23.5736 H   0  0  0  0  0  0
  -26.0756  -21.8413   22.6873 H   0  0  0  0  0  0
  -24.8819  -23.1281   22.8546 H   0  0  0  0  0  0
  -26.0054  -23.6338   19.2885 H   0  0  0  0  0  0
  -24.6107  -23.2700   20.2921 H   0  0  0  0  0  0
  -25.8343  -22.0368   19.9913 H   0  0  0  0  0  0
  -28.6552  -17.8959   18.0999 H   0  0  0  0  0  0
  -27.8045  -17.1148   19.4177 H   0  0  0  0  0  0
  -29.1090  -16.2777   18.5800 H   0  0  0  0  0  0
  -31.1538  -18.6064   18.4335 H   0  0  0  0  0  0
  -31.4800  -16.9474   18.8973 H   0  0  0  0  0  0
  -31.9460  -18.2579   19.9661 H   0  0  0  0  0  0
  -29.3918  -26.4116   21.8319 H   0  0  0  0  0  0
  -27.7249  -26.0368   22.0147 H   0  0  0  0  0  0
  -29.2383  -19.8219   19.3148 H   0  0  0  0  0  0
  -28.2494  -19.2656   20.6137 H   0  0  0  0  0  0
  -29.1036  -17.1802   21.9193 H   0  0  0  0  0  0
  -30.8429  -17.0996   21.7782 H   0  0  0  0  0  0
  -31.1205  -20.2036   20.9666 H   0  0  0  0  0  0
  -26.2440  -24.6376   21.5029 H   0  0  0  0  0  0
  -28.8689  -15.0995   21.2739 H   0  0  0  0  0  0
  1 25  1  0  0  0
  1 30  2  0  0  0
  1 88  1  0  0  0
  2  3  1  0  0  0
  2 25  1  0  0  0
  2 89  1  0  0  0
  2 90  1  0  0  0
  3  4  1  0  0  0
  3 91  1  0  0  0
  3 92  1  0  0  0
  4  5  1  0  0  0
  4 93  1  0  0  0
  4 94  1  0  0  0
  5  6  1  0  0  0
  5 26  1  0  0  0
  5 95  1  0  0  0
  6 25  1  0  0  0
  6 96  1  0  0  0
  6 97  1  0  0  0
  7  8  2  0  0  0
  7 26  1  0  0  0
  7 29  1  0  0  0
  8  9  1  0  0  0
  8 22  1  0  0  0
  9 10  1  0  0  0
  9 27  2  0  0  0
 10 11  2  0  0  0
 10 15  1  0  0  0
 11 12  1  0  0  0
 11 98  1  0  0  0
 12 13  2  0  0  0
 12 99  1  0  0  0
 13 14  1  0  0  0
 13 31  1  0  0  0
 14 15  2  0  0  0
 14100  1  0  0  0
 15101  1  0  0  0
 16 17  2  0  0  0
 16 21  1  0  0  0
 16 31  1  0  0  0
 17 18  1  0  0  0
 17102  1  0  0  0
 18 19  2  0  0  0
 18103  1  0  0  0
 19 20  1  0  0  0
 19 24  1  0  0  0
 20 21  2  0  0  0
 20104  1  0  0  0
 21 23  1  0  0  0
 22 28  1  0  0  0
 22 32  2  0  0  0
 26 27  1  0  0  0
 28105  1  0  0  0
 28106  1  0  0  0
 29107  1  0  0  0
 29108  1  0  0  0
 33 34  1  0  0  0
 33 66  1  0  0  0
 33 70  2  0  0  0
 34 36  1  0  0  0
 34 59  1  0  0  0
 34109  1  0  0  0
 35 44  2  0  0  0
 35 45  1  0  0  0
 35 68  1  0  0  0
 36 56  1  0  0  0
 36110  1  0  0  0
 37 39  1  0  0  0
 37 47  1  0  0  0
 37 66  1  0  0  0
 37111  1  0  0  0
 38 43  2  0  0  0
 38 46  1  0  0  0
 38 47  1  0  0  0
 39 64  1  0  0  0
 39 67  2  0  0  0
 40 52  1  0  0  0
 40 53  2  0  0  0
 40 58  1  0  0  0
 41112  1  0  0  0
 41113  1  0  0  0
 41114  1  0  0  0
 41 48  1  0  0  0
 42 43  1  0  0  0
 42 66  1  0  0  0
 42115  1  0  0  0
 42116  1  0  0  0
 43 44  1  0  0  0
 44117  1  0  0  0
 45 46  2  0  0  0
 45118  1  0  0  0
 46119  1  0  0  0
 47120  1  0  0  0
 47121  1  0  0  0
 48 56  1  0  0  0
 48 65  1  0  0  0
 48122  1  0  0  0
 49 50  1  0  0  0
 49 53  1  0  0  0
 49 64  1  0  0  0
 49123  1  0  0  0
 50 51  1  0  0  0
 50124  1  0  0  0
 50125  1  0  0  0
 51 52  1  0  0  0
 51126  1  0  0  0
 51127  1  0  0  0
 52128  1  0  0  0
 52129  1  0  0  0
 53 54  1  0  0  0
 54 55  2  0  0  0
 54130  1  0  0  0
 55 57  1  0  0  0
 55131  1  0  0  0
 56 69  2  0  0  0
 57 58  2  0  0  0
 57132  1  0  0  0
 58133  1  0  0  0
 59 60  1  0  0  0
 59 61  1  0  0  0
 59 62  1  0  0  0
 60134  1  0  0  0
 60135  1  0  0  0
 60136  1  0  0  0
 61137  1  0  0  0
 61138  1  0  0  0
 61139  1  0  0  0
 62140  1  0  0  0
 62141  1  0  0  0
 62142  1  0  0  0
 63 65  1  0  0  0
 63143  1  0  0  0
 63144  1  0  0  0
 63145  1  0  0  0
 64146  1  0  0  0
 65147  1  0  0  0
 68 81  1  0  0  0
 71 72  2  0  0  0
 71 73  1  0  0  0
 71148  1  0  0  0
 72 74  1  0  0  0
 72149  1  0  0  0
 73 75  2  0  0  0
 73 81  1  0  0  0
 74 84  1  0  0  0
 74 87  2  0  0  0
 75 85  1  0  0  0
 75 87  1  0  0  0
 76150  1  0  0  0
 76151  1  0  0  0
 76152  1  0  0  0
 76 84  1  0  0  0
 77153  1  0  0  0
 77154  1  0  0  0
 77155  1  0  0  0
 77 85  1  0  0  0
 78 85  1  0  0  0
 78156  1  0  0  0
 78157  1  0  0  0
 78158  1  0  0  0
 79159  1  0  0  0
 79160  1  0  0  0
 79161  1  0  0  0
 79 86  1  0  0  0
 80 86  1  0  0  0
 80162  1  0  0  0
 80163  1  0  0  0
 80164  1  0  0  0
 81165  1  0  0  0
 81166  1  0  0  0
 82 84  1  0  0  0
 82 86  1  0  0  0
 82167  1  0  0  0
 82168  1  0  0  0
 83 86  1  0  0  0
 83 88  1  0  0  0
 83169  1  0  0  0
 83170  1  0  0  0
 84171  1  0  0  0
 85172  1  0  0  0
 88173  1  0  0  0
M  ISO  4   1 100  68 101  81 101  88 100
M  END
> <chiral flag>
0

> <version>
0

> <s_m_source_file>
/data/baiqing/PycharmProjects/Reinvent-master-3.2/result/LINK_invent/BTK/process_docking_weight1_custom_sum_contain_oxygen_bond_distance_aromatic_linkinvent_7_9_3/rearranged_h_0082.sdf

> <i_m_source_file_index>
83

> <r_mmod_Potential_Energy-OPLS-2005>
-229.242736816406

> <r_mmod_Stretch_Energy-OPLS-2005>
43.5193138122559

> <r_mmod_Bend_Energy-OPLS-2005>
123.246620178223

> <r_mmod_Torsional_Energy-OPLS-2005>
239.823211669922

> <r_mmod_Improper_Torsional_Energy-OPLS-2005>
4.38421154022217

> <r_mmod_Van_der_Waal_Energy-OPLS-2005>
144.553024291992

> <r_mmod_Electrostatic_Energy-OPLS-2005>
-605.288818359375

> <r_mmod_Solvation_Energy-OPLS-2005>
-198.302963256836

> <b_mmod_Minimization_Converged-OPLS-2005>
0

> <r_mmod_RMS_Derivative-OPLS-2005>
3.42356300354004

$$$$
84
                    3D
 Structure written by MMmdl.
170178  0  0  1  0            999 V2000
  -30.5870  -13.9155   21.2203 C   0  0  0  0  0  0
  -30.6022  -12.3444   19.2811 C   0  0  0  0  0  0
  -29.6596  -12.1797   18.0704 C   0  0  0  0  0  0
  -28.2304  -11.9344   18.5532 C   0  0  0  0  0  0
  -27.8312  -13.1971   19.2079 C   0  0  2  0  0  0
  -28.8289  -13.9083   19.9950 C   0  0  0  0  0  0
  -25.8444  -14.7045   20.0720 C   0  0  0  0  0  0
  -23.9499  -13.8360   21.2677 C   0  0  0  0  0  0
  -24.5140  -12.0883   21.2929 C   0  0  0  0  0  0
  -23.8290  -10.7043   21.2983 C   0  0  0  0  0  0
  -24.3224   -9.6040   22.0596 C   0  0  0  0  0  0
  -23.6573   -8.3474   22.1134 C   0  0  0  0  0  0
  -22.4776   -8.1151   21.3662 C   0  0  0  0  0  0
  -22.0625   -9.1382   20.4905 C   0  0  0  0  0  0
  -22.7295  -10.3934   20.4485 C   0  0  0  0  0  0
  -21.7232   -6.1084   22.5074 C   0  0  0  0  0  0
  -21.4227   -6.5861   23.8039 C   0  0  0  0  0  0
  -21.3665   -5.6973   24.8984 C   0  0  0  0  0  0
  -21.6012   -4.3214   24.7076 C   0  0  0  0  0  0
  -21.8800   -3.8353   23.4187 C   0  0  0  0  0  0
  -21.9324   -4.7211   22.3259 C   0  0  0  0  0  0
  -22.4709  -13.9553   21.4623 C   0  0  0  0  0  0
  -22.1783   -4.2301   21.0880 F   0  0  0  0  0  0
  -21.5546   -3.4688   25.7596 F   0  0  0  0  0  0
  -29.9952  -13.1630   20.3302 N   0  0  0  0  0  0
  -26.7013  -13.2171   19.9402 N   0  0  0  0  0  0
  -25.9770  -11.8916   20.6223 N   0  0  0  0  0  0
  -21.9237  -13.0111   22.2136 N   0  0  0  0  0  0
  -26.4226  -15.7888   19.4584 N   0  0  0  0  0  0
  -31.5988  -14.5764   20.8970 O   0  0  0  0  0  0
  -21.7443   -6.9387   21.4039 O   0  0  0  0  0  0
  -21.7728  -14.7606   20.8826 O   0  0  0  0  0  0
  -24.6742  -31.8130   23.1740 C   0  0  0  0  0  0
  -25.9415  -32.4481   23.8177 C   0  0  1  0  0  0
  -26.7825  -26.6290   20.3099 C   0  0  0  0  0  0
  -25.6058  -33.8325   24.2035 N   0  0  0  0  0  0
  -23.4754  -30.4525   21.5276 C   0  0  2  0  0  0
  -24.8655  -28.8419   20.0707 C   0  0  0  0  0  0
  -22.7674  -29.4405   22.4688 C   0  0  0  0  0  0
  -18.0324  -28.1407   22.8467 C   0  0  0  0  0  0
  -24.1501  -36.7135   23.2649 C   0  0  0  0  0  0
  -26.0538  -30.5224   21.4470 C   0  0  0  0  0  0
  -26.0400  -29.1000   20.7842 C   0  0  0  0  0  0
  -27.0198  -27.9982   20.8900 C   0  0  0  0  0  0
  -25.7247  -26.6406   19.4045 C   0  0  0  0  0  0
  -24.7645  -27.6620   19.3312 C   0  0  0  0  0  0
  -23.7058  -29.8266   20.1270 C   0  0  0  0  0  0
  -25.4158  -36.2903   24.0286 C   0  0  1  0  0  0
  -20.5956  -28.3746   23.1163 C   0  0  2  0  0  0
  -20.6803  -26.9415   22.5400 C   0  0  0  0  0  0
  -19.5770  -26.6370   21.5221 C   0  0  0  0  0  0
  -18.1951  -26.7938   22.1629 C   0  0  0  0  0  0
  -19.1587  -28.8906   23.2805 C   0  0  0  0  0  0
  -18.9492  -30.1495   23.8847 C   0  0  0  0  0  0
  -17.6480  -30.6591   24.0556 C   0  0  0  0  0  0
  -25.9145  -34.9289   23.4977 C   0  0  0  0  0  0
  -16.5374  -29.9076   23.6344 C   0  0  0  0  0  0
  -16.7306  -28.6501   23.0362 C   0  0  0  0  0  0
  -26.4602  -31.6510   25.0784 C   0  0  0  0  0  0
  -25.3679  -31.3799   26.1400 C   0  0  0  0  0  0
  -27.0521  -30.2844   24.6700 C   0  0  0  0  0  0
  -27.6069  -32.4380   25.7557 C   0  0  0  0  0  0
  -27.5571  -37.1737   24.8477 C   0  0  0  0  0  0
  -21.4344  -29.3006   22.3471 N   0  0  0  0  0  0
  -26.4287  -37.3664   23.9399 N   0  0  0  0  0  0
  -24.7607  -30.9650   22.0981 N   0  0  0  0  0  0
  -23.4231  -28.7919   23.2884 O   0  0  0  0  0  0
  -27.3172  -25.2335   20.5802 O   0  0  0  0  0  0
  -26.5755  -34.8847   22.4574 O   0  0  0  0  0  0
  -23.5806  -32.1251   23.6746 O   0  0  0  0  0  0
  -25.5102  -15.5271   22.2827 C   0  0  0  0  0  0
  -23.8433  -16.1067   19.9041 C   0  0  0  0  0  0
  -24.7045  -16.6301   21.2568 C   0  0  0  0  0  0
  -25.9296  -13.8545   21.9965 C   0  0  0  0  0  0
  -23.7421  -14.6708   18.9825 C   0  0  0  0  0  0
  -22.4065  -13.3306   17.2562 C   0  0  0  0  0  0
  -23.8371  -15.3176   16.5484 C   0  0  0  0  0  0
  -29.1220  -11.9791   23.8537 C   0  0  0  0  0  0
  -24.9547  -18.4706   21.4865 C   0  0  0  0  0  0
  -27.0532  -13.1876   22.9366 C   0  0  0  0  0  0
  -25.7154  -20.0712   20.6935 C   0  0  0  0  0  0
  -26.1048  -21.9334   21.1184 C   0  0  0  0  0  0
  -26.6347  -23.6181   20.3054 C   0  0  0  0  0  0
  -22.9813  -14.7019   17.6642 C   0  0  0  0  0  0
  -28.6461  -12.8439   22.6758 C   0  0  1  0  0  0
  -24.5262  -13.2626   19.3368 N   0  0  0  0  0  0
  -29.8235  -13.8398   22.3930 N   0  0  0  0  0  0
  -31.5551  -12.7679   18.9624 H   0  0  0  0  0  0
  -30.8277  -11.3707   19.7163 H   0  0  0  0  0  0
  -29.9982  -11.3393   17.4630 H   0  0  0  0  0  0
  -29.7107  -13.0588   17.4240 H   0  0  0  0  0  0
  -28.2073  -11.0983   19.2539 H   0  0  0  0  0  0
  -27.5547  -11.6909   17.7332 H   0  0  0  0  0  0
  -27.6021  -13.8370   18.3511 H   0  0  0  0  0  0
  -28.3691  -14.5866   20.7233 H   0  0  0  0  0  0
  -29.2147  -14.6623   19.2968 H   0  0  0  0  0  0
  -25.2071   -9.7502   22.6645 H   0  0  0  0  0  0
  -24.0486   -7.5752   22.7584 H   0  0  0  0  0  0
  -21.2102   -8.9781   19.8488 H   0  0  0  0  0  0
  -22.3619  -11.1636   19.7869 H   0  0  0  0  0  0
  -21.2299   -7.6378   23.9564 H   0  0  0  0  0  0
  -21.1444   -6.0723   25.8868 H   0  0  0  0  0  0
  -22.0493   -2.7793   23.2673 H   0  0  0  0  0  0
  -22.4743  -12.2911   22.6516 H   0  0  0  0  0  0
  -20.9215  -13.0086   22.3443 H   0  0  0  0  0  0
  -25.7046  -16.5044   19.4586 H   0  0  0  0  0  0
  -27.2372  -16.1354   19.9441 H   0  0  0  0  0  0
  -26.7460  -32.4879   23.0841 H   0  0  0  0  0  0
  -25.0135  -33.9407   25.0138 H   0  0  0  0  0  0
  -22.7947  -31.2948   21.3871 H   0  0  0  0  0  0
  -23.3792  -35.9432   23.3283 H   0  0  0  0  0  0
  -24.3570  -36.8818   22.2067 H   0  0  0  0  0  0
  -23.7231  -37.6297   23.6743 H   0  0  0  0  0  0
  -26.2949  -31.2505   20.6700 H   0  0  0  0  0  0
  -26.9021  -30.5431   22.1190 H   0  0  0  0  0  0
  -27.8599  -28.1322   21.5571 H   0  0  0  0  0  0
  -25.5060  -25.7508   18.8354 H   0  0  0  0  0  0
  -23.8891  -27.4961   18.7191 H   0  0  0  0  0  0
  -23.9116  -30.6212   19.4076 H   0  0  0  0  0  0
  -22.7943  -29.3408   19.7753 H   0  0  0  0  0  0
  -25.1361  -36.1677   25.0779 H   0  0  0  0  0  0
  -21.0075  -28.3362   24.1275 H   0  0  0  0  0  0
  -20.5700  -26.2348   23.3639 H   0  0  0  0  0  0
  -21.6653  -26.7379   22.1178 H   0  0  0  0  0  0
  -19.6908  -25.6274   21.1261 H   0  0  0  0  0  0
  -19.6706  -27.3177   20.6747 H   0  0  0  0  0  0
  -17.4214  -26.6692   21.4035 H   0  0  0  0  0  0
  -18.0324  -26.0105   22.9048 H   0  0  0  0  0  0
  -19.7966  -30.7330   24.2191 H   0  0  0  0  0  0
  -17.5023  -31.6263   24.5164 H   0  0  0  0  0  0
  -15.5369  -30.2951   23.7708 H   0  0  0  0  0  0
  -15.8710  -28.0808   22.7096 H   0  0  0  0  0  0
  -24.5929  -30.7067   25.7714 H   0  0  0  0  0  0
  -24.8786  -32.2988   26.4637 H   0  0  0  0  0  0
  -25.7882  -30.9113   27.0305 H   0  0  0  0  0  0
  -26.3203  -29.6433   24.1770 H   0  0  0  0  0  0
  -27.3983  -29.7334   25.5453 H   0  0  0  0  0  0
  -27.9204  -30.3946   24.0201 H   0  0  0  0  0  0
  -27.2631  -33.3758   26.1935 H   0  0  0  0  0  0
  -28.3955  -32.6819   25.0424 H   0  0  0  0  0  0
  -28.0662  -31.8657   26.5625 H   0  0  0  0  0  0
  -28.2561  -38.0059   24.7523 H   0  0  0  0  0  0
  -28.1099  -36.2577   24.6319 H   0  0  0  0  0  0
  -27.2283  -37.1386   25.8883 H   0  0  0  0  0  0
  -20.9591  -29.8734   21.6645 H   0  0  0  0  0  0
  -26.0109  -38.2709   24.1419 H   0  0  0  0  0  0
  -26.0076  -15.9771   23.1310 H   0  0  0  0  0  0
  -23.3254  -16.9194   19.4171 H   0  0  0  0  0  0
  -21.7503  -12.9240   18.0251 H   0  0  0  0  0  0
  -23.1981  -12.6025   17.0730 H   0  0  0  0  0  0
  -21.8222  -13.4068   16.3388 H   0  0  0  0  0  0
  -24.1535  -16.3265   16.8158 H   0  0  0  0  0  0
  -23.2798  -15.3900   15.6155 H   0  0  0  0  0  0
  -24.7360  -14.7305   16.3636 H   0  0  0  0  0  0
  -28.4296  -11.1590   24.0527 H   0  0  0  0  0  0
  -29.2045  -12.5653   24.7691 H   0  0  0  0  0  0
  -30.0942  -11.5296   23.6468 H   0  0  0  0  0  0
  -25.3559  -18.4984   22.4989 H   0  0  0  0  0  0
  -23.9181  -18.7762   21.6289 H   0  0  0  0  0  0
  -26.5845  -12.2568   23.2538 H   0  0  0  0  0  0
  -27.0302  -13.7989   23.8392 H   0  0  0  0  0  0
  -25.1544  -20.1573   19.7615 H   0  0  0  0  0  0
  -26.6935  -19.7165   20.3680 H   0  0  0  0  0  0
  -26.8382  -21.8329   21.9184 H   0  0  0  0  0  0
  -25.2016  -22.2326   21.6514 H   0  0  0  0  0  0
  -25.7745  -23.8231   19.6710 H   0  0  0  0  0  0
  -27.3799  -23.2609   19.5944 H   0  0  0  0  0  0
  -22.1268  -15.3585   17.8265 H   0  0  0  0  0  0
  -28.5793  -12.1025   21.8805 H   0  0  0  0  0  0
  -30.1327  -14.4198   23.1584 H   0  0  0  0  0  0
  1 25  1  0  0  0
  1 30  2  0  0  0
  1 87  1  0  0  0
  2  3  1  0  0  0
  2 25  1  0  0  0
  2 88  1  0  0  0
  2 89  1  0  0  0
  3  4  1  0  0  0
  3 90  1  0  0  0
  3 91  1  0  0  0
  4  5  1  0  0  0
  4 92  1  0  0  0
  4 93  1  0  0  0
  5  6  1  0  0  0
  5 26  1  0  0  0
  5 94  1  0  0  0
  6 25  1  0  0  0
  6 95  1  0  0  0
  6 96  1  0  0  0
  7  8  2  0  0  0
  7 26  1  0  0  0
  7 29  1  0  0  0
  8  9  1  0  0  0
  8 22  1  0  0  0
  9 10  1  0  0  0
  9 27  2  0  0  0
 10 11  2  0  0  0
 10 15  1  0  0  0
 11 12  1  0  0  0
 11 97  1  0  0  0
 12 13  2  0  0  0
 12 98  1  0  0  0
 13 14  1  0  0  0
 13 31  1  0  0  0
 14 15  2  0  0  0
 14 99  1  0  0  0
 15100  1  0  0  0
 16 17  2  0  0  0
 16 21  1  0  0  0
 16 31  1  0  0  0
 17 18  1  0  0  0
 17101  1  0  0  0
 18 19  2  0  0  0
 18102  1  0  0  0
 19 20  1  0  0  0
 19 24  1  0  0  0
 20 21  2  0  0  0
 20103  1  0  0  0
 21 23  1  0  0  0
 22 28  1  0  0  0
 22 32  2  0  0  0
 26 27  1  0  0  0
 28104  1  0  0  0
 28105  1  0  0  0
 29106  1  0  0  0
 29107  1  0  0  0
 33 34  1  0  0  0
 33 66  1  0  0  0
 33 70  2  0  0  0
 34 36  1  0  0  0
 34 59  1  0  0  0
 34108  1  0  0  0
 35 44  2  0  0  0
 35 45  1  0  0  0
 35 68  1  0  0  0
 36 56  1  0  0  0
 36109  1  0  0  0
 37 39  1  0  0  0
 37 47  1  0  0  0
 37 66  1  0  0  0
 37110  1  0  0  0
 38 43  2  0  0  0
 38 46  1  0  0  0
 38 47  1  0  0  0
 39 64  1  0  0  0
 39 67  2  0  0  0
 40 52  1  0  0  0
 40 53  2  0  0  0
 40 58  1  0  0  0
 41111  1  0  0  0
 41112  1  0  0  0
 41113  1  0  0  0
 41 48  1  0  0  0
 42 43  1  0  0  0
 42 66  1  0  0  0
 42114  1  0  0  0
 42115  1  0  0  0
 43 44  1  0  0  0
 44116  1  0  0  0
 45 46  2  0  0  0
 45117  1  0  0  0
 46118  1  0  0  0
 47119  1  0  0  0
 47120  1  0  0  0
 48 56  1  0  0  0
 48 65  1  0  0  0
 48121  1  0  0  0
 49 50  1  0  0  0
 49 53  1  0  0  0
 49 64  1  0  0  0
 49122  1  0  0  0
 50 51  1  0  0  0
 50123  1  0  0  0
 50124  1  0  0  0
 51 52  1  0  0  0
 51125  1  0  0  0
 51126  1  0  0  0
 52127  1  0  0  0
 52128  1  0  0  0
 53 54  1  0  0  0
 54 55  2  0  0  0
 54129  1  0  0  0
 55 57  1  0  0  0
 55130  1  0  0  0
 56 69  2  0  0  0
 57 58  2  0  0  0
 57131  1  0  0  0
 58132  1  0  0  0
 59 60  1  0  0  0
 59 61  1  0  0  0
 59 62  1  0  0  0
 60133  1  0  0  0
 60134  1  0  0  0
 60135  1  0  0  0
 61136  1  0  0  0
 61137  1  0  0  0
 61138  1  0  0  0
 62139  1  0  0  0
 62140  1  0  0  0
 62141  1  0  0  0
 63 65  1  0  0  0
 63142  1  0  0  0
 63143  1  0  0  0
 63144  1  0  0  0
 64145  1  0  0  0
 65146  1  0  0  0
 68 83  1  0  0  0
 71 73  2  0  0  0
 71 74  1  0  0  0
 71147  1  0  0  0
 72 73  1  0  0  0
 72 75  2  0  0  0
 72148  1  0  0  0
 73 79  1  0  0  0
 74 80  1  0  0  0
 74 86  2  0  0  0
 75 84  1  0  0  0
 75 86  1  0  0  0
 76149  1  0  0  0
 76150  1  0  0  0
 76151  1  0  0  0
 76 84  1  0  0  0
 77 84  1  0  0  0
 77152  1  0  0  0
 77153  1  0  0  0
 77154  1  0  0  0
 78155  1  0  0  0
 78156  1  0  0  0
 78157  1  0  0  0
 78 85  1  0  0  0
 79 81  1  0  0  0
 79158  1  0  0  0
 79159  1  0  0  0
 80 85  1  0  0  0
 80160  1  0  0  0
 80161  1  0  0  0
 81 82  1  0  0  0
 81162  1  0  0  0
 81163  1  0  0  0
 82 83  1  0  0  0
 82164  1  0  0  0
 82165  1  0  0  0
 83166  1  0  0  0
 83167  1  0  0  0
 84168  1  0  0  0
 85 87  1  0  0  0
 85169  1  0  0  0
 87170  1  0  0  0
M  ISO  4   1 100  68 101  83 101  87 100
M  END
> <chiral flag>
0

> <version>
0

> <s_m_source_file>
/data/baiqing/PycharmProjects/Reinvent-master-3.2/result/LINK_invent/BTK/process_docking_weight1_custom_sum_contain_oxygen_bond_distance_aromatic_linkinvent_7_9_3/rearranged_h_0082.sdf

> <i_m_source_file_index>
84

> <r_mmod_Potential_Energy-OPLS-2005>
18041.8828125

> <r_mmod_Stretch_Energy-OPLS-2005>
11450.1298828125

> <r_mmod_Bend_Energy-OPLS-2005>
983.553039550781

> <r_mmod_Torsional_Energy-OPLS-2005>
381.635345458984

> <r_mmod_Improper_Torsional_Energy-OPLS-2005>
34.8656349182129

> <r_mmod_Van_der_Waal_Energy-OPLS-2005>
4183.62646484375

> <r_mmod_Electrostatic_Energy-OPLS-2005>
-471.490570068359

> <r_mmod_Solvation_Energy-OPLS-2005>
-225.103393554688

> <b_mmod_Minimization_Converged-OPLS-2005>
0

> <r_mmod_RMS_Derivative-OPLS-2005>
11.9290571212769

$$$$
85
                    3D
 Structure written by MMmdl.
168176  0  0  1  0            999 V2000
  -30.7210  -14.4044   20.6230 C   0  0  0  0  0  0
  -30.4205  -12.2869   19.4009 C   0  0  0  0  0  0
  -29.4923  -12.5271   18.1941 C   0  0  0  0  0  0
  -28.0108  -12.3978   18.6032 C   0  0  0  0  0  0
  -27.6673  -13.2049   19.8842 C   0  0  2  0  0  0
  -28.7066  -12.9361   20.9947 C   0  0  0  0  0  0
  -25.2611  -13.8166   20.5680 C   0  0  0  0  0  0
  -24.1856  -13.0441   20.9164 C   0  0  0  0  0  0
  -24.6398  -11.6906   20.8712 C   0  0  0  0  0  0
  -23.9056  -10.4297   21.0392 C   0  0  0  0  0  0
  -24.3613   -9.4221   21.9177 C   0  0  0  0  0  0
  -23.6298   -8.2249   22.0752 C   0  0  0  0  0  0
  -22.4276   -8.0285   21.3548 C   0  0  0  0  0  0
  -21.9904   -9.0249   20.4644 C   0  0  0  0  0  0
  -22.7221  -10.2135   20.3051 C   0  0  0  0  0  0
  -21.6857   -6.0742   22.5282 C   0  0  0  0  0  0
  -21.4010   -6.5645   23.8213 C   0  0  0  0  0  0
  -21.3663   -5.6800   24.9174 C   0  0  0  0  0  0
  -21.6046   -4.3061   24.7224 C   0  0  0  0  0  0
  -21.8818   -3.8153   23.4343 C   0  0  0  0  0  0
  -21.9194   -4.6970   22.3403 C   0  0  0  0  0  0
  -22.7878  -13.5239   21.1839 C   0  0  0  0  0  0
  -22.1667   -4.2159   21.0981 F   0  0  0  0  0  0
  -21.5630   -3.4545   25.7735 F   0  0  0  0  0  0
  -30.0425  -13.2415   20.4513 N   0  0  0  0  0  0
  -26.3054  -12.9324   20.3399 N   0  0  0  0  0  0
  -25.9326  -11.6482   20.5749 N   0  0  0  0  0  0
  -22.0515  -12.8229   22.0391 N   0  0  0  0  0  0
  -25.4353  -15.1883   20.4099 N   0  0  0  0  0  0
  -31.8199  -14.6318   20.1085 O   0  0  0  0  0  0
  -21.6645   -6.8877   21.4245 O   0  0  0  0  0  0
  -22.3566  -14.5557   20.6711 O   0  0  0  0  0  0
  -24.6133  -31.8683   23.2119 C   0  0  0  0  0  0
  -25.9033  -32.4824   23.8410 C   0  0  1  0  0  0
  -27.2303  -27.4541   20.0866 C   0  0  0  0  0  0
  -25.5898  -33.8626   24.2345 N   0  0  0  0  0  0
  -23.3991  -30.4938   21.5512 C   0  0  2  0  0  0
  -24.8417  -28.9640   20.1141 C   0  0  0  0  0  0
  -22.7403  -29.4657   22.4985 C   0  0  0  0  0  0
  -18.0268  -28.1372   22.8493 C   0  0  0  0  0  0
  -24.1481  -36.7318   23.2640 C   0  0  0  0  0  0
  -25.9253  -30.8429   21.3593 C   0  0  0  0  0  0
  -26.0007  -29.4782   20.7076 C   0  0  0  0  0  0
  -27.1957  -28.7299   20.6900 C   0  0  0  0  0  0
  -26.0529  -26.9499   19.4872 C   0  0  0  0  0  0
  -24.8621  -27.6986   19.5038 C   0  0  0  0  0  0
  -23.6049  -29.8294   20.1637 C   0  0  0  0  0  0
  -25.4100  -36.3116   24.0347 C   0  0  1  0  0  0
  -20.5861  -28.3651   23.1324 C   0  0  2  0  0  0
  -20.6760  -26.9389   22.5421 C   0  0  0  0  0  0
  -19.5739  -26.6381   21.5217 C   0  0  0  0  0  0
  -18.1913  -26.7916   22.1623 C   0  0  0  0  0  0
  -19.1520  -28.8827   23.2905 C   0  0  0  0  0  0
  -18.9449  -30.1428   23.8921 C   0  0  0  0  0  0
  -17.6456  -30.6579   24.0564 C   0  0  0  0  0  0
  -25.9030  -34.9479   23.5143 C   0  0  0  0  0  0
  -16.5345  -29.9086   23.6323 C   0  0  0  0  0  0
  -16.7259  -28.6500   23.0346 C   0  0  0  0  0  0
  -26.4473  -31.6595   25.0727 C   0  0  0  0  0  0
  -25.3750  -31.3694   26.1482 C   0  0  0  0  0  0
  -27.0303  -30.3047   24.6070 C   0  0  0  0  0  0
  -27.6056  -32.4304   25.7492 C   0  0  0  0  0  0
  -27.5578  -37.1815   24.8469 C   0  0  0  0  0  0
  -21.4131  -29.3027   22.3736 N   0  0  0  0  0  0
  -26.4289  -37.3798   23.9419 N   0  0  0  0  0  0
  -24.6647  -31.0815   22.1000 N   0  0  0  0  0  0
  -23.4187  -28.8184   23.3005 O   0  0  0  0  0  0
  -28.4265  -26.7729   20.0886 O   0  0  0  0  0  0
  -26.5580  -34.8927   22.4697 O   0  0  0  0  0  0
  -23.5330  -32.1418   23.7528 O   0  0  0  0  0  0
  -29.5271  -20.2826   20.6289 C   0  0  0  0  0  0
  -31.6022  -20.8343   20.9589 C   0  0  0  0  0  0
  -30.3009  -19.1428   20.6806 C   0  0  0  0  0  0
  -30.2063  -17.3183   18.9833 C   0  0  0  0  0  0
  -28.8035  -22.5847   23.0035 C   0  0  0  0  0  0
  -27.1900  -25.0658   22.3185 C   0  0  0  0  0  0
  -29.6520  -25.5262   22.3553 C   0  0  0  0  0  0
  -30.0596  -22.7900   20.7855 C   0  0  0  0  0  0
  -30.4766  -16.7402   21.4923 C   0  0  0  0  0  0
  -28.4492  -25.3401   20.1432 C   0  0  0  0  0  0
  -29.8862  -17.7117   20.4350 C   0  0  1  0  0  0
  -28.7928  -23.2188   21.5875 C   0  0  2  0  0  0
  -28.5308  -24.7769   21.5989 C   0  0  0  0  0  0
  -31.6351  -19.5084   20.8691 N   0  0  0  0  0  0
  -30.3796  -21.3667   20.8235 N   0  0  0  0  0  0
  -30.0563  -15.3468   21.3053 N   0  0  0  0  0  0
  -31.4654  -12.3856   19.1010 H   0  0  0  0  0  0
  -30.3129  -11.2648   19.7677 H   0  0  0  0  0  0
  -29.7230  -11.8220   17.3944 H   0  0  0  0  0  0
  -29.6750  -13.5220   17.7838 H   0  0  0  0  0  0
  -27.7967  -11.3402   18.7613 H   0  0  0  0  0  0
  -27.3699  -12.7168   17.7805 H   0  0  0  0  0  0
  -27.7266  -14.2621   19.6246 H   0  0  0  0  0  0
  -28.6707  -11.8880   21.2964 H   0  0  0  0  0  0
  -28.4697  -13.4978   21.8984 H   0  0  0  0  0  0
  -25.2758   -9.5710   22.4748 H   0  0  0  0  0  0
  -24.0020   -7.4641   22.7467 H   0  0  0  0  0  0
  -21.0841   -8.8752   19.8946 H   0  0  0  0  0  0
  -22.3671  -10.9670   19.6163 H   0  0  0  0  0  0
  -21.1995   -7.6150   23.9717 H   0  0  0  0  0  0
  -21.1494   -6.0532   25.9082 H   0  0  0  0  0  0
  -22.0595   -2.7616   23.2843 H   0  0  0  0  0  0
  -22.4137  -11.9890   22.4774 H   0  0  0  0  0  0
  -21.1132  -13.1264   22.2590 H   0  0  0  0  0  0
  -24.6725  -15.8479   20.5179 H   0  0  0  0  0  0
  -26.2942  -15.6237   20.0982 H   0  0  0  0  0  0
  -26.7108  -32.5543   23.1181 H   0  0  0  0  0  0
  -25.0092  -33.9792   25.0517 H   0  0  0  0  0  0
  -22.6874  -31.3100   21.4136 H   0  0  0  0  0  0
  -23.3739  -35.9656   23.3316 H   0  0  0  0  0  0
  -24.3580  -36.8913   22.2052 H   0  0  0  0  0  0
  -23.7235  -37.6533   23.6637 H   0  0  0  0  0  0
  -26.0317  -31.6098   20.5902 H   0  0  0  0  0  0
  -26.8170  -30.8980   21.9728 H   0  0  0  0  0  0
  -28.0937  -29.1217   21.1482 H   0  0  0  0  0  0
  -26.0310  -25.9957   18.9851 H   0  0  0  0  0  0
  -23.9727  -27.3004   19.0355 H   0  0  0  0  0  0
  -23.7127  -30.6055   19.4045 H   0  0  0  0  0  0
  -22.7291  -29.2490   19.8682 H   0  0  0  0  0  0
  -25.1270  -36.1996   25.0842 H   0  0  0  0  0  0
  -20.9955  -28.3210   24.1442 H   0  0  0  0  0  0
  -20.5671  -26.2252   23.3598 H   0  0  0  0  0  0
  -21.6624  -26.7437   22.1203 H   0  0  0  0  0  0
  -19.6903  -25.6300   21.1221 H   0  0  0  0  0  0
  -19.6681  -27.3210   20.6760 H   0  0  0  0  0  0
  -17.4186  -26.6671   21.4020 H   0  0  0  0  0  0
  -18.0303  -26.0059   22.9018 H   0  0  0  0  0  0
  -19.7929  -30.7226   24.2310 H   0  0  0  0  0  0
  -17.5015  -31.6263   24.5149 H   0  0  0  0  0  0
  -15.5346  -30.2996   23.7630 H   0  0  0  0  0  0
  -15.8657  -28.0825   22.7054 H   0  0  0  0  0  0
  -24.5941  -30.7013   25.7837 H   0  0  0  0  0  0
  -24.8917  -32.2841   26.4924 H   0  0  0  0  0  0
  -25.8119  -30.8890   27.0244 H   0  0  0  0  0  0
  -26.2843  -29.6810   24.1127 H   0  0  0  0  0  0
  -27.4105  -29.7274   25.4509 H   0  0  0  0  0  0
  -27.8659  -30.4389   23.9193 H   0  0  0  0  0  0
  -27.2693  -33.3606   26.2087 H   0  0  0  0  0  0
  -28.3868  -32.6855   25.0317 H   0  0  0  0  0  0
  -28.0719  -31.8408   26.5396 H   0  0  0  0  0  0
  -28.2600  -38.0105   24.7509 H   0  0  0  0  0  0
  -28.1063  -36.2637   24.6296 H   0  0  0  0  0  0
  -27.2297  -37.1474   25.8872 H   0  0  0  0  0  0
  -20.9272  -29.8788   21.7005 H   0  0  0  0  0  0
  -26.0181  -38.2882   24.1414 H   0  0  0  0  0  0
  -28.4669  -20.4073   20.4530 H   0  0  0  0  0  0
  -32.4915  -21.4346   21.0971 H   0  0  0  0  0  0
  -29.7562  -18.0263   18.2871 H   0  0  0  0  0  0
  -29.8176  -16.3331   18.7289 H   0  0  0  0  0  0
  -31.2823  -17.3154   18.8067 H   0  0  0  0  0  0
  -28.8732  -21.4987   22.9634 H   0  0  0  0  0  0
  -27.8919  -22.7857   23.5625 H   0  0  0  0  0  0
  -29.6479  -22.9326   23.5974 H   0  0  0  0  0  0
  -26.9344  -26.1229   22.2994 H   0  0  0  0  0  0
  -27.2198  -24.8069   23.3753 H   0  0  0  0  0  0
  -26.3610  -24.5226   21.8632 H   0  0  0  0  0  0
  -29.4403  -26.5943   22.4129 H   0  0  0  0  0  0
  -30.6179  -25.4269   21.8616 H   0  0  0  0  0  0
  -29.7626  -25.1775   23.3814 H   0  0  0  0  0  0
  -30.9313  -23.3284   21.1566 H   0  0  0  0  0  0
  -29.9642  -23.0467   19.7317 H   0  0  0  0  0  0
  -30.1570  -17.0553   22.4860 H   0  0  0  0  0  0
  -31.5667  -16.8023   21.4961 H   0  0  0  0  0  0
  -27.6515  -24.8554   19.5843 H   0  0  0  0  0  0
  -29.3578  -25.0915   19.5998 H   0  0  0  0  0  0
  -28.8010  -17.6591   20.5381 H   0  0  0  0  0  0
  -27.9441  -22.7701   21.0679 H   0  0  0  0  0  0
  -29.1563  -15.0822   21.6777 H   0  0  0  0  0  0
  1 25  1  0  0  0
  1 30  2  0  0  0
  1 86  1  0  0  0
  2  3  1  0  0  0
  2 25  1  0  0  0
  2 87  1  0  0  0
  2 88  1  0  0  0
  3  4  1  0  0  0
  3 89  1  0  0  0
  3 90  1  0  0  0
  4  5  1  0  0  0
  4 91  1  0  0  0
  4 92  1  0  0  0
  5  6  1  0  0  0
  5 26  1  0  0  0
  5 93  1  0  0  0
  6 25  1  0  0  0
  6 94  1  0  0  0
  6 95  1  0  0  0
  7  8  2  0  0  0
  7 26  1  0  0  0
  7 29  1  0  0  0
  8  9  1  0  0  0
  8 22  1  0  0  0
  9 10  1  0  0  0
  9 27  2  0  0  0
 10 11  2  0  0  0
 10 15  1  0  0  0
 11 12  1  0  0  0
 11 96  1  0  0  0
 12 13  2  0  0  0
 12 97  1  0  0  0
 13 14  1  0  0  0
 13 31  1  0  0  0
 14 15  2  0  0  0
 14 98  1  0  0  0
 15 99  1  0  0  0
 16 17  2  0  0  0
 16 21  1  0  0  0
 16 31  1  0  0  0
 17 18  1  0  0  0
 17100  1  0  0  0
 18 19  2  0  0  0
 18101  1  0  0  0
 19 20  1  0  0  0
 19 24  1  0  0  0
 20 21  2  0  0  0
 20102  1  0  0  0
 21 23  1  0  0  0
 22 28  1  0  0  0
 22 32  2  0  0  0
 26 27  1  0  0  0
 28103  1  0  0  0
 28104  1  0  0  0
 29105  1  0  0  0
 29106  1  0  0  0
 33 34  1  0  0  0
 33 66  1  0  0  0
 33 70  2  0  0  0
 34 36  1  0  0  0
 34 59  1  0  0  0
 34107  1  0  0  0
 35 44  2  0  0  0
 35 45  1  0  0  0
 35 68  1  0  0  0
 36 56  1  0  0  0
 36108  1  0  0  0
 37 39  1  0  0  0
 37 47  1  0  0  0
 37 66  1  0  0  0
 37109  1  0  0  0
 38 43  2  0  0  0
 38 46  1  0  0  0
 38 47  1  0  0  0
 39 64  1  0  0  0
 39 67  2  0  0  0
 40 52  1  0  0  0
 40 53  2  0  0  0
 40 58  1  0  0  0
 41110  1  0  0  0
 41111  1  0  0  0
 41112  1  0  0  0
 41 48  1  0  0  0
 42 43  1  0  0  0
 42 66  1  0  0  0
 42113  1  0  0  0
 42114  1  0  0  0
 43 44  1  0  0  0
 44115  1  0  0  0
 45 46  2  0  0  0
 45116  1  0  0  0
 46117  1  0  0  0
 47118  1  0  0  0
 47119  1  0  0  0
 48 56  1  0  0  0
 48 65  1  0  0  0
 48120  1  0  0  0
 49 50  1  0  0  0
 49 53  1  0  0  0
 49 64  1  0  0  0
 49121  1  0  0  0
 50 51  1  0  0  0
 50122  1  0  0  0
 50123  1  0  0  0
 51 52  1  0  0  0
 51124  1  0  0  0
 51125  1  0  0  0
 52126  1  0  0  0
 52127  1  0  0  0
 53 54  1  0  0  0
 54 55  2  0  0  0
 54128  1  0  0  0
 55 57  1  0  0  0
 55129  1  0  0  0
 56 69  2  0  0  0
 57 58  2  0  0  0
 57130  1  0  0  0
 58131  1  0  0  0
 59 60  1  0  0  0
 59 61  1  0  0  0
 59 62  1  0  0  0
 60132  1  0  0  0
 60133  1  0  0  0
 60134  1  0  0  0
 61135  1  0  0  0
 61136  1  0  0  0
 61137  1  0  0  0
 62138  1  0  0  0
 62139  1  0  0  0
 62140  1  0  0  0
 63 65  1  0  0  0
 63141  1  0  0  0
 63142  1  0  0  0
 63143  1  0  0  0
 64144  1  0  0  0
 65145  1  0  0  0
 68 80  1  0  0  0
 71 73  2  0  0  0
 71 85  1  0  0  0
 71146  1  0  0  0
 72 84  2  0  0  0
 72 85  1  0  0  0
 72147  1  0  0  0
 73 81  1  0  0  0
 73 84  1  0  0  0
 74148  1  0  0  0
 74149  1  0  0  0
 74150  1  0  0  0
 74 81  1  0  0  0
 75151  1  0  0  0
 75152  1  0  0  0
 75153  1  0  0  0
 75 82  1  0  0  0
 76154  1  0  0  0
 76155  1  0  0  0
 76156  1  0  0  0
 76 83  1  0  0  0
 77 83  1  0  0  0
 77157  1  0  0  0
 77158  1  0  0  0
 77159  1  0  0  0
 78 82  1  0  0  0
 78 85  1  0  0  0
 78160  1  0  0  0
 78161  1  0  0  0
 79 81  1  0  0  0
 79 86  1  0  0  0
 79162  1  0  0  0
 79163  1  0  0  0
 80 83  1  0  0  0
 80164  1  0  0  0
 80165  1  0  0  0
 81166  1  0  0  0
 82 83  1  0  0  0
 82167  1  0  0  0
 86168  1  0  0  0
M  ISO  4   1 100  68 101  80 101  86 100
M  END
> <chiral flag>
0

> <version>
0

> <s_m_source_file>
/data/baiqing/PycharmProjects/Reinvent-master-3.2/result/LINK_invent/BTK/process_docking_weight1_custom_sum_contain_oxygen_bond_distance_aromatic_linkinvent_7_9_3/rearranged_h_0082.sdf

> <i_m_source_file_index>
85

> <r_mmod_Potential_Energy-OPLS-2005>
-101.206924438477

> <r_mmod_Stretch_Energy-OPLS-2005>
38.4961166381836

> <r_mmod_Bend_Energy-OPLS-2005>
119.249839782715

> <r_mmod_Torsional_Energy-OPLS-2005>
212.800704956055

> <r_mmod_Improper_Torsional_Energy-OPLS-2005>
3.34190607070923

> <r_mmod_Van_der_Waal_Energy-OPLS-2005>
140.356735229492

> <r_mmod_Electrostatic_Energy-OPLS-2005>
-405.0947265625

> <r_mmod_Solvation_Energy-OPLS-2005>
-219.089080810547

> <b_mmod_Minimization_Converged-OPLS-2005>
0

> <r_mmod_RMS_Derivative-OPLS-2005>
1.34186697006226

$$$$
86
                    3D
 Structure written by MMmdl.
149156  0  0  1  0            999 V2000
  -30.2909  -15.5468   20.3700 C   0  0  0  0  0  0
  -30.4273  -13.0087   19.5700 C   0  0  0  0  0  0
  -29.5586  -12.6454   18.3337 C   0  0  0  0  0  0
  -28.1215  -12.2972   18.7586 C   0  0  0  0  0  0
  -27.5936  -13.2972   19.8132 C   0  0  2  0  0  0
  -28.5975  -13.5857   20.9471 C   0  0  0  0  0  0
  -25.2303  -13.8291   20.5729 C   0  0  0  0  0  0
  -24.1678  -13.0442   20.9286 C   0  0  0  0  0  0
  -24.6377  -11.6966   20.8768 C   0  0  0  0  0  0
  -23.9102  -10.4297   21.0413 C   0  0  0  0  0  0
  -24.3631   -9.4217   21.9216 C   0  0  0  0  0  0
  -23.6295   -8.2252   22.0773 C   0  0  0  0  0  0
  -22.4271   -8.0277   21.3562 C   0  0  0  0  0  0
  -21.9925   -9.0255   20.4659 C   0  0  0  0  0  0
  -22.7269  -10.2142   20.3076 C   0  0  0  0  0  0
  -21.6849   -6.0743   22.5288 C   0  0  0  0  0  0
  -21.4012   -6.5654   23.8229 C   0  0  0  0  0  0
  -21.3657   -5.6801   24.9184 C   0  0  0  0  0  0
  -21.6031   -4.3062   24.7220 C   0  0  0  0  0  0
  -21.8819   -3.8165   23.4337 C   0  0  0  0  0  0
  -21.9193   -4.6975   22.3402 C   0  0  0  0  0  0
  -22.7702  -13.5192   21.1902 C   0  0  0  0  0  0
  -22.1656   -4.2178   21.0964 F   0  0  0  0  0  0
  -21.5625   -3.4525   25.7730 F   0  0  0  0  0  0
  -29.7884  -14.1845   20.3129 N   0  0  0  0  0  0
  -26.2711  -12.9591   20.3132 N   0  0  0  0  0  0
  -25.9309  -11.6681   20.5657 N   0  0  0  0  0  0
  -22.0289  -12.8226   22.0449 N   0  0  0  0  0  0
  -25.3868  -15.2018   20.4214 N   0  0  0  0  0  0
  -31.5258  -15.5178   20.2096 O   0  0  0  0  0  0
  -21.6628   -6.8876   21.4245 O   0  0  0  0  0  0
  -22.3412  -14.5464   20.6686 O   0  0  0  0  0  0
  -24.6854  -31.8023   23.1516 C   0  0  0  0  0  0
  -25.9437  -32.4474   23.8085 C   0  0  1  0  0  0
  -27.2046  -26.7196   20.2329 C   0  0  0  0  0  0
  -25.6033  -33.8292   24.2019 N   0  0  0  0  0  0
  -23.5082  -30.4055   21.5045 C   0  0  2  0  0  0
  -24.9610  -28.7482   20.1224 C   0  0  0  0  0  0
  -22.7762  -29.4342   22.4728 C   0  0  0  0  0  0
  -18.0325  -28.1484   22.8462 C   0  0  0  0  0  0
  -24.1483  -36.7136   23.2636 C   0  0  0  0  0  0
  -26.0855  -30.5486   21.4014 C   0  0  0  0  0  0
  -26.1504  -29.1093   20.7657 C   0  0  0  0  0  0
  -27.2648  -28.1227   20.7841 C   0  0  0  0  0  0
  -25.9879  -26.5602   19.5282 C   0  0  0  0  0  0
  -24.9168  -27.5010   19.4797 C   0  0  0  0  0  0
  -23.7593  -29.7023   20.1386 C   0  0  0  0  0  0
  -25.4118  -36.2875   24.0295 C   0  0  1  0  0  0
  -20.5983  -28.3796   23.1165 C   0  0  2  0  0  0
  -20.6802  -26.9470   22.5402 C   0  0  0  0  0  0
  -19.5773  -26.6431   21.5230 C   0  0  0  0  0  0
  -18.1961  -26.8028   22.1634 C   0  0  0  0  0  0
  -19.1607  -28.8975   23.2787 C   0  0  0  0  0  0
  -18.9522  -30.1566   23.8845 C   0  0  0  0  0  0
  -17.6513  -30.6646   24.0613 C   0  0  0  0  0  0
  -25.9099  -34.9272   23.4974 C   0  0  0  0  0  0
  -16.5397  -29.9159   23.6372 C   0  0  0  0  0  0
  -16.7307  -28.6587   23.0372 C   0  0  0  0  0  0
  -26.4638  -31.6451   25.0680 C   0  0  0  0  0  0
  -25.3732  -31.3765   26.1318 C   0  0  0  0  0  0
  -27.0469  -30.2789   24.6457 C   0  0  0  0  0  0
  -27.6129  -32.4230   25.7517 C   0  0  0  0  0  0
  -27.5533  -37.1724   24.8479 C   0  0  0  0  0  0
  -21.4411  -29.3062   22.3498 N   0  0  0  0  0  0
  -26.4247  -37.3626   23.9408 N   0  0  0  0  0  0
  -24.7841  -30.9499   22.0751 N   0  0  0  0  0  0
  -23.4225  -28.7884   23.2996 O   0  0  0  0  0  0
  -28.1618  -25.5105   20.3141 O   0  0  0  0  0  0
  -26.5695  -34.8861   22.4565 O   0  0  0  0  0  0
  -23.5882  -32.1069   23.6489 O   0  0  0  0  0  0
  -27.3941  -20.0074   21.2821 C   0  0  0  0  0  0
  -27.9857  -20.0093   18.9027 C   0  0  0  0  0  0
  -28.8670  -22.1060   20.3928 C   0  0  0  0  0  0
  -29.6595  -18.6284   20.4690 C   0  0  0  0  0  0
  -27.9170  -23.7806   20.2937 C   0  0  0  0  0  0
  -28.5760  -20.2087   20.3072 C   0  0  0  0  0  0
  -29.4924  -16.8727   20.4329 N   0  0  0  0  0  0
  -31.4384  -13.2492   19.2394 H   0  0  0  0  0  0
  -30.5433  -12.1455   20.2292 H   0  0  0  0  0  0
  -30.0055  -11.8183   17.7827 H   0  0  0  0  0  0
  -29.5433  -13.4946   17.6503 H   0  0  0  0  0  0
  -28.1363  -11.2943   19.1810 H   0  0  0  0  0  0
  -27.4644  -12.2565   17.8897 H   0  0  0  0  0  0
  -27.4741  -14.2291   19.2605 H   0  0  0  0  0  0
  -28.8255  -12.6896   21.5293 H   0  0  0  0  0  0
  -28.1658  -14.3003   21.6481 H   0  0  0  0  0  0
  -25.2772   -9.5673   22.4805 H   0  0  0  0  0  0
  -23.9991   -7.4645   22.7514 H   0  0  0  0  0  0
  -21.0864   -8.8793   19.8982 H   0  0  0  0  0  0
  -22.3742  -10.9667   19.6176 H   0  0  0  0  0  0
  -21.2015   -7.6167   23.9742 H   0  0  0  0  0  0
  -21.1468   -6.0515   25.9082 H   0  0  0  0  0  0
  -22.0600   -2.7617   23.2823 H   0  0  0  0  0  0
  -22.3864  -11.9873   22.4879 H   0  0  0  0  0  0
  -21.0875  -13.1269   22.2584 H   0  0  0  0  0  0
  -24.6078  -15.8367   20.5509 H   0  0  0  0  0  0
  -26.1978  -15.6475   20.0150 H   0  0  0  0  0  0
  -26.7520  -32.4977   23.0816 H   0  0  0  0  0  0
  -25.0280  -33.9325   25.0253 H   0  0  0  0  0  0
  -22.8301  -31.2396   21.3095 H   0  0  0  0  0  0
  -23.3744  -35.9451   23.3297 H   0  0  0  0  0  0
  -24.3562  -36.8784   22.2039 H   0  0  0  0  0  0
  -23.7260  -37.6335   23.6713 H   0  0  0  0  0  0
  -26.2629  -31.2576   20.5924 H   0  0  0  0  0  0
  -26.9505  -30.6397   22.0456 H   0  0  0  0  0  0
  -28.1703  -28.4035   21.3080 H   0  0  0  0  0  0
  -25.8206  -25.6132   19.0338 H   0  0  0  0  0  0
  -24.0136  -27.2127   18.9632 H   0  0  0  0  0  0
  -23.9461  -30.4569   19.3733 H   0  0  0  0  0  0
  -22.8662  -29.1654   19.8142 H   0  0  0  0  0  0
  -25.1325  -36.1649   25.0778 H   0  0  0  0  0  0
  -21.0076  -28.3438   24.1298 H   0  0  0  0  0  0
  -20.5709  -26.2418   23.3640 H   0  0  0  0  0  0
  -21.6654  -26.7458   22.1212 H   0  0  0  0  0  0
  -19.6920  -25.6333   21.1287 H   0  0  0  0  0  0
  -19.6754  -27.3220   20.6752 H   0  0  0  0  0  0
  -17.4231  -26.6788   21.4039 H   0  0  0  0  0  0
  -18.0343  -26.0211   22.9065 H   0  0  0  0  0  0
  -19.7991  -30.7413   24.2203 H   0  0  0  0  0  0
  -17.5054  -31.6319   24.5237 H   0  0  0  0  0  0
  -15.5397  -30.3057   23.7718 H   0  0  0  0  0  0
  -15.8706  -28.0894   22.7117 H   0  0  0  0  0  0
  -24.6030  -30.6947   25.7711 H   0  0  0  0  0  0
  -24.8778  -32.2942   26.4460 H   0  0  0  0  0  0
  -25.7970  -30.9210   27.0269 H   0  0  0  0  0  0
  -26.3110  -29.6496   24.1437 H   0  0  0  0  0  0
  -27.3925  -29.7147   25.5128 H   0  0  0  0  0  0
  -27.9109  -30.3920   23.9906 H   0  0  0  0  0  0
  -27.2764  -33.3624   26.1904 H   0  0  0  0  0  0
  -28.4104  -32.6587   25.0464 H   0  0  0  0  0  0
  -28.0612  -31.8428   26.5591 H   0  0  0  0  0  0
  -28.2568  -38.0001   24.7458 H   0  0  0  0  0  0
  -28.1022  -36.2529   24.6406 H   0  0  0  0  0  0
  -27.2238  -37.1469   25.8880 H   0  0  0  0  0  0
  -20.9689  -29.8724   21.6591 H   0  0  0  0  0  0
  -26.0090  -38.2667   24.1433 H   0  0  0  0  0  0
  -27.0081  -18.9856   21.2663 H   0  0  0  0  0  0
  -26.5550  -20.6577   21.0183 H   0  0  0  0  0  0
  -27.6594  -20.2527   22.3100 H   0  0  0  0  0  0
  -27.4500  -19.0610   18.8330 H   0  0  0  0  0  0
  -28.7740  -19.9932   18.1509 H   0  0  0  0  0  0
  -27.2758  -20.7926   18.6323 H   0  0  0  0  0  0
  -29.6406  -22.2510   19.6423 H   0  0  0  0  0  0
  -29.4028  -22.1900   21.3386 H   0  0  0  0  0  0
  -30.1969  -18.7848   21.4075 H   0  0  0  0  0  0
  -30.4228  -18.7844   19.7095 H   0  0  0  0  0  0
  -27.2874  -23.6535   19.4154 H   0  0  0  0  0  0
  -27.2087  -23.6801   21.1192 H   0  0  0  0  0  0
  -28.5167  -16.6291   20.5106 H   0  0  0  0  0  0
  1 25  1  0  0  0
  1 30  2  0  0  0
  1 77  1  0  0  0
  2  3  1  0  0  0
  2 25  1  0  0  0
  2 78  1  0  0  0
  2 79  1  0  0  0
  3  4  1  0  0  0
  3 80  1  0  0  0
  3 81  1  0  0  0
  4  5  1  0  0  0
  4 82  1  0  0  0
  4 83  1  0  0  0
  5  6  1  0  0  0
  5 26  1  0  0  0
  5 84  1  0  0  0
  6 25  1  0  0  0
  6 85  1  0  0  0
  6 86  1  0  0  0
  7  8  2  0  0  0
  7 26  1  0  0  0
  7 29  1  0  0  0
  8  9  1  0  0  0
  8 22  1  0  0  0
  9 10  1  0  0  0
  9 27  2  0  0  0
 10 11  2  0  0  0
 10 15  1  0  0  0
 11 12  1  0  0  0
 11 87  1  0  0  0
 12 13  2  0  0  0
 12 88  1  0  0  0
 13 14  1  0  0  0
 13 31  1  0  0  0
 14 15  2  0  0  0
 14 89  1  0  0  0
 15 90  1  0  0  0
 16 17  2  0  0  0
 16 21  1  0  0  0
 16 31  1  0  0  0
 17 18  1  0  0  0
 17 91  1  0  0  0
 18 19  2  0  0  0
 18 92  1  0  0  0
 19 20  1  0  0  0
 19 24  1  0  0  0
 20 21  2  0  0  0
 20 93  1  0  0  0
 21 23  1  0  0  0
 22 28  1  0  0  0
 22 32  2  0  0  0
 26 27  1  0  0  0
 28 94  1  0  0  0
 28 95  1  0  0  0
 29 96  1  0  0  0
 29 97  1  0  0  0
 33 34  1  0  0  0
 33 66  1  0  0  0
 33 70  2  0  0  0
 34 36  1  0  0  0
 34 59  1  0  0  0
 34 98  1  0  0  0
 35 44  2  0  0  0
 35 45  1  0  0  0
 35 68  1  0  0  0
 36 56  1  0  0  0
 36 99  1  0  0  0
 37 39  1  0  0  0
 37 47  1  0  0  0
 37 66  1  0  0  0
 37100  1  0  0  0
 38 43  2  0  0  0
 38 46  1  0  0  0
 38 47  1  0  0  0
 39 64  1  0  0  0
 39 67  2  0  0  0
 40 52  1  0  0  0
 40 53  2  0  0  0
 40 58  1  0  0  0
 41101  1  0  0  0
 41102  1  0  0  0
 41103  1  0  0  0
 41 48  1  0  0  0
 42 43  1  0  0  0
 42 66  1  0  0  0
 42104  1  0  0  0
 42105  1  0  0  0
 43 44  1  0  0  0
 44106  1  0  0  0
 45 46  2  0  0  0
 45107  1  0  0  0
 46108  1  0  0  0
 47109  1  0  0  0
 47110  1  0  0  0
 48 56  1  0  0  0
 48 65  1  0  0  0
 48111  1  0  0  0
 49 50  1  0  0  0
 49 53  1  0  0  0
 49 64  1  0  0  0
 49112  1  0  0  0
 50 51  1  0  0  0
 50113  1  0  0  0
 50114  1  0  0  0
 51 52  1  0  0  0
 51115  1  0  0  0
 51116  1  0  0  0
 52117  1  0  0  0
 52118  1  0  0  0
 53 54  1  0  0  0
 54 55  2  0  0  0
 54119  1  0  0  0
 55 57  1  0  0  0
 55120  1  0  0  0
 56 69  2  0  0  0
 57 58  2  0  0  0
 57121  1  0  0  0
 58122  1  0  0  0
 59 60  1  0  0  0
 59 61  1  0  0  0
 59 62  1  0  0  0
 60123  1  0  0  0
 60124  1  0  0  0
 60125  1  0  0  0
 61126  1  0  0  0
 61127  1  0  0  0
 61128  1  0  0  0
 62129  1  0  0  0
 62130  1  0  0  0
 62131  1  0  0  0
 63 65  1  0  0  0
 63132  1  0  0  0
 63133  1  0  0  0
 63134  1  0  0  0
 64135  1  0  0  0
 65136  1  0  0  0
 68 75  1  0  0  0
 71137  1  0  0  0
 71138  1  0  0  0
 71139  1  0  0  0
 71 76  1  0  0  0
 72 76  1  0  0  0
 72140  1  0  0  0
 72141  1  0  0  0
 72142  1  0  0  0
 73 75  1  0  0  0
 73 76  1  0  0  0
 73143  1  0  0  0
 73144  1  0  0  0
 74 76  1  0  0  0
 74 77  1  0  0  0
 74145  1  0  0  0
 74146  1  0  0  0
 75147  1  0  0  0
 75148  1  0  0  0
 77149  1  0  0  0
M  ISO  4   1 100  68 101  75 101  77 100
M  END
> <chiral flag>
0

> <version>
0

> <s_m_source_file>
/data/baiqing/PycharmProjects/Reinvent-master-3.2/result/LINK_invent/BTK/process_docking_weight1_custom_sum_contain_oxygen_bond_distance_aromatic_linkinvent_7_9_3/rearranged_h_0082.sdf

> <i_m_source_file_index>
86

> <r_mmod_Potential_Energy-OPLS-2005>
2263.390625

> <r_mmod_Stretch_Energy-OPLS-2005>
1094.16040039062

> <r_mmod_Bend_Energy-OPLS-2005>
604.043151855469

> <r_mmod_Torsional_Energy-OPLS-2005>
227.648651123047

> <r_mmod_Improper_Torsional_Energy-OPLS-2005>
3.4969596862793

> <r_mmod_Van_der_Waal_Energy-OPLS-2005>
105.44490814209

> <r_mmod_Electrostatic_Energy-OPLS-2005>
-385.550170898438

> <r_mmod_Solvation_Energy-OPLS-2005>
-207.854522705078

> <b_mmod_Minimization_Converged-OPLS-2005>
0

> <r_mmod_RMS_Derivative-OPLS-2005>
5.92256784439087

$$$$
87
                    3D
 Structure written by MMmdl.
158166  0  0  1  0            999 V2000
  -30.7160  -14.4039   20.5980 C   0  0  0  0  0  0
  -30.4235  -12.2645   19.4205 C   0  0  0  0  0  0
  -29.4976  -12.4885   18.2056 C   0  0  0  0  0  0
  -28.0158  -12.3653   18.6154 C   0  0  0  0  0  0
  -27.6689  -13.1959   19.8807 C   0  0  2  0  0  0
  -28.7032  -12.9410   21.0004 C   0  0  0  0  0  0
  -25.2629  -13.8142   20.5655 C   0  0  0  0  0  0
  -24.1843  -13.0447   20.9142 C   0  0  0  0  0  0
  -24.6374  -11.6911   20.8721 C   0  0  0  0  0  0
  -23.9033  -10.4313   21.0418 C   0  0  0  0  0  0
  -24.3592   -9.4230   21.9185 C   0  0  0  0  0  0
  -23.6283   -8.2253   22.0752 C   0  0  0  0  0  0
  -22.4267   -8.0285   21.3542 C   0  0  0  0  0  0
  -21.9896   -9.0262   20.4643 C   0  0  0  0  0  0
  -22.7211  -10.2149   20.3061 C   0  0  0  0  0  0
  -21.6865   -6.0738   22.5277 C   0  0  0  0  0  0
  -21.4023   -6.5649   23.8210 C   0  0  0  0  0  0
  -21.3659   -5.6804   24.9169 C   0  0  0  0  0  0
  -21.6042   -4.3061   24.7219 C   0  0  0  0  0  0
  -21.8824   -3.8153   23.4343 C   0  0  0  0  0  0
  -21.9189   -4.6968   22.3400 C   0  0  0  0  0  0
  -22.7882  -13.5293   21.1815 C   0  0  0  0  0  0
  -22.1657   -4.2157   21.0977 F   0  0  0  0  0  0
  -21.5614   -3.4538   25.7728 F   0  0  0  0  0  0
  -30.0455  -13.2315   20.4613 N   0  0  0  0  0  0
  -26.3054  -12.9289   20.3372 N   0  0  0  0  0  0
  -25.9301  -11.6459   20.5755 N   0  0  0  0  0  0
  -22.0498  -12.8300   22.0373 N   0  0  0  0  0  0
  -25.4412  -15.1844   20.4032 N   0  0  0  0  0  0
  -31.8028  -14.6329   20.0588 O   0  0  0  0  0  0
  -21.6627   -6.8881   21.4243 O   0  0  0  0  0  0
  -22.3593  -14.5609   20.6687 O   0  0  0  0  0  0
  -24.6112  -31.8698   23.2097 C   0  0  0  0  0  0
  -25.9025  -32.4818   23.8373 C   0  0  1  0  0  0
  -27.2398  -27.4545   20.0991 C   0  0  0  0  0  0
  -25.5894  -33.8610   24.2322 N   0  0  0  0  0  0
  -23.3962  -30.4934   21.5495 C   0  0  2  0  0  0
  -24.8427  -28.9566   20.1170 C   0  0  0  0  0  0
  -22.7379  -29.4676   22.4998 C   0  0  0  0  0  0
  -18.0259  -28.1378   22.8504 C   0  0  0  0  0  0
  -24.1493  -36.7329   23.2647 C   0  0  0  0  0  0
  -25.9194  -30.8450   21.3524 C   0  0  0  0  0  0
  -25.9994  -29.4775   20.7071 C   0  0  0  0  0  0
  -27.2011  -28.7365   20.6890 C   0  0  0  0  0  0
  -26.0618  -26.9390   19.5094 C   0  0  0  0  0  0
  -24.8679  -27.6857   19.5155 C   0  0  0  0  0  0
  -23.6024  -29.8215   20.1656 C   0  0  0  0  0  0
  -25.4113  -36.3116   24.0351 C   0  0  1  0  0  0
  -20.5849  -28.3662   23.1346 C   0  0  2  0  0  0
  -20.6764  -26.9413   22.5410 C   0  0  0  0  0  0
  -19.5732  -26.6424   21.5208 C   0  0  0  0  0  0
  -18.1905  -26.7943   22.1614 C   0  0  0  0  0  0
  -19.1507  -28.8827   23.2931 C   0  0  0  0  0  0
  -18.9434  -30.1448   23.8919 C   0  0  0  0  0  0
  -17.6441  -30.6586   24.0572 C   0  0  0  0  0  0
  -25.9034  -34.9476   23.5134 C   0  0  0  0  0  0
  -16.5334  -29.9087   23.6322 C   0  0  0  0  0  0
  -16.7250  -28.6509   23.0341 C   0  0  0  0  0  0
  -26.4442  -31.6564   25.0671 C   0  0  0  0  0  0
  -25.3736  -31.3698   26.1452 C   0  0  0  0  0  0
  -27.0193  -30.2979   24.6003 C   0  0  0  0  0  0
  -27.6073  -32.4224   25.7383 C   0  0  0  0  0  0
  -27.5583  -37.1829   24.8473 C   0  0  0  0  0  0
  -21.4102  -29.3067   22.3765 N   0  0  0  0  0  0
  -26.4296  -37.3807   23.9410 N   0  0  0  0  0  0
  -24.6602  -31.0848   22.0967 N   0  0  0  0  0  0
  -23.4171  -28.8192   23.2996 O   0  0  0  0  0  0
  -28.4408  -26.7780   20.0857 O   0  0  0  0  0  0
  -26.5595  -34.8927   22.4697 O   0  0  0  0  0  0
  -23.5326  -32.1425   23.7537 O   0  0  0  0  0  0
  -29.1144  -22.6794   22.4706 C   0  0  0  0  0  0
  -28.6311  -21.4088   22.3342 C   0  0  0  0  0  0
  -28.2483  -19.5743   23.9882 C   0  0  0  0  0  0
  -29.7661  -17.6607   22.1664 C   0  0  0  0  0  0
  -29.4421  -19.1043   21.7343 C   0  0  0  0  0  0
  -28.1436  -24.9064   21.6474 C   0  0  0  0  0  0
  -30.2179  -16.7976   20.9780 C   0  0  0  0  0  0
  -28.4390  -25.3508   20.2008 C   0  0  0  0  0  0
  -29.1703  -20.1105   22.8791 C   0  0  1  0  0  0
  -27.4414  -21.4720   21.6037 N   0  0  0  0  0  0
  -27.1884  -22.7041   21.2906 N   0  0  0  0  0  0
  -28.1857  -23.4606   21.8060 N   0  0  0  0  0  0
  -30.0351  -15.3694   21.2292 N   0  0  0  0  0  0
  -30.3113  -11.2487   19.8019 H   0  0  0  0  0  0
  -31.4716  -12.3523   19.1267 H   0  0  0  0  0  0
  -29.7288  -11.7634   17.4231 H   0  0  0  0  0  0
  -29.6781  -13.4741   17.7769 H   0  0  0  0  0  0
  -27.8106  -11.3097   18.7986 H   0  0  0  0  0  0
  -27.3708  -12.6580   17.7868 H   0  0  0  0  0  0
  -27.7328  -14.2465   19.5992 H   0  0  0  0  0  0
  -28.6572  -11.9000   21.3209 H   0  0  0  0  0  0
  -28.4642  -13.5222   21.8915 H   0  0  0  0  0  0
  -25.2730   -9.5705   22.4763 H   0  0  0  0  0  0
  -23.9991   -7.4654   22.7488 H   0  0  0  0  0  0
  -21.0815   -8.8802   19.8956 H   0  0  0  0  0  0
  -22.3678  -10.9696   19.6175 H   0  0  0  0  0  0
  -21.2039   -7.6161   23.9725 H   0  0  0  0  0  0
  -21.1464   -6.0516   25.9070 H   0  0  0  0  0  0
  -22.0599   -2.7618   23.2832 H   0  0  0  0  0  0
  -22.4078  -11.9945   22.4753 H   0  0  0  0  0  0
  -21.1136  -13.1375   22.2594 H   0  0  0  0  0  0
  -24.6862  -15.8517   20.5131 H   0  0  0  0  0  0
  -26.3028  -15.6088   20.0820 H   0  0  0  0  0  0
  -26.7080  -32.5546   23.1136 H   0  0  0  0  0  0
  -25.0054  -33.9761   25.0471 H   0  0  0  0  0  0
  -22.6820  -31.3078   21.4106 H   0  0  0  0  0  0
  -23.3737  -35.9680   23.3312 H   0  0  0  0  0  0
  -24.3580  -36.8928   22.2055 H   0  0  0  0  0  0
  -23.7260  -37.6549   23.6645 H   0  0  0  0  0  0
  -26.0153  -31.6071   20.5774 H   0  0  0  0  0  0
  -26.8149  -30.9138   21.9568 H   0  0  0  0  0  0
  -28.0987  -29.1440   21.1336 H   0  0  0  0  0  0
  -26.0463  -25.9769   19.0215 H   0  0  0  0  0  0
  -23.9801  -27.2781   19.0520 H   0  0  0  0  0  0
  -23.7050  -30.5924   19.4009 H   0  0  0  0  0  0
  -22.7261  -29.2395   19.8751 H   0  0  0  0  0  0
  -25.1289  -36.1975   25.0850 H   0  0  0  0  0  0
  -20.9937  -28.3205   24.1470 H   0  0  0  0  0  0
  -20.5693  -26.2245   23.3567 H   0  0  0  0  0  0
  -21.6626  -26.7501   22.1168 H   0  0  0  0  0  0
  -19.6900  -25.6360   21.1172 H   0  0  0  0  0  0
  -19.6657  -27.3281   20.6778 H   0  0  0  0  0  0
  -17.4194  -26.6743   21.3996 H   0  0  0  0  0  0
  -18.0262  -26.0050   22.8964 H   0  0  0  0  0  0
  -19.7911  -30.7270   24.2286 H   0  0  0  0  0  0
  -17.4988  -31.6265   24.5177 H   0  0  0  0  0  0
  -15.5328  -30.2998   23.7647 H   0  0  0  0  0  0
  -15.8653  -28.0858   22.7020 H   0  0  0  0  0  0
  -24.5927  -30.7012   25.7808 H   0  0  0  0  0  0
  -24.8906  -32.2854   26.4866 H   0  0  0  0  0  0
  -25.8114  -30.8929   27.0229 H   0  0  0  0  0  0
  -27.8533  -30.4237   23.9101 H   0  0  0  0  0  0
  -27.3935  -29.7160   25.4435 H   0  0  0  0  0  0
  -26.2682  -29.6826   24.1044 H   0  0  0  0  0  0
  -27.2777  -33.3524   26.2041 H   0  0  0  0  0  0
  -28.3835  -32.6762   25.0144 H   0  0  0  0  0  0
  -28.0768  -31.8279   26.5219 H   0  0  0  0  0  0
  -28.2619  -38.0117   24.7524 H   0  0  0  0  0  0
  -28.1082  -36.2654   24.6312 H   0  0  0  0  0  0
  -27.2307  -37.1490   25.8884 H   0  0  0  0  0  0
  -20.9231  -29.8799   21.7016 H   0  0  0  0  0  0
  -26.0180  -38.2888   24.1417 H   0  0  0  0  0  0
  -29.9881  -23.0736   22.9736 H   0  0  0  0  0  0
  -28.1228  -20.3193   24.7738 H   0  0  0  0  0  0
  -28.6593  -18.6832   24.4594 H   0  0  0  0  0  0
  -27.2574  -19.3257   23.6079 H   0  0  0  0  0  0
  -30.5422  -17.6595   22.9323 H   0  0  0  0  0  0
  -28.8748  -17.2211   22.6146 H   0  0  0  0  0  0
  -28.5685  -19.0563   21.0836 H   0  0  0  0  0  0
  -30.2503  -19.4956   21.1148 H   0  0  0  0  0  0
  -27.1613  -25.2568   21.9666 H   0  0  0  0  0  0
  -28.8713  -25.3495   22.3272 H   0  0  0  0  0  0
  -31.2512  -17.0369   20.7202 H   0  0  0  0  0  0
  -29.6175  -17.0423   20.0998 H   0  0  0  0  0  0
  -27.7736  -24.8694   19.4860 H   0  0  0  0  0  0
  -29.4383  -25.0062   19.9341 H   0  0  0  0  0  0
  -30.1315  -20.3136   23.3549 H   0  0  0  0  0  0
  -29.1667  -15.0884   21.6615 H   0  0  0  0  0  0
  1 25  1  0  0  0
  1 30  2  0  0  0
  1 83  1  0  0  0
  2  3  1  0  0  0
  2 25  1  0  0  0
  2 84  1  0  0  0
  2 85  1  0  0  0
  3  4  1  0  0  0
  3 86  1  0  0  0
  3 87  1  0  0  0
  4  5  1  0  0  0
  4 88  1  0  0  0
  4 89  1  0  0  0
  5  6  1  0  0  0
  5 26  1  0  0  0
  5 90  1  0  0  0
  6 25  1  0  0  0
  6 91  1  0  0  0
  6 92  1  0  0  0
  7  8  2  0  0  0
  7 26  1  0  0  0
  7 29  1  0  0  0
  8  9  1  0  0  0
  8 22  1  0  0  0
  9 10  1  0  0  0
  9 27  2  0  0  0
 10 11  2  0  0  0
 10 15  1  0  0  0
 11 12  1  0  0  0
 11 93  1  0  0  0
 12 13  2  0  0  0
 12 94  1  0  0  0
 13 14  1  0  0  0
 13 31  1  0  0  0
 14 15  2  0  0  0
 14 95  1  0  0  0
 15 96  1  0  0  0
 16 17  2  0  0  0
 16 21  1  0  0  0
 16 31  1  0  0  0
 17 18  1  0  0  0
 17 97  1  0  0  0
 18 19  2  0  0  0
 18 98  1  0  0  0
 19 20  1  0  0  0
 19 24  1  0  0  0
 20 21  2  0  0  0
 20 99  1  0  0  0
 21 23  1  0  0  0
 22 28  1  0  0  0
 22 32  2  0  0  0
 26 27  1  0  0  0
 28100  1  0  0  0
 28101  1  0  0  0
 29102  1  0  0  0
 29103  1  0  0  0
 33 34  1  0  0  0
 33 66  1  0  0  0
 33 70  2  0  0  0
 34 36  1  0  0  0
 34 59  1  0  0  0
 34104  1  0  0  0
 35 44  2  0  0  0
 35 45  1  0  0  0
 35 68  1  0  0  0
 36 56  1  0  0  0
 36105  1  0  0  0
 37 39  1  0  0  0
 37 47  1  0  0  0
 37 66  1  0  0  0
 37106  1  0  0  0
 38 43  2  0  0  0
 38 46  1  0  0  0
 38 47  1  0  0  0
 39 64  1  0  0  0
 39 67  2  0  0  0
 40 52  1  0  0  0
 40 53  2  0  0  0
 40 58  1  0  0  0
 41107  1  0  0  0
 41108  1  0  0  0
 41109  1  0  0  0
 41 48  1  0  0  0
 42 43  1  0  0  0
 42 66  1  0  0  0
 42110  1  0  0  0
 42111  1  0  0  0
 43 44  1  0  0  0
 44112  1  0  0  0
 45 46  2  0  0  0
 45113  1  0  0  0
 46114  1  0  0  0
 47115  1  0  0  0
 47116  1  0  0  0
 48 56  1  0  0  0
 48 65  1  0  0  0
 48117  1  0  0  0
 49 50  1  0  0  0
 49 53  1  0  0  0
 49 64  1  0  0  0
 49118  1  0  0  0
 50 51  1  0  0  0
 50119  1  0  0  0
 50120  1  0  0  0
 51 52  1  0  0  0
 51121  1  0  0  0
 51122  1  0  0  0
 52123  1  0  0  0
 52124  1  0  0  0
 53 54  1  0  0  0
 54 55  2  0  0  0
 54125  1  0  0  0
 55 57  1  0  0  0
 55126  1  0  0  0
 56 69  2  0  0  0
 57 58  2  0  0  0
 57127  1  0  0  0
 58128  1  0  0  0
 59 60  1  0  0  0
 59 61  1  0  0  0
 59 62  1  0  0  0
 60129  1  0  0  0
 60130  1  0  0  0
 60131  1  0  0  0
 61132  1  0  0  0
 61133  1  0  0  0
 61134  1  0  0  0
 62135  1  0  0  0
 62136  1  0  0  0
 62137  1  0  0  0
 63 65  1  0  0  0
 63138  1  0  0  0
 63139  1  0  0  0
 63140  1  0  0  0
 64141  1  0  0  0
 65142  1  0  0  0
 68 78  1  0  0  0
 71 72  2  0  0  0
 71 82  1  0  0  0
 71143  1  0  0  0
 72 79  1  0  0  0
 72 80  1  0  0  0
 73144  1  0  0  0
 73145  1  0  0  0
 73146  1  0  0  0
 73 79  1  0  0  0
 74 75  1  0  0  0
 74 77  1  0  0  0
 74147  1  0  0  0
 74148  1  0  0  0
 75 79  1  0  0  0
 75149  1  0  0  0
 75150  1  0  0  0
 76 78  1  0  0  0
 76 82  1  0  0  0
 76151  1  0  0  0
 76152  1  0  0  0
 77 83  1  0  0  0
 77153  1  0  0  0
 77154  1  0  0  0
 78155  1  0  0  0
 78156  1  0  0  0
 79157  1  0  0  0
 80 81  2  0  0  0
 81 82  1  0  0  0
 83158  1  0  0  0
M  ISO  4   1 100  68 101  78 101  83 100
M  END
> <chiral flag>
0

> <version>
0

> <s_m_source_file>
/data/baiqing/PycharmProjects/Reinvent-master-3.2/result/LINK_invent/BTK/process_docking_weight1_custom_sum_contain_oxygen_bond_distance_aromatic_linkinvent_7_9_3/rearranged_h_0082.sdf

> <i_m_source_file_index>
87

> <r_mmod_Potential_Energy-OPLS-2005>
-153.492385864258

> <r_mmod_Stretch_Energy-OPLS-2005>
31.5481986999512

> <r_mmod_Bend_Energy-OPLS-2005>
95.5168838500977

> <r_mmod_Torsional_Energy-OPLS-2005>
204.975296020508

> <r_mmod_Improper_Torsional_Energy-OPLS-2005>
4.78670740127563

> <r_mmod_Van_der_Waal_Energy-OPLS-2005>
130.845016479492

> <r_mmod_Electrostatic_Energy-OPLS-2005>
-411.370300292969

> <r_mmod_Solvation_Energy-OPLS-2005>
-218.577651977539

> <b_mmod_Minimization_Converged-OPLS-2005>
0

> <r_mmod_RMS_Derivative-OPLS-2005>
2.5447883605957

$$$$
88
                    3D
 Structure written by MMmdl.
164172  0  0  1  0            999 V2000
  -30.5988  -14.7025   20.4790 C   0  0  0  0  0  0
  -30.4452  -12.4342   19.4433 C   0  0  0  0  0  0
  -29.5135  -12.5066   18.2142 C   0  0  0  0  0  0
  -28.0354  -12.3375   18.6248 C   0  0  0  0  0  0
  -27.6468  -13.2195   19.8432 C   0  0  2  0  0  0
  -28.6959  -13.1093   20.9701 C   0  0  0  0  0  0
  -25.2546  -13.8182   20.5645 C   0  0  0  0  0  0
  -24.1831  -13.0442   20.9182 C   0  0  0  0  0  0
  -24.6405  -11.6918   20.8727 C   0  0  0  0  0  0
  -23.9080  -10.4296   21.0380 C   0  0  0  0  0  0
  -24.3642   -9.4216   21.9158 C   0  0  0  0  0  0
  -23.6313   -8.2253   22.0752 C   0  0  0  0  0  0
  -22.4288   -8.0281   21.3548 C   0  0  0  0  0  0
  -21.9922   -9.0253   20.4649 C   0  0  0  0  0  0
  -22.7248  -10.2129   20.3037 C   0  0  0  0  0  0
  -21.6849   -6.0733   22.5276 C   0  0  0  0  0  0
  -21.4013   -6.5636   23.8210 C   0  0  0  0  0  0
  -21.3667   -5.6792   24.9173 C   0  0  0  0  0  0
  -21.6047   -4.3055   24.7217 C   0  0  0  0  0  0
  -21.8830   -3.8146   23.4337 C   0  0  0  0  0  0
  -21.9197   -4.6963   22.3395 C   0  0  0  0  0  0
  -22.7853  -13.5232   21.1843 C   0  0  0  0  0  0
  -22.1657   -4.2139   21.0973 F   0  0  0  0  0  0
  -21.5626   -3.4547   25.7730 F   0  0  0  0  0  0
  -29.9981  -13.4715   20.3918 N   0  0  0  0  0  0
  -26.2964  -12.9361   20.3225 N   0  0  0  0  0  0
  -25.9322  -11.6517   20.5715 N   0  0  0  0  0  0
  -22.0490  -12.8234   22.0398 N   0  0  0  0  0  0
  -25.4227  -15.1912   20.4053 N   0  0  0  0  0  0
  -31.7929  -14.8544   20.2104 O   0  0  0  0  0  0
  -21.6647   -6.8879   21.4239 O   0  0  0  0  0  0
  -22.3529  -14.5519   20.6661 O   0  0  0  0  0  0
  -24.6308  -31.8544   23.2000 C   0  0  0  0  0  0
  -25.9146  -32.4735   23.8324 C   0  0  1  0  0  0
  -27.2216  -27.2719   20.1153 C   0  0  0  0  0  0
  -25.5943  -33.8539   24.2242 N   0  0  0  0  0  0
  -23.4254  -30.4789   21.5425 C   0  0  2  0  0  0
  -24.8736  -28.9304   20.1074 C   0  0  0  0  0  0
  -22.7486  -29.4611   22.4914 C   0  0  0  0  0  0
  -18.0290  -28.1383   22.8492 C   0  0  0  0  0  0
  -24.1494  -36.7287   23.2632 C   0  0  0  0  0  0
  -25.9718  -30.7701   21.3791 C   0  0  0  0  0  0
  -26.0442  -29.3959   20.7165 C   0  0  0  0  0  0
  -27.2225  -28.5789   20.7104 C   0  0  0  0  0  0
  -26.0240  -26.8772   19.4733 C   0  0  0  0  0  0
  -24.8687  -27.6802   19.4735 C   0  0  0  0  0  0
  -23.6406  -29.8127   20.1588 C   0  0  0  0  0  0
  -25.4115  -36.3050   24.0318 C   0  0  1  0  0  0
  -20.5891  -28.3694   23.1278 C   0  0  2  0  0  0
  -20.6783  -26.9407   22.5415 C   0  0  0  0  0  0
  -19.5758  -26.6375   21.5220 C   0  0  0  0  0  0
  -18.1938  -26.7928   22.1625 C   0  0  0  0  0  0
  -19.1542  -28.8854   23.2878 C   0  0  0  0  0  0
  -18.9457  -30.1464   23.8889 C   0  0  0  0  0  0
  -17.6452  -30.6585   24.0559 C   0  0  0  0  0  0
  -25.9060  -34.9422   23.5079 C   0  0  0  0  0  0
  -16.5345  -29.9076   23.6334 C   0  0  0  0  0  0
  -16.7277  -28.6495   23.0351 C   0  0  0  0  0  0
  -26.4508  -31.6562   25.0714 C   0  0  0  0  0  0
  -25.3732  -31.3726   26.1438 C   0  0  0  0  0  0
  -27.0343  -30.2962   24.6220 C   0  0  0  0  0  0
  -27.6049  -32.4315   25.7497 C   0  0  0  0  0  0
  -27.5586  -37.1779   24.8441 C   0  0  0  0  0  0
  -21.4194  -29.3045   22.3662 N   0  0  0  0  0  0
  -26.4280  -37.3760   23.9415 N   0  0  0  0  0  0
  -24.6946  -31.0522   22.0964 N   0  0  0  0  0  0
  -23.4190  -28.8153   23.3015 O   0  0  0  0  0  0
  -28.3185  -26.3785   20.1741 O   0  0  0  0  0  0
  -26.5630  -34.8908   22.4647 O   0  0  0  0  0  0
  -23.5467  -32.1368   23.7300 O   0  0  0  0  0  0
  -29.6496  -21.0839   20.3033 C   0  0  0  0  0  0
  -27.5308  -21.8803   19.4816 C   0  0  0  0  0  0
  -28.7815  -22.2210   20.0421 C   0  0  0  0  0  0
  -29.2477  -19.7225   20.0091 C   0  0  0  0  0  0
  -27.2013  -20.5326   19.2176 C   0  0  0  0  0  0
  -30.4857  -24.0890   19.5968 C   0  0  0  0  0  0
  -25.0812  -19.1336   19.3317 C   0  0  0  0  0  0
  -26.1216  -19.7014   17.0815 C   0  0  0  0  0  0
  -30.1578  -18.4184   20.0200 C   0  0  0  0  0  0
  -29.9366  -17.2318   21.0802 C   0  0  0  0  0  0
  -28.0782  -24.9123   19.9368 C   0  0  0  0  0  0
  -29.1586  -23.7574   20.2957 C   0  0  1  0  0  0
  -25.8884  -20.1687   18.5293 C   0  0  0  0  0  0
  -28.0314  -19.4969   19.4766 N   0  0  0  0  0  0
  -29.7549  -15.7707   20.6798 N   0  0  0  0  0  0
  -31.4836  -12.5781   19.1408 H   0  0  0  0  0  0
  -30.3966  -11.4468   19.9049 H   0  0  0  0  0  0
  -29.7943  -11.7454   17.4848 H   0  0  0  0  0  0
  -29.6441  -13.4666   17.7124 H   0  0  0  0  0  0
  -27.8789  -11.2859   18.8624 H   0  0  0  0  0  0
  -27.3856  -12.5558   17.7765 H   0  0  0  0  0  0
  -27.6505  -14.2481   19.4829 H   0  0  0  0  0  0
  -28.7281  -12.0936   21.3677 H   0  0  0  0  0  0
  -28.4391  -13.7554   21.8102 H   0  0  0  0  0  0
  -25.2786   -9.5698   22.4735 H   0  0  0  0  0  0
  -24.0019   -7.4658   22.7486 H   0  0  0  0  0  0
  -21.0844   -8.8774   19.8970 H   0  0  0  0  0  0
  -22.3695  -10.9670   19.6154 H   0  0  0  0  0  0
  -21.1995   -7.6144   23.9713 H   0  0  0  0  0  0
  -21.1478   -6.0513   25.9077 H   0  0  0  0  0  0
  -22.0601   -2.7602   23.2842 H   0  0  0  0  0  0
  -22.4094  -11.9909   22.4822 H   0  0  0  0  0  0
  -21.1097  -13.1258   22.2570 H   0  0  0  0  0  0
  -24.6511  -15.8400   20.5085 H   0  0  0  0  0  0
  -26.2601  -15.6349   20.0511 H   0  0  0  0  0  0
  -26.7207  -32.5385   23.1056 H   0  0  0  0  0  0
  -25.0066  -33.9670   25.0368 H   0  0  0  0  0  0
  -22.7217  -31.3018   21.3975 H   0  0  0  0  0  0
  -23.3762  -35.9610   23.3229 H   0  0  0  0  0  0
  -24.3603  -36.8984   22.2063 H   0  0  0  0  0  0
  -23.7241  -37.6462   23.6707 H   0  0  0  0  0  0
  -26.1135  -31.5362   20.6164 H   0  0  0  0  0  0
  -26.8484  -30.8126   22.0138 H   0  0  0  0  0  0
  -28.1179  -28.9284   21.2042 H   0  0  0  0  0  0
  -25.9444  -25.9247   18.9712 H   0  0  0  0  0  0
  -23.9744  -27.3224   18.9832 H   0  0  0  0  0  0
  -23.7533  -30.5872   19.3993 H   0  0  0  0  0  0
  -22.7608  -29.2389   19.8612 H   0  0  0  0  0  0
  -25.1296  -36.1867   25.0809 H   0  0  0  0  0  0
  -20.9993  -28.3278   24.1394 H   0  0  0  0  0  0
  -20.5693  -26.2294   23.3615 H   0  0  0  0  0  0
  -21.6653  -26.7442   22.1194 H   0  0  0  0  0  0
  -19.6923  -25.6285   21.1254 H   0  0  0  0  0  0
  -19.6715  -27.3181   20.6745 H   0  0  0  0  0  0
  -17.4214  -26.6686   21.4020 H   0  0  0  0  0  0
  -18.0334  -26.0065   22.9007 H   0  0  0  0  0  0
  -19.7928  -30.7293   24.2238 H   0  0  0  0  0  0
  -17.4998  -31.6265   24.5156 H   0  0  0  0  0  0
  -15.5343  -30.2963   23.7672 H   0  0  0  0  0  0
  -15.8674  -28.0808   22.7068 H   0  0  0  0  0  0
  -24.5899  -30.7080   25.7773 H   0  0  0  0  0  0
  -24.8941  -32.2902   26.4858 H   0  0  0  0  0  0
  -25.8060  -30.8901   27.0209 H   0  0  0  0  0  0
  -26.2918  -29.6713   24.1240 H   0  0  0  0  0  0
  -27.3982  -29.7233   25.4760 H   0  0  0  0  0  0
  -27.8823  -30.4202   23.9484 H   0  0  0  0  0  0
  -27.2628  -33.3614   26.2052 H   0  0  0  0  0  0
  -28.3874  -32.6878   25.0343 H   0  0  0  0  0  0
  -28.0689  -31.8451   26.5435 H   0  0  0  0  0  0
  -28.2529  -38.0144   24.7557 H   0  0  0  0  0  0
  -28.1154  -36.2677   24.6158 H   0  0  0  0  0  0
  -27.2321  -37.1290   25.8843 H   0  0  0  0  0  0
  -20.9362  -29.8741   21.6847 H   0  0  0  0  0  0
  -26.0142  -38.2815   24.1462 H   0  0  0  0  0  0
  -30.6414  -21.2591   20.6966 H   0  0  0  0  0  0
  -26.8183  -22.6504   19.2215 H   0  0  0  0  0  0
  -31.2826  -23.4122   19.9032 H   0  0  0  0  0  0
  -30.8136  -25.0994   19.8437 H   0  0  0  0  0  0
  -30.3877  -24.0252   18.5128 H   0  0  0  0  0  0
  -24.9055  -19.4776   20.3510 H   0  0  0  0  0  0
  -25.6097  -18.1815   19.3863 H   0  0  0  0  0  0
  -24.1125  -18.9445   18.8693 H   0  0  0  0  0  0
  -26.6130  -20.4767   16.4923 H   0  0  0  0  0  0
  -25.1828  -19.4534   16.5861 H   0  0  0  0  0  0
  -26.7545  -18.8141   17.0553 H   0  0  0  0  0  0
  -31.1886  -18.7582   20.1278 H   0  0  0  0  0  0
  -30.1188  -17.9898   19.0187 H   0  0  0  0  0  0
  -29.0453  -17.4867   21.6535 H   0  0  0  0  0  0
  -30.7462  -17.2784   21.8106 H   0  0  0  0  0  0
  -27.1694  -24.6467   20.4796 H   0  0  0  0  0  0
  -27.8465  -24.8026   18.8764 H   0  0  0  0  0  0
  -29.3403  -23.8316   21.3687 H   0  0  0  0  0  0
  -25.2804  -21.0735   18.4790 H   0  0  0  0  0  0
  -28.7929  -15.4696   20.7313 H   0  0  0  0  0  0
  1 25  1  0  0  0
  1 30  2  0  0  0
  1 85  1  0  0  0
  2  3  1  0  0  0
  2 25  1  0  0  0
  2 86  1  0  0  0
  2 87  1  0  0  0
  3  4  1  0  0  0
  3 88  1  0  0  0
  3 89  1  0  0  0
  4  5  1  0  0  0
  4 90  1  0  0  0
  4 91  1  0  0  0
  5  6  1  0  0  0
  5 26  1  0  0  0
  5 92  1  0  0  0
  6 25  1  0  0  0
  6 93  1  0  0  0
  6 94  1  0  0  0
  7  8  2  0  0  0
  7 26  1  0  0  0
  7 29  1  0  0  0
  8  9  1  0  0  0
  8 22  1  0  0  0
  9 10  1  0  0  0
  9 27  2  0  0  0
 10 11  2  0  0  0
 10 15  1  0  0  0
 11 12  1  0  0  0
 11 95  1  0  0  0
 12 13  2  0  0  0
 12 96  1  0  0  0
 13 14  1  0  0  0
 13 31  1  0  0  0
 14 15  2  0  0  0
 14 97  1  0  0  0
 15 98  1  0  0  0
 16 17  2  0  0  0
 16 21  1  0  0  0
 16 31  1  0  0  0
 17 18  1  0  0  0
 17 99  1  0  0  0
 18 19  2  0  0  0
 18100  1  0  0  0
 19 20  1  0  0  0
 19 24  1  0  0  0
 20 21  2  0  0  0
 20101  1  0  0  0
 21 23  1  0  0  0
 22 28  1  0  0  0
 22 32  2  0  0  0
 26 27  1  0  0  0
 28102  1  0  0  0
 28103  1  0  0  0
 29104  1  0  0  0
 29105  1  0  0  0
 33 34  1  0  0  0
 33 66  1  0  0  0
 33 70  2  0  0  0
 34 36  1  0  0  0
 34 59  1  0  0  0
 34106  1  0  0  0
 35 44  2  0  0  0
 35 45  1  0  0  0
 35 68  1  0  0  0
 36 56  1  0  0  0
 36107  1  0  0  0
 37 39  1  0  0  0
 37 47  1  0  0  0
 37 66  1  0  0  0
 37108  1  0  0  0
 38 43  2  0  0  0
 38 46  1  0  0  0
 38 47  1  0  0  0
 39 64  1  0  0  0
 39 67  2  0  0  0
 40 52  1  0  0  0
 40 53  2  0  0  0
 40 58  1  0  0  0
 41109  1  0  0  0
 41110  1  0  0  0
 41111  1  0  0  0
 41 48  1  0  0  0
 42 43  1  0  0  0
 42 66  1  0  0  0
 42112  1  0  0  0
 42113  1  0  0  0
 43 44  1  0  0  0
 44114  1  0  0  0
 45 46  2  0  0  0
 45115  1  0  0  0
 46116  1  0  0  0
 47117  1  0  0  0
 47118  1  0  0  0
 48 56  1  0  0  0
 48 65  1  0  0  0
 48119  1  0  0  0
 49 50  1  0  0  0
 49 53  1  0  0  0
 49 64  1  0  0  0
 49120  1  0  0  0
 50 51  1  0  0  0
 50121  1  0  0  0
 50122  1  0  0  0
 51 52  1  0  0  0
 51123  1  0  0  0
 51124  1  0  0  0
 52125  1  0  0  0
 52126  1  0  0  0
 53 54  1  0  0  0
 54 55  2  0  0  0
 54127  1  0  0  0
 55 57  1  0  0  0
 55128  1  0  0  0
 56 69  2  0  0  0
 57 58  2  0  0  0
 57129  1  0  0  0
 58130  1  0  0  0
 59 60  1  0  0  0
 59 61  1  0  0  0
 59 62  1  0  0  0
 60131  1  0  0  0
 60132  1  0  0  0
 60133  1  0  0  0
 61134  1  0  0  0
 61135  1  0  0  0
 61136  1  0  0  0
 62137  1  0  0  0
 62138  1  0  0  0
 62139  1  0  0  0
 63 65  1  0  0  0
 63140  1  0  0  0
 63141  1  0  0  0
 63142  1  0  0  0
 64143  1  0  0  0
 65144  1  0  0  0
 68 81  1  0  0  0
 71 73  2  0  0  0
 71 74  1  0  0  0
 71145  1  0  0  0
 72 73  1  0  0  0
 72 75  2  0  0  0
 72146  1  0  0  0
 73 82  1  0  0  0
 74 79  1  0  0  0
 74 84  2  0  0  0
 75 83  1  0  0  0
 75 84  1  0  0  0
 76147  1  0  0  0
 76148  1  0  0  0
 76149  1  0  0  0
 76 82  1  0  0  0
 77150  1  0  0  0
 77151  1  0  0  0
 77152  1  0  0  0
 77 83  1  0  0  0
 78 83  1  0  0  0
 78153  1  0  0  0
 78154  1  0  0  0
 78155  1  0  0  0
 79 80  1  0  0  0
 79156  1  0  0  0
 79157  1  0  0  0
 80 85  1  0  0  0
 80158  1  0  0  0
 80159  1  0  0  0
 81 82  1  0  0  0
 81160  1  0  0  0
 81161  1  0  0  0
 82162  1  0  0  0
 83163  1  0  0  0
 85164  1  0  0  0
M  ISO  4   1 100  68 101  81 101  85 100
M  END
> <chiral flag>
0

> <version>
0

> <s_m_source_file>
/data/baiqing/PycharmProjects/Reinvent-master-3.2/result/LINK_invent/BTK/process_docking_weight1_custom_sum_contain_oxygen_bond_distance_aromatic_linkinvent_7_9_3/rearranged_h_0082.sdf

> <i_m_source_file_index>
88

> <r_mmod_Potential_Energy-OPLS-2005>
-24.6904945373535

> <r_mmod_Stretch_Energy-OPLS-2005>
114.191390991211

> <r_mmod_Bend_Energy-OPLS-2005>
172.637222290039

> <r_mmod_Torsional_Energy-OPLS-2005>
206.690170288086

> <r_mmod_Improper_Torsional_Energy-OPLS-2005>
5.78280782699585

> <r_mmod_Van_der_Waal_Energy-OPLS-2005>
137.546798706055

> <r_mmod_Electrostatic_Energy-OPLS-2005>
-528.494201660156

> <r_mmod_Solvation_Energy-OPLS-2005>
-208.476364135742

> <b_mmod_Minimization_Converged-OPLS-2005>
0

> <r_mmod_RMS_Derivative-OPLS-2005>
2.29898476600647

$$$$
89
                    3D
 Structure written by MMmdl.
184192  0  0  1  0            999 V2000
  -30.7344  -14.4119   20.7125 C   0  0  0  0  0  0
  -30.4352  -12.3190   19.4151 C   0  0  0  0  0  0
  -29.5009  -12.5551   18.2118 C   0  0  0  0  0  0
  -28.0198  -12.4066   18.6139 C   0  0  0  0  0  0
  -27.6765  -13.2009   19.9023 C   0  0  2  0  0  0
  -28.7110  -12.9149   21.0137 C   0  0  0  0  0  0
  -25.2674  -13.8139   20.5795 C   0  0  0  0  0  0
  -24.1876  -13.0415   20.9194 C   0  0  0  0  0  0
  -24.6377  -11.6869   20.8655 C   0  0  0  0  0  0
  -23.8985  -10.4289   21.0366 C   0  0  0  0  0  0
  -24.3556   -9.4226   21.9144 C   0  0  0  0  0  0
  -23.6265   -8.2244   22.0730 C   0  0  0  0  0  0
  -22.4252   -8.0245   21.3524 C   0  0  0  0  0  0
  -21.9863   -9.0204   20.4623 C   0  0  0  0  0  0
  -22.7148  -10.2118   20.3028 C   0  0  0  0  0  0
  -21.6870   -6.0702   22.5261 C   0  0  0  0  0  0
  -21.4021   -6.5629   23.8187 C   0  0  0  0  0  0
  -21.3664   -5.6793   24.9159 C   0  0  0  0  0  0
  -21.6046   -4.3052   24.7229 C   0  0  0  0  0  0
  -21.8812   -3.8130   23.4356 C   0  0  0  0  0  0
  -21.9209   -4.6929   22.3399 C   0  0  0  0  0  0
  -22.7915  -13.5264   21.1862 C   0  0  0  0  0  0
  -22.1671   -4.2121   21.0964 F   0  0  0  0  0  0
  -21.5653   -3.4527   25.7739 F   0  0  0  0  0  0
  -30.0586  -13.2472   20.4931 N   0  0  0  0  0  0
  -26.3092  -12.9270   20.3472 N   0  0  0  0  0  0
  -25.9314  -11.6432   20.5723 N   0  0  0  0  0  0
  -22.0550  -12.8219   22.0396 N   0  0  0  0  0  0
  -25.4351  -15.1847   20.4233 N   0  0  0  0  0  0
  -31.7612  -14.7085   20.0960 O   0  0  0  0  0  0
  -21.6629   -6.8835   21.4216 O   0  0  0  0  0  0
  -22.3549  -14.5528   20.6679 O   0  0  0  0  0  0
  -24.6138  -31.8663   23.2089 C   0  0  0  0  0  0
  -25.9018  -32.4792   23.8433 C   0  0  1  0  0  0
  -27.2392  -27.4371   20.1069 C   0  0  0  0  0  0
  -25.5874  -33.8616   24.2338 N   0  0  0  0  0  0
  -23.4026  -30.4915   21.5468 C   0  0  2  0  0  0
  -24.8471  -28.9526   20.1200 C   0  0  0  0  0  0
  -22.7401  -29.4658   22.4978 C   0  0  0  0  0  0
  -18.0230  -28.1391   22.8498 C   0  0  0  0  0  0
  -24.1471  -36.7307   23.2650 C   0  0  0  0  0  0
  -25.9318  -30.8347   21.3648 C   0  0  0  0  0  0
  -26.0045  -29.4674   20.7146 C   0  0  0  0  0  0
  -27.1996  -28.7183   20.7028 C   0  0  0  0  0  0
  -26.0620  -26.9315   19.5144 C   0  0  0  0  0  0
  -24.8690  -27.6805   19.5197 C   0  0  0  0  0  0
  -23.6105  -29.8181   20.1651 C   0  0  0  0  0  0
  -25.4089  -36.3119   24.0353 C   0  0  1  0  0  0
  -20.5823  -28.3671   23.1233 C   0  0  2  0  0  0
  -20.6669  -26.9395   22.5362 C   0  0  0  0  0  0
  -19.5633  -26.6311   21.5233 C   0  0  0  0  0  0
  -18.1828  -26.7959   22.1597 C   0  0  0  0  0  0
  -19.1496  -28.8827   23.2892 C   0  0  0  0  0  0
  -18.9437  -30.1432   23.8910 C   0  0  0  0  0  0
  -17.6462  -30.6569   24.0636 C   0  0  0  0  0  0
  -25.9015  -34.9478   23.5149 C   0  0  0  0  0  0
  -16.5351  -29.9097   23.6344 C   0  0  0  0  0  0
  -16.7245  -28.6520   23.0344 C   0  0  0  0  0  0
  -26.4456  -31.6614   25.0794 C   0  0  0  0  0  0
  -25.3758  -31.3728   26.1572 C   0  0  0  0  0  0
  -27.0285  -30.3063   24.6183 C   0  0  0  0  0  0
  -27.6011  -32.4371   25.7559 C   0  0  0  0  0  0
  -27.5566  -37.1805   24.8470 C   0  0  0  0  0  0
  -21.4116  -29.3040   22.3672 N   0  0  0  0  0  0
  -26.4275  -37.3798   23.9411 N   0  0  0  0  0  0
  -24.6675  -31.0831   22.0942 N   0  0  0  0  0  0
  -23.4168  -28.8259   23.3034 O   0  0  0  0  0  0
  -28.4347  -26.7438   20.1326 O   0  0  0  0  0  0
  -26.5587  -34.8916   22.4728 O   0  0  0  0  0  0
  -23.5337  -32.1352   23.7502 O   0  0  0  0  0  0
  -28.4256  -19.7829   21.5350 C   0  0  0  0  0  0
  -27.4066  -20.6588   22.0330 C   0  0  0  0  0  0
  -28.1828  -18.5026   21.9796 C   0  0  0  0  0  0
  -26.5575  -19.8674   22.7671 C   0  0  0  0  0  0
  -22.4578  -20.7671   24.3204 C   0  0  0  0  0  0
  -23.4642  -21.6573   26.4403 C   0  0  0  0  0  0
  -23.4475  -19.2016   25.9826 C   0  0  0  0  0  0
  -30.5399  -16.9583   23.3593 C   0  0  0  0  0  0
  -31.1718  -17.4587   21.0125 C   0  0  0  0  0  0
  -26.5558  -17.5025   23.6466 C   0  0  0  0  0  0
  -27.1409  -22.1398   21.7652 C   0  0  0  0  0  0
  -28.7180  -17.1385   21.5530 C   0  0  0  0  0  0
  -25.1638  -20.1603   23.2700 C   0  0  0  0  0  0
  -28.2196  -22.9927   21.0575 C   0  0  0  0  0  0
  -25.0297  -20.7448   24.6885 C   0  0  0  0  0  0
  -27.7817  -24.4880   20.9754 C   0  0  0  0  0  0
  -28.4813  -25.3335   19.8840 C   0  0  0  0  0  0
  -23.6125  -20.5917   25.3351 C   0  0  0  0  0  0
  -30.1700  -16.6802   21.8869 C   0  0  0  0  0  0
  -27.1085  -18.5945   22.8561 N   0  0  0  0  0  0
  -30.1744  -15.2070   21.6522 N   0  0  0  0  0  0
  -31.4789  -12.4387   19.1156 H   0  0  0  0  0  0
  -30.3502  -11.2871   19.7645 H   0  0  0  0  0  0
  -29.7401  -11.8579   17.4111 H   0  0  0  0  0  0
  -29.6652  -13.5588   17.8104 H   0  0  0  0  0  0
  -27.8216  -11.3414   18.7542 H   0  0  0  0  0  0
  -27.3737  -12.7308   17.8004 H   0  0  0  0  0  0
  -27.7424  -14.2642   19.6679 H   0  0  0  0  0  0
  -28.6821  -11.8597   21.2919 H   0  0  0  0  0  0
  -28.4588  -13.4466   21.9265 H   0  0  0  0  0  0
  -25.2712   -9.5754   22.4685 H   0  0  0  0  0  0
  -24.0017   -7.4662   22.7468 H   0  0  0  0  0  0
  -21.0802   -8.8675   19.8940 H   0  0  0  0  0  0
  -22.3561  -10.9622   19.6145 H   0  0  0  0  0  0
  -21.1981   -7.6120   23.9678 H   0  0  0  0  0  0
  -21.1515   -6.0522   25.9066 H   0  0  0  0  0  0
  -22.0591   -2.7576   23.2849 H   0  0  0  0  0  0
  -22.4175  -11.9910   22.4810 H   0  0  0  0  0  0
  -21.1133  -13.1204   22.2563 H   0  0  0  0  0  0
  -24.6605  -15.8288   20.5318 H   0  0  0  0  0  0
  -26.2776  -15.6300   20.0899 H   0  0  0  0  0  0
  -26.7110  -32.5492   23.1219 H   0  0  0  0  0  0
  -25.0083  -33.9771   25.0533 H   0  0  0  0  0  0
  -22.6891  -31.3036   21.4066 H   0  0  0  0  0  0
  -23.3739  -35.9637   23.3340 H   0  0  0  0  0  0
  -24.3566  -36.8886   22.2055 H   0  0  0  0  0  0
  -23.7190  -37.6514   23.6633 H   0  0  0  0  0  0
  -26.0581  -31.6032   20.6002 H   0  0  0  0  0  0
  -26.8146  -30.8748   21.9916 H   0  0  0  0  0  0
  -28.0954  -29.1142   21.1638 H   0  0  0  0  0  0
  -26.0518  -25.9598   19.0431 H   0  0  0  0  0  0
  -23.9816  -27.2673   19.0616 H   0  0  0  0  0  0
  -23.7105  -30.5892   19.3996 H   0  0  0  0  0  0
  -22.7352  -29.2317   19.8756 H   0  0  0  0  0  0
  -25.1256  -36.2024   25.0842 H   0  0  0  0  0  0
  -20.9924  -28.3225   24.1361 H   0  0  0  0  0  0
  -21.6520  -26.7428   22.1059 H   0  0  0  0  0  0
  -20.5621  -26.2310   23.3590 H   0  0  0  0  0  0
  -19.6768  -25.6192   21.1405 H   0  0  0  0  0  0
  -19.6624  -27.3025   20.6702 H   0  0  0  0  0  0
  -17.4124  -26.6788   21.3951 H   0  0  0  0  0  0
  -18.0116  -26.0081   22.8951 H   0  0  0  0  0  0
  -19.7935  -30.7190   24.2276 H   0  0  0  0  0  0
  -17.5013  -31.6239   24.5236 H   0  0  0  0  0  0
  -15.5315  -30.3005   23.7635 H   0  0  0  0  0  0
  -15.8639  -28.0866   22.6975 H   0  0  0  0  0  0
  -24.5910  -30.7049   25.7970 H   0  0  0  0  0  0
  -24.8988  -32.2888   26.5080 H   0  0  0  0  0  0
  -25.8175  -30.8908   27.0311 H   0  0  0  0  0  0
  -26.2831  -29.6845   24.1184 H   0  0  0  0  0  0
  -27.3979  -29.7257   25.4648 H   0  0  0  0  0  0
  -27.8715  -30.4383   23.9388 H   0  0  0  0  0  0
  -27.2587  -33.3652   26.2165 H   0  0  0  0  0  0
  -28.3822  -32.6969   25.0399 H   0  0  0  0  0  0
  -28.0693  -31.8509   26.5477 H   0  0  0  0  0  0
  -28.2607  -38.0082   24.7508 H   0  0  0  0  0  0
  -28.1029  -36.2607   24.6320 H   0  0  0  0  0  0
  -27.2287  -37.1501   25.8878 H   0  0  0  0  0  0
  -20.9295  -29.8719   21.6839 H   0  0  0  0  0  0
  -26.0182  -38.2882   24.1438 H   0  0  0  0  0  0
  -29.2061  -20.0519   20.8333 H   0  0  0  0  0  0
  -21.4938  -20.7544   24.8334 H   0  0  0  0  0  0
  -22.4276  -19.9458   23.6009 H   0  0  0  0  0  0
  -22.5278  -21.7041   23.7640 H   0  0  0  0  0  0
  -22.5032  -21.5787   26.9492 H   0  0  0  0  0  0
  -23.5312  -22.6694   26.0366 H   0  0  0  0  0  0
  -24.2432  -21.5594   27.1987 H   0  0  0  0  0  0
  -22.4324  -19.0734   26.3642 H   0  0  0  0  0  0
  -24.1310  -19.0549   26.8203 H   0  0  0  0  0  0
  -23.6206  -18.3984   25.2653 H   0  0  0  0  0  0
  -31.5484  -16.6002   23.5830 H   0  0  0  0  0  0
  -30.5283  -18.0257   23.5725 H   0  0  0  0  0  0
  -29.8638  -16.4909   24.0690 H   0  0  0  0  0  0
  -32.2036  -17.1880   21.2417 H   0  0  0  0  0  0
  -31.0040  -17.2918   19.9509 H   0  0  0  0  0  0
  -31.0780  -18.5336   21.1791 H   0  0  0  0  0  0
  -27.3532  -16.8645   24.0250 H   0  0  0  0  0  0
  -25.8870  -16.8991   23.0362 H   0  0  0  0  0  0
  -26.0087  -17.8913   24.5038 H   0  0  0  0  0  0
  -26.9064  -22.6019   22.7257 H   0  0  0  0  0  0
  -26.2294  -22.2083   21.1737 H   0  0  0  0  0  0
  -28.5676  -17.0287   20.4773 H   0  0  0  0  0  0
  -28.0510  -16.3737   21.9534 H   0  0  0  0  0  0
  -24.5699  -19.2517   23.1857 H   0  0  0  0  0  0
  -24.6854  -20.8552   22.5789 H   0  0  0  0  0  0
  -28.4061  -22.5946   20.0596 H   0  0  0  0  0  0
  -29.1566  -22.9232   21.6085 H   0  0  0  0  0  0
  -25.3103  -21.7963   24.6334 H   0  0  0  0  0  0
  -25.7722  -20.2899   25.3478 H   0  0  0  0  0  0
  -26.7047  -24.5427   20.8020 H   0  0  0  0  0  0
  -27.9406  -24.9392   21.9535 H   0  0  0  0  0  0
  -28.1125  -25.0977   18.8855 H   0  0  0  0  0  0
  -29.5365  -25.0655   19.8761 H   0  0  0  0  0  0
  -29.4379  -14.7113   22.1293 H   0  0  0  0  0  0
  1 25  1  0  0  0
  1 30  2  0  0  0
  1 91  1  0  0  0
  2  3  1  0  0  0
  2 25  1  0  0  0
  2 92  1  0  0  0
  2 93  1  0  0  0
  3  4  1  0  0  0
  3 94  1  0  0  0
  3 95  1  0  0  0
  4  5  1  0  0  0
  4 96  1  0  0  0
  4 97  1  0  0  0
  5  6  1  0  0  0
  5 26  1  0  0  0
  5 98  1  0  0  0
  6 25  1  0  0  0
  6 99  1  0  0  0
  6100  1  0  0  0
  7  8  2  0  0  0
  7 26  1  0  0  0
  7 29  1  0  0  0
  8  9  1  0  0  0
  8 22  1  0  0  0
  9 10  1  0  0  0
  9 27  2  0  0  0
 10 11  2  0  0  0
 10 15  1  0  0  0
 11 12  1  0  0  0
 11101  1  0  0  0
 12 13  2  0  0  0
 12102  1  0  0  0
 13 14  1  0  0  0
 13 31  1  0  0  0
 14 15  2  0  0  0
 14103  1  0  0  0
 15104  1  0  0  0
 16 17  2  0  0  0
 16 21  1  0  0  0
 16 31  1  0  0  0
 17 18  1  0  0  0
 17105  1  0  0  0
 18 19  2  0  0  0
 18106  1  0  0  0
 19 20  1  0  0  0
 19 24  1  0  0  0
 20 21  2  0  0  0
 20107  1  0  0  0
 21 23  1  0  0  0
 22 28  1  0  0  0
 22 32  2  0  0  0
 26 27  1  0  0  0
 28108  1  0  0  0
 28109  1  0  0  0
 29110  1  0  0  0
 29111  1  0  0  0
 33 34  1  0  0  0
 33 66  1  0  0  0
 33 70  2  0  0  0
 34 36  1  0  0  0
 34 59  1  0  0  0
 34112  1  0  0  0
 35 44  2  0  0  0
 35 45  1  0  0  0
 35 68  1  0  0  0
 36 56  1  0  0  0
 36113  1  0  0  0
 37 39  1  0  0  0
 37 47  1  0  0  0
 37 66  1  0  0  0
 37114  1  0  0  0
 38 43  2  0  0  0
 38 46  1  0  0  0
 38 47  1  0  0  0
 39 64  1  0  0  0
 39 67  2  0  0  0
 40 52  1  0  0  0
 40 53  2  0  0  0
 40 58  1  0  0  0
 41115  1  0  0  0
 41116  1  0  0  0
 41117  1  0  0  0
 41 48  1  0  0  0
 42 43  1  0  0  0
 42 66  1  0  0  0
 42118  1  0  0  0
 42119  1  0  0  0
 43 44  1  0  0  0
 44120  1  0  0  0
 45 46  2  0  0  0
 45121  1  0  0  0
 46122  1  0  0  0
 47123  1  0  0  0
 47124  1  0  0  0
 48 56  1  0  0  0
 48 65  1  0  0  0
 48125  1  0  0  0
 49 50  1  0  0  0
 49 53  1  0  0  0
 49 64  1  0  0  0
 49126  1  0  0  0
 50 51  1  0  0  0
 50127  1  0  0  0
 50128  1  0  0  0
 51 52  1  0  0  0
 51129  1  0  0  0
 51130  1  0  0  0
 52131  1  0  0  0
 52132  1  0  0  0
 53 54  1  0  0  0
 54 55  2  0  0  0
 54133  1  0  0  0
 55 57  1  0  0  0
 55134  1  0  0  0
 56 69  2  0  0  0
 57 58  2  0  0  0
 57135  1  0  0  0
 58136  1  0  0  0
 59 60  1  0  0  0
 59 61  1  0  0  0
 59 62  1  0  0  0
 60137  1  0  0  0
 60138  1  0  0  0
 60139  1  0  0  0
 61140  1  0  0  0
 61141  1  0  0  0
 61142  1  0  0  0
 62143  1  0  0  0
 62144  1  0  0  0
 62145  1  0  0  0
 63 65  1  0  0  0
 63146  1  0  0  0
 63147  1  0  0  0
 63148  1  0  0  0
 64149  1  0  0  0
 65150  1  0  0  0
 68 87  1  0  0  0
 71 72  1  0  0  0
 71 73  2  0  0  0
 71151  1  0  0  0
 72 74  2  0  0  0
 72 81  1  0  0  0
 73 82  1  0  0  0
 73 90  1  0  0  0
 74 83  1  0  0  0
 74 90  1  0  0  0
 75152  1  0  0  0
 75153  1  0  0  0
 75154  1  0  0  0
 75 88  1  0  0  0
 76 88  1  0  0  0
 76155  1  0  0  0
 76156  1  0  0  0
 76157  1  0  0  0
 77 88  1  0  0  0
 77158  1  0  0  0
 77159  1  0  0  0
 77160  1  0  0  0
 78161  1  0  0  0
 78162  1  0  0  0
 78163  1  0  0  0
 78 89  1  0  0  0
 79 89  1  0  0  0
 79164  1  0  0  0
 79165  1  0  0  0
 79166  1  0  0  0
 80 90  1  0  0  0
 80167  1  0  0  0
 80168  1  0  0  0
 80169  1  0  0  0
 81 84  1  0  0  0
 81170  1  0  0  0
 81171  1  0  0  0
 82 89  1  0  0  0
 82172  1  0  0  0
 82173  1  0  0  0
 83 85  1  0  0  0
 83174  1  0  0  0
 83175  1  0  0  0
 84 86  1  0  0  0
 84176  1  0  0  0
 84177  1  0  0  0
 85 88  1  0  0  0
 85178  1  0  0  0
 85179  1  0  0  0
 86 87  1  0  0  0
 86180  1  0  0  0
 86181  1  0  0  0
 87182  1  0  0  0
 87183  1  0  0  0
 89 91  1  0  0  0
 91184  1  0  0  0
M  ISO  4   1 100  68 101  87 101  91 100
M  END
> <chiral flag>
0

> <version>
0

> <s_m_source_file>
/data/baiqing/PycharmProjects/Reinvent-master-3.2/result/LINK_invent/BTK/process_docking_weight1_custom_sum_contain_oxygen_bond_distance_aromatic_linkinvent_7_9_3/rearranged_h_0082.sdf

> <i_m_source_file_index>
89

> <r_mmod_Potential_Energy-OPLS-2005>
-17.8152008056641

> <r_mmod_Stretch_Energy-OPLS-2005>
44.5592994689941

> <r_mmod_Bend_Energy-OPLS-2005>
149.006851196289

> <r_mmod_Torsional_Energy-OPLS-2005>
234.633865356445

> <r_mmod_Improper_Torsional_Energy-OPLS-2005>
4.75854206085205

> <r_mmod_Van_der_Waal_Energy-OPLS-2005>
122.65697479248

> <r_mmod_Electrostatic_Energy-OPLS-2005>
-392.342742919922

> <r_mmod_Solvation_Energy-OPLS-2005>
-191.848266601562

> <b_mmod_Minimization_Converged-OPLS-2005>
0

> <r_mmod_RMS_Derivative-OPLS-2005>
8.02607345581055

$$$$
90
                    3D
 Structure written by MMmdl.
164172  0  0  1  0            999 V2000
  -30.6414  -14.6833   20.4915 C   0  0  0  0  0  0
  -30.4263  -12.4159   19.4831 C   0  0  0  0  0  0
  -29.5089  -12.5083   18.2436 C   0  0  0  0  0  0
  -28.0320  -12.3412   18.6516 C   0  0  0  0  0  0
  -27.6442  -13.2320   19.8619 C   0  0  2  0  0  0
  -28.6865  -13.1387   20.9999 C   0  0  0  0  0  0
  -25.2477  -13.8203   20.5703 C   0  0  0  0  0  0
  -24.1781  -13.0448   20.9221 C   0  0  0  0  0  0
  -24.6375  -11.6924   20.8754 C   0  0  0  0  0  0
  -23.9066  -10.4301   21.0405 C   0  0  0  0  0  0
  -24.3612   -9.4205   21.9178 C   0  0  0  0  0  0
  -23.6294   -8.2235   22.0739 C   0  0  0  0  0  0
  -22.4275   -8.0277   21.3535 C   0  0  0  0  0  0
  -21.9914   -9.0248   20.4635 C   0  0  0  0  0  0
  -22.7239  -10.2129   20.3049 C   0  0  0  0  0  0
  -21.6844   -6.0734   22.5280 C   0  0  0  0  0  0
  -21.4015   -6.5637   23.8214 C   0  0  0  0  0  0
  -21.3663   -5.6790   24.9176 C   0  0  0  0  0  0
  -21.6040   -4.3052   24.7227 C   0  0  0  0  0  0
  -21.8822   -3.8145   23.4345 C   0  0  0  0  0  0
  -21.9200   -4.6966   22.3401 C   0  0  0  0  0  0
  -22.7795  -13.5203   21.1899 C   0  0  0  0  0  0
  -22.1661   -4.2150   21.0980 F   0  0  0  0  0  0
  -21.5633   -3.4537   25.7739 F   0  0  0  0  0  0
  -29.9998  -13.4693   20.4312 N   0  0  0  0  0  0
  -26.2931  -12.9418   20.3336 N   0  0  0  0  0  0
  -25.9307  -11.6558   20.5780 N   0  0  0  0  0  0
  -22.0464  -12.8178   22.0456 N   0  0  0  0  0  0
  -25.4160  -15.1915   20.4061 N   0  0  0  0  0  0
  -31.8095  -14.7926   20.1107 O   0  0  0  0  0  0
  -21.6636   -6.8869   21.4235 O   0  0  0  0  0  0
  -22.3472  -14.5518   20.6760 O   0  0  0  0  0  0
  -24.6271  -31.8595   23.2035 C   0  0  0  0  0  0
  -25.9107  -32.4782   23.8369 C   0  0  1  0  0  0
  -27.2297  -27.2946   20.1236 C   0  0  0  0  0  0
  -25.5909  -33.8584   24.2280 N   0  0  0  0  0  0
  -23.4246  -30.4827   21.5459 C   0  0  2  0  0  0
  -24.8733  -28.9346   20.1111 C   0  0  0  0  0  0
  -22.7493  -29.4632   22.4951 C   0  0  0  0  0  0
  -18.0280  -28.1379   22.8475 C   0  0  0  0  0  0
  -24.1477  -36.7296   23.2647 C   0  0  0  0  0  0
  -25.9685  -30.7807   21.3837 C   0  0  0  0  0  0
  -26.0405  -29.4064   20.7233 C   0  0  0  0  0  0
  -27.2199  -28.5975   20.7201 C   0  0  0  0  0  0
  -26.0425  -26.8912   19.4725 C   0  0  0  0  0  0
  -24.8781  -27.6834   19.4763 C   0  0  0  0  0  0
  -23.6400  -29.8164   20.1617 C   0  0  0  0  0  0
  -25.4109  -36.3102   24.0336 C   0  0  1  0  0  0
  -20.5893  -28.3699   23.1272 C   0  0  2  0  0  0
  -20.6779  -26.9420   22.5412 C   0  0  0  0  0  0
  -19.5749  -26.6387   21.5215 C   0  0  0  0  0  0
  -18.1921  -26.7916   22.1620 C   0  0  0  0  0  0
  -19.1538  -28.8855   23.2858 C   0  0  0  0  0  0
  -18.9459  -30.1454   23.8872 C   0  0  0  0  0  0
  -17.6460  -30.6580   24.0559 C   0  0  0  0  0  0
  -25.9048  -34.9461   23.5119 C   0  0  0  0  0  0
  -16.5351  -29.9087   23.6325 C   0  0  0  0  0  0
  -16.7271  -28.6508   23.0342 C   0  0  0  0  0  0
  -26.4468  -31.6599   25.0746 C   0  0  0  0  0  0
  -25.3679  -31.3739   26.1466 C   0  0  0  0  0  0
  -27.0341  -30.3010   24.6245 C   0  0  0  0  0  0
  -27.6009  -32.4365   25.7493 C   0  0  0  0  0  0
  -27.5580  -37.1806   24.8462 C   0  0  0  0  0  0
  -21.4212  -29.3048   22.3669 N   0  0  0  0  0  0
  -26.4291  -37.3803   23.9409 N   0  0  0  0  0  0
  -24.6915  -31.0588   22.0995 N   0  0  0  0  0  0
  -23.4188  -28.8184   23.3064 O   0  0  0  0  0  0
  -28.3412  -26.4275   20.2052 O   0  0  0  0  0  0
  -26.5634  -34.8924   22.4697 O   0  0  0  0  0  0
  -23.5418  -32.1422   23.7327 O   0  0  0  0  0  0
  -29.2124  -21.1960   20.7259 C   0  0  0  0  0  0
  -29.3907  -22.4222   19.9740 C   0  0  0  0  0  0
  -29.9261  -22.2435   18.6678 C   0  0  0  0  0  0
  -29.5379  -19.8906   20.1827 C   0  0  0  0  0  0
  -30.1764  -20.9313   18.1878 C   0  0  0  0  0  0
  -30.2553  -23.4416   17.7789 C   0  0  0  0  0  0
  -30.7218  -20.6660   16.7937 C   0  0  0  0  0  0
  -27.8297  -18.0450   20.4889 C   0  0  0  0  0  0
  -29.3608  -18.5790   22.3856 C   0  0  0  0  0  0
  -29.1695  -23.8866   20.5742 C   0  0  0  0  0  0
  -30.2589  -17.2511   20.4307 C   0  0  0  0  0  0
  -28.2001  -24.9717   19.8821 C   0  0  0  0  0  0
  -29.2657  -18.4623   20.8532 C   0  0  0  0  0  0
  -29.9714  -19.8137   18.9110 N   0  0  0  0  0  0
  -29.8978  -15.8083   20.7691 N   0  0  0  0  0  0
  -31.4721  -12.5209   19.1893 H   0  0  0  0  0  0
  -30.3470  -11.4345   19.9527 H   0  0  0  0  0  0
  -29.7816  -11.7460   17.5127 H   0  0  0  0  0  0
  -29.6473  -13.4725   17.7528 H   0  0  0  0  0  0
  -27.8763  -11.2913   18.9045 H   0  0  0  0  0  0
  -27.3780  -12.5503   17.8043 H   0  0  0  0  0  0
  -27.6489  -14.2590   19.4952 H   0  0  0  0  0  0
  -28.6997  -12.1353   21.4271 H   0  0  0  0  0  0
  -28.4294  -13.8130   21.8186 H   0  0  0  0  0  0
  -25.2746   -9.5689   22.4759 H   0  0  0  0  0  0
  -24.0015   -7.4616   22.7440 H   0  0  0  0  0  0
  -21.0851   -8.8754   19.8923 H   0  0  0  0  0  0
  -22.3687  -10.9667   19.6162 H   0  0  0  0  0  0
  -21.1997   -7.6146   23.9720 H   0  0  0  0  0  0
  -21.1484   -6.0518   25.9081 H   0  0  0  0  0  0
  -22.0601   -2.7614   23.2847 H   0  0  0  0  0  0
  -22.4100  -11.9832   22.4819 H   0  0  0  0  0  0
  -21.1072  -13.1166   22.2683 H   0  0  0  0  0  0
  -24.6426  -15.8424   20.4895 H   0  0  0  0  0  0
  -26.2568  -15.6223   20.0460 H   0  0  0  0  0  0
  -26.7186  -32.5432   23.1131 H   0  0  0  0  0  0
  -25.0009  -33.9724   25.0385 H   0  0  0  0  0  0
  -22.7182  -31.3031   21.4036 H   0  0  0  0  0  0
  -23.3768  -35.9603   23.3317 H   0  0  0  0  0  0
  -24.3550  -36.8914   22.2061 H   0  0  0  0  0  0
  -23.7218  -37.6495   23.6661 H   0  0  0  0  0  0
  -26.1119  -31.5479   20.6224 H   0  0  0  0  0  0
  -26.8444  -30.8236   22.0191 H   0  0  0  0  0  0
  -28.1134  -28.9502   21.2140 H   0  0  0  0  0  0
  -25.9805  -25.9467   18.9540 H   0  0  0  0  0  0
  -23.9883  -27.3183   18.9830 H   0  0  0  0  0  0
  -23.7559  -30.5946   19.4063 H   0  0  0  0  0  0
  -22.7599  -29.2474   19.8599 H   0  0  0  0  0  0
  -25.1302  -36.1969   25.0835 H   0  0  0  0  0  0
  -20.9951  -28.3284   24.1413 H   0  0  0  0  0  0
  -20.5702  -26.2310   23.3623 H   0  0  0  0  0  0
  -21.6645  -26.7465   22.1202 H   0  0  0  0  0  0
  -19.6919  -25.6306   21.1242 H   0  0  0  0  0  0
  -19.6671  -27.3200   20.6746 H   0  0  0  0  0  0
  -17.4203  -26.6649   21.4019 H   0  0  0  0  0  0
  -18.0313  -26.0039   22.9000 H   0  0  0  0  0  0
  -19.7947  -30.7257   24.2228 H   0  0  0  0  0  0
  -17.5038  -31.6255   24.5182 H   0  0  0  0  0  0
  -15.5364  -30.2991   23.7686 H   0  0  0  0  0  0
  -15.8656  -28.0851   22.7061 H   0  0  0  0  0  0
  -24.5839  -30.7102   25.7813 H   0  0  0  0  0  0
  -24.8878  -32.2902   26.4906 H   0  0  0  0  0  0
  -25.7997  -30.8920   27.0244 H   0  0  0  0  0  0
  -26.2949  -29.6735   24.1259 H   0  0  0  0  0  0
  -27.4009  -29.7290   25.4787 H   0  0  0  0  0  0
  -27.8819  -30.4312   23.9516 H   0  0  0  0  0  0
  -27.2617  -33.3677   26.2044 H   0  0  0  0  0  0
  -28.3816  -32.6926   25.0320 H   0  0  0  0  0  0
  -28.0674  -31.8516   26.5434 H   0  0  0  0  0  0
  -28.2627  -38.0081   24.7552 H   0  0  0  0  0  0
  -28.1065  -36.2635   24.6275 H   0  0  0  0  0  0
  -27.2283  -37.1437   25.8856 H   0  0  0  0  0  0
  -20.9398  -29.8751   21.6858 H   0  0  0  0  0  0
  -26.0185  -38.2883   24.1414 H   0  0  0  0  0  0
  -28.8274  -21.2664   21.7329 H   0  0  0  0  0  0
  -30.6539  -24.2757   18.3554 H   0  0  0  0  0  0
  -29.3692  -23.7761   17.2386 H   0  0  0  0  0  0
  -31.0168  -23.2146   17.0342 H   0  0  0  0  0  0
  -30.1553  -21.2185   16.0449 H   0  0  0  0  0  0
  -30.6698  -19.6077   16.5335 H   0  0  0  0  0  0
  -31.7692  -20.9650   16.7302 H   0  0  0  0  0  0
  -27.1081  -18.7776   20.8499 H   0  0  0  0  0  0
  -27.5590  -17.0862   20.9287 H   0  0  0  0  0  0
  -27.7082  -17.9674   19.4082 H   0  0  0  0  0  0
  -28.6533  -19.3046   22.7846 H   0  0  0  0  0  0
  -30.3604  -18.8879   22.6920 H   0  0  0  0  0  0
  -29.1496  -17.6261   22.8707 H   0  0  0  0  0  0
  -30.1607  -24.3356   20.6475 H   0  0  0  0  0  0
  -28.8479  -23.7732   21.6106 H   0  0  0  0  0  0
  -31.2554  -17.4597   20.8259 H   0  0  0  0  0  0
  -30.3759  -17.2659   19.3467 H   0  0  0  0  0  0
  -27.1909  -24.6250   20.1018 H   0  0  0  0  0  0
  -28.2949  -24.9148   18.8013 H   0  0  0  0  0  0
  -28.9518  -15.6452   21.0797 H   0  0  0  0  0  0
  1 25  1  0  0  0
  1 30  2  0  0  0
  1 85  1  0  0  0
  2  3  1  0  0  0
  2 25  1  0  0  0
  2 86  1  0  0  0
  2 87  1  0  0  0
  3  4  1  0  0  0
  3 88  1  0  0  0
  3 89  1  0  0  0
  4  5  1  0  0  0
  4 90  1  0  0  0
  4 91  1  0  0  0
  5  6  1  0  0  0
  5 26  1  0  0  0
  5 92  1  0  0  0
  6 25  1  0  0  0
  6 93  1  0  0  0
  6 94  1  0  0  0
  7  8  2  0  0  0
  7 26  1  0  0  0
  7 29  1  0  0  0
  8  9  1  0  0  0
  8 22  1  0  0  0
  9 10  1  0  0  0
  9 27  2  0  0  0
 10 11  2  0  0  0
 10 15  1  0  0  0
 11 12  1  0  0  0
 11 95  1  0  0  0
 12 13  2  0  0  0
 12 96  1  0  0  0
 13 14  1  0  0  0
 13 31  1  0  0  0
 14 15  2  0  0  0
 14 97  1  0  0  0
 15 98  1  0  0  0
 16 17  2  0  0  0
 16 21  1  0  0  0
 16 31  1  0  0  0
 17 18  1  0  0  0
 17 99  1  0  0  0
 18 19  2  0  0  0
 18100  1  0  0  0
 19 20  1  0  0  0
 19 24  1  0  0  0
 20 21  2  0  0  0
 20101  1  0  0  0
 21 23  1  0  0  0
 22 28  1  0  0  0
 22 32  2  0  0  0
 26 27  1  0  0  0
 28102  1  0  0  0
 28103  1  0  0  0
 29104  1  0  0  0
 29105  1  0  0  0
 33 34  1  0  0  0
 33 66  1  0  0  0
 33 70  2  0  0  0
 34 36  1  0  0  0
 34 59  1  0  0  0
 34106  1  0  0  0
 35 44  2  0  0  0
 35 45  1  0  0  0
 35 68  1  0  0  0
 36 56  1  0  0  0
 36107  1  0  0  0
 37 39  1  0  0  0
 37 47  1  0  0  0
 37 66  1  0  0  0
 37108  1  0  0  0
 38 43  2  0  0  0
 38 46  1  0  0  0
 38 47  1  0  0  0
 39 64  1  0  0  0
 39 67  2  0  0  0
 40 52  1  0  0  0
 40 53  2  0  0  0
 40 58  1  0  0  0
 41109  1  0  0  0
 41110  1  0  0  0
 41111  1  0  0  0
 41 48  1  0  0  0
 42 43  1  0  0  0
 42 66  1  0  0  0
 42112  1  0  0  0
 42113  1  0  0  0
 43 44  1  0  0  0
 44114  1  0  0  0
 45 46  2  0  0  0
 45115  1  0  0  0
 46116  1  0  0  0
 47117  1  0  0  0
 47118  1  0  0  0
 48 56  1  0  0  0
 48 65  1  0  0  0
 48119  1  0  0  0
 49 50  1  0  0  0
 49 53  1  0  0  0
 49 64  1  0  0  0
 49120  1  0  0  0
 50 51  1  0  0  0
 50121  1  0  0  0
 50122  1  0  0  0
 51 52  1  0  0  0
 51123  1  0  0  0
 51124  1  0  0  0
 52125  1  0  0  0
 52126  1  0  0  0
 53 54  1  0  0  0
 54 55  2  0  0  0
 54127  1  0  0  0
 55 57  1  0  0  0
 55128  1  0  0  0
 56 69  2  0  0  0
 57 58  2  0  0  0
 57129  1  0  0  0
 58130  1  0  0  0
 59 60  1  0  0  0
 59 61  1  0  0  0
 59 62  1  0  0  0
 60131  1  0  0  0
 60132  1  0  0  0
 60133  1  0  0  0
 61134  1  0  0  0
 61135  1  0  0  0
 61136  1  0  0  0
 62137  1  0  0  0
 62138  1  0  0  0
 62139  1  0  0  0
 63 65  1  0  0  0
 63140  1  0  0  0
 63141  1  0  0  0
 63142  1  0  0  0
 64143  1  0  0  0
 65144  1  0  0  0
 68 82  1  0  0  0
 71 72  2  0  0  0
 71 74  1  0  0  0
 71145  1  0  0  0
 72 73  1  0  0  0
 72 80  1  0  0  0
 73 75  2  0  0  0
 73 76  1  0  0  0
 74 83  1  0  0  0
 74 84  2  0  0  0
 75 77  1  0  0  0
 75 84  1  0  0  0
 76146  1  0  0  0
 76147  1  0  0  0
 76148  1  0  0  0
 77149  1  0  0  0
 77150  1  0  0  0
 77151  1  0  0  0
 78152  1  0  0  0
 78153  1  0  0  0
 78154  1  0  0  0
 78 83  1  0  0  0
 79 83  1  0  0  0
 79155  1  0  0  0
 79156  1  0  0  0
 79157  1  0  0  0
 80 82  1  0  0  0
 80158  1  0  0  0
 80159  1  0  0  0
 81 83  1  0  0  0
 81 85  1  0  0  0
 81160  1  0  0  0
 81161  1  0  0  0
 82162  1  0  0  0
 82163  1  0  0  0
 85164  1  0  0  0
M  ISO  4   1 100  68 101  82 101  85 100
M  END
> <chiral flag>
0

> <version>
0

> <s_m_source_file>
/data/baiqing/PycharmProjects/Reinvent-master-3.2/result/LINK_invent/BTK/process_docking_weight1_custom_sum_contain_oxygen_bond_distance_aromatic_linkinvent_7_9_3/rearranged_h_0082.sdf

> <i_m_source_file_index>
90

> <r_mmod_Potential_Energy-OPLS-2005>
-86.015022277832

> <r_mmod_Stretch_Energy-OPLS-2005>
113.891914367676

> <r_mmod_Bend_Energy-OPLS-2005>
156.048446655273

> <r_mmod_Torsional_Energy-OPLS-2005>
210.518630981445

> <r_mmod_Improper_Torsional_Energy-OPLS-2005>
6.45357704162598

> <r_mmod_Van_der_Waal_Energy-OPLS-2005>
151.410079956055

> <r_mmod_Electrostatic_Energy-OPLS-2005>
-571.933410644531

> <r_mmod_Solvation_Energy-OPLS-2005>
-216.033981323242

> <b_mmod_Minimization_Converged-OPLS-2005>
0

> <r_mmod_RMS_Derivative-OPLS-2005>
2.5291121006012

$$$$
91
                    3D
 Structure written by MMmdl.
163171  0  0  1  0            999 V2000
  -31.4003  -14.4162   21.1627 C   0  0  0  0  0  0
  -30.6756  -14.5820   18.8725 C   0  0  0  0  0  0
  -29.3450  -14.2425   17.5905 C   0  0  0  0  0  0
  -27.5464  -14.1654   18.1453 C   0  0  0  0  0  0
  -27.1223  -14.1455   19.9597 C   0  0  2  0  0  0
  -28.5475  -14.5632   21.2467 C   0  0  0  0  0  0
  -24.9208  -14.0277   20.7233 C   0  0  0  0  0  0
  -23.9769  -13.1070   20.9977 C   0  0  0  0  0  0
  -24.5609  -11.8032   20.9135 C   0  0  0  0  0  0
  -23.9125  -10.4709   21.0291 C   0  0  0  0  0  0
  -24.3755   -9.4604   21.9081 C   0  0  0  0  0  0
  -23.6484   -8.2551   22.0712 C   0  0  0  0  0  0
  -22.4452   -8.0396   21.3538 C   0  0  0  0  0  0
  -22.0095   -9.0270   20.4549 C   0  0  0  0  0  0
  -22.7341  -10.2211   20.2886 C   0  0  0  0  0  0
  -21.6973   -6.0785   22.5267 C   0  0  0  0  0  0
  -21.4127   -6.5700   23.8191 C   0  0  0  0  0  0
  -21.3668   -5.6833   24.9159 C   0  0  0  0  0  0
  -21.6026   -4.3091   24.7230 C   0  0  0  0  0  0
  -21.8789   -3.8182   23.4349 C   0  0  0  0  0  0
  -21.9243   -4.7000   22.3403 C   0  0  0  0  0  0
  -22.5675  -13.4831   21.2116 C   0  0  0  0  0  0
  -22.1685   -4.2163   21.0984 F   0  0  0  0  0  0
  -21.5559   -3.4572   25.7752 F   0  0  0  0  0  0
  -30.2539  -14.7040   20.6124 N   0  0  0  0  0  0
  -26.0329  -13.3531   20.5073 N   0  0  0  0  0  0
  -25.8559  -11.9619   20.6496 N   0  0  0  0  0  0
  -21.8825  -12.7574   22.0772 N   0  0  0  0  0  0
  -24.9483  -15.4110   20.5693 N   0  0  0  0  0  0
  -32.4243  -14.8160   20.6265 O   0  0  0  0  0  0
  -21.6831   -6.8937   21.4222 O   0  0  0  0  0  0
  -22.1027  -14.4881   20.6750 O   0  0  0  0  0  0
  -24.7743  -31.6803   23.0773 C   0  0  0  0  0  0
  -25.9855  -32.3889   23.7651 C   0  0  1  0  0  0
  -27.0742  -25.7391   20.1514 C   0  0  0  0  0  0
  -25.6018  -33.7782   24.1394 N   0  0  0  0  0  0
  -23.6218  -30.2601   21.4602 C   0  0  2  0  0  0
  -25.0309  -28.4082   20.1081 C   0  0  0  0  0  0
  -22.8089  -29.3733   22.4495 C   0  0  0  0  0  0
  -18.0375  -28.1462   22.8399 C   0  0  0  0  0  0
  -24.1503  -36.6912   23.2678 C   0  0  0  0  0  0
  -26.2242  -30.0824   21.4692 C   0  0  0  0  0  0
  -26.2376  -28.5501   20.7980 C   0  0  0  0  0  0
  -27.2139  -27.2776   20.7564 C   0  0  0  0  0  0
  -25.8604  -26.0558   19.4151 C   0  0  0  0  0  0
  -24.9405  -27.1970   19.3894 C   0  0  0  0  0  0
  -23.8970  -29.4921   20.1203 C   0  0  0  0  0  0
  -25.4182  -36.2562   24.0213 C   0  0  1  0  0  0
  -20.6035  -28.3833   23.0996 C   0  0  2  0  0  0
  -20.6781  -26.9416   22.5424 C   0  0  0  0  0  0
  -19.5793  -26.6332   21.5210 C   0  0  0  0  0  0
  -18.1969  -26.7972   22.1583 C   0  0  0  0  0  0
  -19.1660  -28.8986   23.2656 C   0  0  0  0  0  0
  -18.9565  -30.1545   23.8739 C   0  0  0  0  0  0
  -17.6553  -30.6618   24.0524 C   0  0  0  0  0  0
  -25.9215  -34.8977   23.4720 C   0  0  0  0  0  0
  -16.5431  -29.9092   23.6365 C   0  0  0  0  0  0
  -16.7353  -28.6521   23.0372 C   0  0  0  0  0  0
  -26.4754  -31.6364   25.0659 C   0  0  0  0  0  0
  -25.3600  -31.3917   26.1112 C   0  0  0  0  0  0
  -27.0816  -30.2622   24.7211 C   0  0  0  0  0  0
  -27.6009  -32.4480   25.7498 C   0  0  0  0  0  0
  -27.5541  -37.1602   24.8459 C   0  0  0  0  0  0
  -21.4669  -29.2923   22.3232 N   0  0  0  0  0  0
  -26.4225  -37.3431   23.9418 N   0  0  0  0  0  0
  -24.9149  -30.7310   22.0533 N   0  0  0  0  0  0
  -23.4129  -28.7484   23.3232 O   0  0  0  0  0  0
  -27.8242  -24.0756   20.0669 O   0  0  0  0  0  0
  -26.6011  -34.8739   22.4449 O   0  0  0  0  0  0
  -23.6590  -32.0315   23.5169 O   0  0  0  0  0  0
  -28.1909  -17.7291   20.0094 C   0  0  0  0  0  0
  -28.2385  -19.5831   19.6445 C   0  0  0  0  0  0
  -28.6823  -16.0337   19.3410 C   0  0  0  0  0  0
  -29.2712  -18.1579   17.8881 C   0  0  0  0  0  0
  -29.9433  -18.3296   16.5435 C   0  0  0  0  0  0
  -28.7465  -11.8071   18.5147 C   0  0  0  0  0  0
  -29.5521  -10.6124   23.0120 C   0  0  0  0  0  0
  -27.6301  -21.8331   20.0297 C   0  0  0  0  0  0
  -29.0671  -11.9832   20.8865 C   0  0  0  0  0  0
  -30.5396  -12.9312   22.9533 C   0  0  0  0  0  0
  -29.0840  -13.0608   19.5708 C   0  0  2  0  0  0
  -29.3767  -12.0408   22.4464 C   0  0  2  0  0  0
  -28.8872  -19.3748   18.4465 N   0  0  0  0  0  0
  -29.1843  -16.8078   18.2512 N   0  0  0  0  0  0
  -31.4505  -13.3098   21.8980 N   0  0  0  0  0  0
  -31.1940  -15.5043   18.5971 H   0  0  0  0  0  0
  -31.4752  -13.8617   18.6677 H   0  0  0  0  0  0
  -29.6441  -13.3994   16.9691 H   0  0  0  0  0  0
  -29.4251  -14.9624   16.7723 H   0  0  0  0  0  0
  -26.9231  -13.5291   17.5102 H   0  0  0  0  0  0
  -27.0879  -15.0848   17.7700 H   0  0  0  0  0  0
  -26.9932  -13.2242   19.4234 H   0  0  0  0  0  0
  -28.3660  -14.1435   22.2147 H   0  0  0  0  0  0
  -28.3238  -15.5534   21.6507 H   0  0  0  0  0  0
  -25.2764   -9.6309   22.4801 H   0  0  0  0  0  0
  -24.0153   -7.5093   22.7612 H   0  0  0  0  0  0
  -21.1000   -8.8697   19.8962 H   0  0  0  0  0  0
  -22.3570  -10.9656   19.6008 H   0  0  0  0  0  0
  -21.2173   -7.6223   23.9722 H   0  0  0  0  0  0
  -21.1483   -6.0569   25.9054 H   0  0  0  0  0  0
  -22.0546   -2.7635   23.2858 H   0  0  0  0  0  0
  -22.2866  -11.9558   22.5370 H   0  0  0  0  0  0
  -20.9237  -13.0004   22.2806 H   0  0  0  0  0  0
  -24.0822  -15.9337   20.6339 H   0  0  0  0  0  0
  -25.7308  -15.9787   20.2672 H   0  0  0  0  0  0
  -26.8053  -32.4189   23.0456 H   0  0  0  0  0  0
  -24.9898  -33.8648   24.9365 H   0  0  0  0  0  0
  -23.0035  -31.1249   21.2122 H   0  0  0  0  0  0
  -23.3810  -35.9193   23.3184 H   0  0  0  0  0  0
  -24.3539  -36.8801   22.2128 H   0  0  0  0  0  0
  -23.7228  -37.5990   23.6944 H   0  0  0  0  0  0
  -26.5460  -30.7596   20.6760 H   0  0  0  0  0  0
  -27.0399  -30.1191   22.1776 H   0  0  0  0  0  0
  -28.1310  -27.4287   21.3067 H   0  0  0  0  0  0
  -25.5069  -25.2335   18.8075 H   0  0  0  0  0  0
  -24.0596  -27.0768   18.7734 H   0  0  0  0  0  0
  -24.1502  -30.2238   19.3539 H   0  0  0  0  0  0
  -22.9733  -29.0291   19.7718 H   0  0  0  0  0  0
  -25.1442  -36.1192   25.0699 H   0  0  0  0  0  0
  -21.0067  -28.3534   24.1150 H   0  0  0  0  0  0
  -20.5520  -26.2502   23.3774 H   0  0  0  0  0  0
  -21.6650  -26.7213   22.1340 H   0  0  0  0  0  0
  -19.6938  -25.6198   21.1354 H   0  0  0  0  0  0
  -19.6774  -27.3045   20.6670 H   0  0  0  0  0  0
  -17.4251  -26.6712   21.3975 H   0  0  0  0  0  0
  -18.0331  -26.0136   22.8998 H   0  0  0  0  0  0
  -19.8043  -30.7375   24.2063 H   0  0  0  0  0  0
  -17.5108  -31.6280   24.5172 H   0  0  0  0  0  0
  -15.5427  -30.2958   23.7770 H   0  0  0  0  0  0
  -15.8749  -28.0782   22.7192 H   0  0  0  0  0  0
  -24.5889  -30.7155   25.7409 H   0  0  0  0  0  0
  -24.8680  -32.3196   26.4041 H   0  0  0  0  0  0
  -25.7589  -30.9424   27.0219 H   0  0  0  0  0  0
  -26.3618  -29.5881   24.2569 H   0  0  0  0  0  0
  -27.4219  -29.7538   25.6251 H   0  0  0  0  0  0
  -27.9610  -30.3530   24.0835 H   0  0  0  0  0  0
  -27.2425  -33.3980   26.1475 H   0  0  0  0  0  0
  -28.4091  -32.6737   25.0528 H   0  0  0  0  0  0
  -28.0381  -31.9060   26.5893 H   0  0  0  0  0  0
  -28.2443  -37.9996   24.7531 H   0  0  0  0  0  0
  -28.1138  -36.2509   24.6246 H   0  0  0  0  0  0
  -27.2254  -37.1169   25.8852 H   0  0  0  0  0  0
  -21.0176  -29.8444   21.6054 H   0  0  0  0  0  0
  -25.9964  -38.2433   24.1459 H   0  0  0  0  0  0
  -27.6953  -17.6091   20.9643 H   0  0  0  0  0  0
  -30.1239  -19.3825   16.3220 H   0  0  0  0  0  0
  -29.3148  -17.9276   15.7506 H   0  0  0  0  0  0
  -30.8986  -17.8050   16.5192 H   0  0  0  0  0  0
  -28.4337  -10.8566   18.9557 H   0  0  0  0  0  0
  -29.6407  -11.5248   17.9553 H   0  0  0  0  0  0
  -27.9834  -11.8928   17.7545 H   0  0  0  0  0  0
  -30.4134  -10.1006   22.5864 H   0  0  0  0  0  0
  -28.6647   -9.9976   22.8243 H   0  0  0  0  0  0
  -29.6999  -10.6270   24.0952 H   0  0  0  0  0  0
  -27.2977  -21.7118   21.0613 H   0  0  0  0  0  0
  -26.7113  -21.8045   19.4432 H   0  0  0  0  0  0
  -29.7298  -11.1527   20.6117 H   0  0  0  0  0  0
  -28.1137  -11.4783   20.9047 H   0  0  0  0  0  0
  -31.1363  -12.4164   23.7109 H   0  0  0  0  0  0
  -30.1686  -13.8224   23.4662 H   0  0  0  0  0  0
  -30.0953  -12.6523   19.5342 H   0  0  0  0  0  0
  -28.4655  -12.3384   22.9690 H   0  0  0  0  0  0
  -32.3552  -12.8604   21.9222 H   0  0  0  0  0  0
  1 25  1  0  0  0
  1 30  2  0  0  0
  1 85  1  0  0  0
  2  3  1  0  0  0
  2 25  1  0  0  0
  2 86  1  0  0  0
  2 87  1  0  0  0
  3  4  1  0  0  0
  3 88  1  0  0  0
  3 89  1  0  0  0
  4  5  1  0  0  0
  4 90  1  0  0  0
  4 91  1  0  0  0
  5  6  1  0  0  0
  5 26  1  0  0  0
  5 92  1  0  0  0
  6 25  1  0  0  0
  6 93  1  0  0  0
  6 94  1  0  0  0
  7  8  2  0  0  0
  7 26  1  0  0  0
  7 29  1  0  0  0
  8  9  1  0  0  0
  8 22  1  0  0  0
  9 10  1  0  0  0
  9 27  2  0  0  0
 10 11  2  0  0  0
 10 15  1  0  0  0
 11 12  1  0  0  0
 11 95  1  0  0  0
 12 13  2  0  0  0
 12 96  1  0  0  0
 13 14  1  0  0  0
 13 31  1  0  0  0
 14 15  2  0  0  0
 14 97  1  0  0  0
 15 98  1  0  0  0
 16 17  2  0  0  0
 16 21  1  0  0  0
 16 31  1  0  0  0
 17 18  1  0  0  0
 17 99  1  0  0  0
 18 19  2  0  0  0
 18100  1  0  0  0
 19 20  1  0  0  0
 19 24  1  0  0  0
 20 21  2  0  0  0
 20101  1  0  0  0
 21 23  1  0  0  0
 22 28  1  0  0  0
 22 32  2  0  0  0
 26 27  1  0  0  0
 28102  1  0  0  0
 28103  1  0  0  0
 29104  1  0  0  0
 29105  1  0  0  0
 33 34  1  0  0  0
 33 66  1  0  0  0
 33 70  2  0  0  0
 34 36  1  0  0  0
 34 59  1  0  0  0
 34106  1  0  0  0
 35 44  2  0  0  0
 35 45  1  0  0  0
 35 68  1  0  0  0
 36 56  1  0  0  0
 36107  1  0  0  0
 37 39  1  0  0  0
 37 47  1  0  0  0
 37 66  1  0  0  0
 37108  1  0  0  0
 38 43  2  0  0  0
 38 46  1  0  0  0
 38 47  1  0  0  0
 39 64  1  0  0  0
 39 67  2  0  0  0
 40 52  1  0  0  0
 40 53  2  0  0  0
 40 58  1  0  0  0
 41109  1  0  0  0
 41110  1  0  0  0
 41111  1  0  0  0
 41 48  1  0  0  0
 42 43  1  0  0  0
 42 66  1  0  0  0
 42112  1  0  0  0
 42113  1  0  0  0
 43 44  1  0  0  0
 44114  1  0  0  0
 45 46  2  0  0  0
 45115  1  0  0  0
 46116  1  0  0  0
 47117  1  0  0  0
 47118  1  0  0  0
 48 56  1  0  0  0
 48 65  1  0  0  0
 48119  1  0  0  0
 49 50  1  0  0  0
 49 53  1  0  0  0
 49 64  1  0  0  0
 49120  1  0  0  0
 50 51  1  0  0  0
 50121  1  0  0  0
 50122  1  0  0  0
 51 52  1  0  0  0
 51123  1  0  0  0
 51124  1  0  0  0
 52125  1  0  0  0
 52126  1  0  0  0
 53 54  1  0  0  0
 54 55  2  0  0  0
 54127  1  0  0  0
 55 57  1  0  0  0
 55128  1  0  0  0
 56 69  2  0  0  0
 57 58  2  0  0  0
 57129  1  0  0  0
 58130  1  0  0  0
 59 60  1  0  0  0
 59 61  1  0  0  0
 59 62  1  0  0  0
 60131  1  0  0  0
 60132  1  0  0  0
 60133  1  0  0  0
 61134  1  0  0  0
 61135  1  0  0  0
 61136  1  0  0  0
 62137  1  0  0  0
 62138  1  0  0  0
 62139  1  0  0  0
 63 65  1  0  0  0
 63140  1  0  0  0
 63141  1  0  0  0
 63142  1  0  0  0
 64143  1  0  0  0
 65144  1  0  0  0
 68 78  1  0  0  0
 71 72  2  0  0  0
 71 73  1  0  0  0
 71145  1  0  0  0
 72 78  1  0  0  0
 72 83  1  0  0  0
 73 81  1  0  0  0
 73 84  2  0  0  0
 74 75  1  0  0  0
 74 83  2  0  0  0
 74 84  1  0  0  0
 75146  1  0  0  0
 75147  1  0  0  0
 75148  1  0  0  0
 76149  1  0  0  0
 76150  1  0  0  0
 76151  1  0  0  0
 76 81  1  0  0  0
 77152  1  0  0  0
 77153  1  0  0  0
 77154  1  0  0  0
 77 82  1  0  0  0
 78155  1  0  0  0
 78156  1  0  0  0
 79 81  1  0  0  0
 79 82  1  0  0  0
 79157  1  0  0  0
 79158  1  0  0  0
 80 82  1  0  0  0
 80 85  1  0  0  0
 80159  1  0  0  0
 80160  1  0  0  0
 81161  1  0  0  0
 82162  1  0  0  0
 85163  1  0  0  0
M  ISO  4   1 100  68 101  78 101  85 100
M  END
> <chiral flag>
0

> <version>
0

> <s_m_source_file>
/data/baiqing/PycharmProjects/Reinvent-master-3.2/result/LINK_invent/BTK/process_docking_weight1_custom_sum_contain_oxygen_bond_distance_aromatic_linkinvent_7_9_3/rearranged_h_0082.sdf

> <i_m_source_file_index>
91

> <r_mmod_Potential_Energy-OPLS-2005>
14603.9873046875

> <r_mmod_Stretch_Energy-OPLS-2005>
7666.77294921875

> <r_mmod_Bend_Energy-OPLS-2005>
1953.92053222656

> <r_mmod_Torsional_Energy-OPLS-2005>
358.314910888672

> <r_mmod_Improper_Torsional_Energy-OPLS-2005>
25.018928527832

> <r_mmod_Van_der_Waal_Energy-OPLS-2005>
1838.47619628906

> <r_mmod_Electrostatic_Energy-OPLS-2005>
-798.619995117188

> <r_mmod_Solvation_Energy-OPLS-2005>
-247.262771606445

> <b_mmod_Minimization_Converged-OPLS-2005>
0

> <r_mmod_RMS_Derivative-OPLS-2005>
7.97879648208618

$$$$
92
                    3D
 Structure written by MMmdl.
157165  0  0  1  0            999 V2000
  -30.6956  -14.5011   20.5704 C   0  0  0  0  0  0
  -30.4297  -12.3267   19.4265 C   0  0  0  0  0  0
  -29.5004  -12.5090   18.2090 C   0  0  0  0  0  0
  -28.0218  -12.3634   18.6212 C   0  0  0  0  0  0
  -27.6630  -13.2083   19.8731 C   0  0  2  0  0  0
  -28.7057  -13.0028   20.9955 C   0  0  0  0  0  0
  -25.2593  -13.8160   20.5671 C   0  0  0  0  0  0
  -24.1841  -13.0441   20.9169 C   0  0  0  0  0  0
  -24.6396  -11.6907   20.8727 C   0  0  0  0  0  0
  -23.9059  -10.4295   21.0402 C   0  0  0  0  0  0
  -24.3614   -9.4212   21.9180 C   0  0  0  0  0  0
  -23.6294   -8.2245   22.0750 C   0  0  0  0  0  0
  -22.4275   -8.0284   21.3542 C   0  0  0  0  0  0
  -21.9904   -9.0255   20.4643 C   0  0  0  0  0  0
  -22.7231  -10.2137   20.3051 C   0  0  0  0  0  0
  -21.6854   -6.0740   22.5279 C   0  0  0  0  0  0
  -21.4016   -6.5641   23.8214 C   0  0  0  0  0  0
  -21.3657   -5.6791   24.9174 C   0  0  0  0  0  0
  -21.6043   -4.3054   24.7223 C   0  0  0  0  0  0
  -21.8819   -3.8150   23.4342 C   0  0  0  0  0  0
  -21.9192   -4.6968   22.3400 C   0  0  0  0  0  0
  -22.7863  -13.5242   21.1839 C   0  0  0  0  0  0
  -22.1662   -4.2157   21.0977 F   0  0  0  0  0  0
  -21.5628   -3.4533   25.7734 F   0  0  0  0  0  0
  -30.0349  -13.3161   20.4428 N   0  0  0  0  0  0
  -26.3034  -12.9333   20.3353 N   0  0  0  0  0  0
  -25.9328  -11.6493   20.5755 N   0  0  0  0  0  0
  -22.0493  -12.8241   22.0395 N   0  0  0  0  0  0
  -25.4320  -15.1877   20.4078 N   0  0  0  0  0  0
  -31.8157  -14.6977   20.0938 O   0  0  0  0  0  0
  -21.6639   -6.8883   21.4241 O   0  0  0  0  0  0
  -22.3551  -14.5558   20.6701 O   0  0  0  0  0  0
  -24.6193  -31.8670   23.2110 C   0  0  0  0  0  0
  -25.9073  -32.4818   23.8405 C   0  0  1  0  0  0
  -27.2231  -27.3915   20.0886 C   0  0  0  0  0  0
  -25.5918  -33.8618   24.2328 N   0  0  0  0  0  0
  -23.4082  -30.4956   21.5529 C   0  0  2  0  0  0
  -24.8514  -28.9677   20.1116 C   0  0  0  0  0  0
  -22.7431  -29.4664   22.4967 C   0  0  0  0  0  0
  -18.0282  -28.1376   22.8494 C   0  0  0  0  0  0
  -24.1491  -36.7312   23.2636 C   0  0  0  0  0  0
  -25.9452  -30.8176   21.3751 C   0  0  0  0  0  0
  -26.0180  -29.4523   20.7156 C   0  0  0  0  0  0
  -27.2047  -28.6719   20.7050 C   0  0  0  0  0  0
  -26.0312  -26.9538   19.4556 C   0  0  0  0  0  0
  -24.8553  -27.7183   19.4791 C   0  0  0  0  0  0
  -23.6176  -29.8391   20.1649 C   0  0  0  0  0  0
  -25.4112  -36.3107   24.0334 C   0  0  1  0  0  0
  -20.5875  -28.3673   23.1301 C   0  0  2  0  0  0
  -20.6773  -26.9405   22.5408 C   0  0  0  0  0  0
  -19.5748  -26.6385   21.5211 C   0  0  0  0  0  0
  -18.1927  -26.7923   22.1625 C   0  0  0  0  0  0
  -19.1531  -28.8840   23.2897 C   0  0  0  0  0  0
  -18.9455  -30.1445   23.8910 C   0  0  0  0  0  0
  -17.6456  -30.6583   24.0563 C   0  0  0  0  0  0
  -25.9041  -34.9473   23.5124 C   0  0  0  0  0  0
  -16.5348  -29.9083   23.6326 C   0  0  0  0  0  0
  -16.7268  -28.6498   23.0352 C   0  0  0  0  0  0
  -26.4482  -31.6603   25.0746 C   0  0  0  0  0  0
  -25.3738  -31.3724   26.1487 C   0  0  0  0  0  0
  -27.0311  -30.3034   24.6153 C   0  0  0  0  0  0
  -27.6051  -32.4327   25.7510 C   0  0  0  0  0  0
  -27.5582  -37.1813   24.8464 C   0  0  0  0  0  0
  -21.4155  -29.3042   22.3705 N   0  0  0  0  0  0
  -26.4297  -37.3791   23.9405 N   0  0  0  0  0  0
  -24.6760  -31.0745   22.1036 N   0  0  0  0  0  0
  -23.4190  -28.8187   23.3005 O   0  0  0  0  0  0
  -28.3651  -26.5906   20.1296 O   0  0  0  0  0  0
  -26.5596  -34.8922   22.4682 O   0  0  0  0  0  0
  -23.5374  -32.1440   23.7479 O   0  0  0  0  0  0
  -28.9300  -20.2842   19.8742 C   0  0  0  0  0  0
  -29.8647  -19.2950   20.0923 C   0  0  0  0  0  0
  -30.8796  -21.3038   20.0958 C   0  0  0  0  0  0
  -31.9699  -22.3250   20.1207 C   0  0  0  0  0  0
  -29.7238  -17.7790   20.0270 C   0  0  0  0  0  0
  -29.2582  -24.1399   20.1309 C   0  0  0  0  0  0
  -28.9341  -22.7851   19.4156 C   0  0  0  0  0  0
  -30.3475  -16.9472   21.1843 C   0  0  0  0  0  0
  -28.1926  -25.2038   19.7336 C   0  0  0  0  0  0
  -29.5729  -21.5049   19.8491 N   0  0  0  0  0  0
  -31.0484  -19.9773   20.2560 N   0  3  0  0  0  0
  -29.9877  -15.5099   21.1199 N   0  0  0  0  0  0
  -31.4741  -12.4323   19.1260 H   0  0  0  0  0  0
  -30.3385  -11.3181   19.8318 H   0  0  0  0  0  0
  -29.7478  -11.7799   17.4361 H   0  0  0  0  0  0
  -29.6636  -13.4924   17.7648 H   0  0  0  0  0  0
  -27.8367  -11.3079   18.8226 H   0  0  0  0  0  0
  -27.3717  -12.6308   17.7874 H   0  0  0  0  0  0
  -27.7034  -14.2545   19.5689 H   0  0  0  0  0  0
  -28.6872  -11.9690   21.3444 H   0  0  0  0  0  0
  -28.4621  -13.6086   21.8691 H   0  0  0  0  0  0
  -25.2762   -9.5695   22.4750 H   0  0  0  0  0  0
  -24.0007   -7.4636   22.7466 H   0  0  0  0  0  0
  -21.0833   -8.8773   19.8947 H   0  0  0  0  0  0
  -22.3688  -10.9675   19.6159 H   0  0  0  0  0  0
  -21.2010   -7.6149   23.9725 H   0  0  0  0  0  0
  -21.1478   -6.0516   25.9079 H   0  0  0  0  0  0
  -22.0601   -2.7613   23.2837 H   0  0  0  0  0  0
  -22.4099  -11.9909   22.4801 H   0  0  0  0  0  0
  -21.1113  -13.1280   22.2596 H   0  0  0  0  0  0
  -24.6655  -15.8437   20.5127 H   0  0  0  0  0  0
  -26.2843  -15.6238   20.0806 H   0  0  0  0  0  0
  -26.7141  -32.5511   23.1162 H   0  0  0  0  0  0
  -25.0084  -33.9783   25.0484 H   0  0  0  0  0  0
  -22.6987  -31.3147   21.4175 H   0  0  0  0  0  0
  -23.3747  -35.9652   23.3307 H   0  0  0  0  0  0
  -24.3585  -36.8917   22.2048 H   0  0  0  0  0  0
  -23.7251  -37.6524   23.6644 H   0  0  0  0  0  0
  -26.0705  -31.5856   20.6106 H   0  0  0  0  0  0
  -26.8284  -30.8623   22.0005 H   0  0  0  0  0  0
  -28.0993  -29.0388   21.1885 H   0  0  0  0  0  0
  -25.9660  -26.0133   18.9299 H   0  0  0  0  0  0
  -23.9619  -27.3434   18.9988 H   0  0  0  0  0  0
  -23.7305  -30.6189   19.4107 H   0  0  0  0  0  0
  -22.7393  -29.2650   19.8637 H   0  0  0  0  0  0
  -25.1289  -36.1972   25.0827 H   0  0  0  0  0  0
  -20.9976  -28.3241   24.1417 H   0  0  0  0  0  0
  -20.5681  -26.2279   23.3599 H   0  0  0  0  0  0
  -21.6642  -26.7448   22.1196 H   0  0  0  0  0  0
  -19.6909  -25.6298   21.1233 H   0  0  0  0  0  0
  -19.6684  -27.3200   20.6745 H   0  0  0  0  0  0
  -17.4196  -26.6672   21.4028 H   0  0  0  0  0  0
  -18.0330  -26.0061   22.9018 H   0  0  0  0  0  0
  -19.7932  -30.7257   24.2285 H   0  0  0  0  0  0
  -17.5012  -31.6267   24.5158 H   0  0  0  0  0  0
  -15.5349  -30.2988   23.7643 H   0  0  0  0  0  0
  -15.8669  -28.0820   22.7062 H   0  0  0  0  0  0
  -24.5910  -30.7070   25.7828 H   0  0  0  0  0  0
  -24.8933  -32.2887   26.4928 H   0  0  0  0  0  0
  -25.8086  -30.8900   27.0250 H   0  0  0  0  0  0
  -26.2868  -29.6804   24.1178 H   0  0  0  0  0  0
  -27.4026  -29.7264   25.4632 H   0  0  0  0  0  0
  -27.8733  -30.4331   23.9352 H   0  0  0  0  0  0
  -27.2662  -33.3616   26.2107 H   0  0  0  0  0  0
  -28.3851  -32.6904   25.0334 H   0  0  0  0  0  0
  -28.0728  -31.8441   26.5412 H   0  0  0  0  0  0
  -28.2603  -38.0106   24.7503 H   0  0  0  0  0  0
  -28.1072  -36.2636   24.6299 H   0  0  0  0  0  0
  -27.2297  -37.1477   25.8867 H   0  0  0  0  0  0
  -20.9309  -29.8784   21.6949 H   0  0  0  0  0  0
  -26.0184  -38.2870   24.1396 H   0  0  0  0  0  0
  -27.8729  -20.1968   19.6594 H   0  0  0  0  0  0
  -31.9338  -22.8978   19.1945 H   0  0  0  0  0  0
  -32.9329  -21.8223   20.2037 H   0  0  0  0  0  0
  -31.8173  -22.9775   20.9797 H   0  0  0  0  0  0
  -30.1424  -17.4429   19.0777 H   0  0  0  0  0  0
  -28.6585  -17.5544   19.9712 H   0  0  0  0  0  0
  -30.2478  -24.4947   19.8464 H   0  0  0  0  0  0
  -29.2593  -24.0095   21.2138 H   0  0  0  0  0  0
  -29.1435  -22.8872   18.3501 H   0  0  0  0  0  0
  -27.8592  -22.6147   19.4838 H   0  0  0  0  0  0
  -29.9843  -17.3348   22.1370 H   0  0  0  0  0  0
  -31.4317  -17.0700   21.1983 H   0  0  0  0  0  0
  -27.2629  -24.8246   20.1607 H   0  0  0  0  0  0
  -28.0825  -25.1873   18.6477 H   0  0  0  0  0  0
  -31.9497  -19.5421   20.4171 H   0  0  0  0  0  0
  -29.0781  -15.2582   21.4769 H   0  0  0  0  0  0
  1 25  1  0  0  0
  1 30  2  0  0  0
  1 82  1  0  0  0
  2  3  1  0  0  0
  2 25  1  0  0  0
  2 83  1  0  0  0
  2 84  1  0  0  0
  3  4  1  0  0  0
  3 85  1  0  0  0
  3 86  1  0  0  0
  4  5  1  0  0  0
  4 87  1  0  0  0
  4 88  1  0  0  0
  5  6  1  0  0  0
  5 26  1  0  0  0
  5 89  1  0  0  0
  6 25  1  0  0  0
  6 90  1  0  0  0
  6 91  1  0  0  0
  7  8  2  0  0  0
  7 26  1  0  0  0
  7 29  1  0  0  0
  8  9  1  0  0  0
  8 22  1  0  0  0
  9 10  1  0  0  0
  9 27  2  0  0  0
 10 11  2  0  0  0
 10 15  1  0  0  0
 11 12  1  0  0  0
 11 92  1  0  0  0
 12 13  2  0  0  0
 12 93  1  0  0  0
 13 14  1  0  0  0
 13 31  1  0  0  0
 14 15  2  0  0  0
 14 94  1  0  0  0
 15 95  1  0  0  0
 16 17  2  0  0  0
 16 21  1  0  0  0
 16 31  1  0  0  0
 17 18  1  0  0  0
 17 96  1  0  0  0
 18 19  2  0  0  0
 18 97  1  0  0  0
 19 20  1  0  0  0
 19 24  1  0  0  0
 20 21  2  0  0  0
 20 98  1  0  0  0
 21 23  1  0  0  0
 22 28  1  0  0  0
 22 32  2  0  0  0
 26 27  1  0  0  0
 28 99  1  0  0  0
 28100  1  0  0  0
 29101  1  0  0  0
 29102  1  0  0  0
 33 34  1  0  0  0
 33 66  1  0  0  0
 33 70  2  0  0  0
 34 36  1  0  0  0
 34 59  1  0  0  0
 34103  1  0  0  0
 35 44  2  0  0  0
 35 45  1  0  0  0
 35 68  1  0  0  0
 36 56  1  0  0  0
 36104  1  0  0  0
 37 39  1  0  0  0
 37 47  1  0  0  0
 37 66  1  0  0  0
 37105  1  0  0  0
 38 43  2  0  0  0
 38 46  1  0  0  0
 38 47  1  0  0  0
 39 64  1  0  0  0
 39 67  2  0  0  0
 40 52  1  0  0  0
 40 53  2  0  0  0
 40 58  1  0  0  0
 41106  1  0  0  0
 41107  1  0  0  0
 41108  1  0  0  0
 41 48  1  0  0  0
 42 43  1  0  0  0
 42 66  1  0  0  0
 42109  1  0  0  0
 42110  1  0  0  0
 43 44  1  0  0  0
 44111  1  0  0  0
 45 46  2  0  0  0
 45112  1  0  0  0
 46113  1  0  0  0
 47114  1  0  0  0
 47115  1  0  0  0
 48 56  1  0  0  0
 48 65  1  0  0  0
 48116  1  0  0  0
 49 50  1  0  0  0
 49 53  1  0  0  0
 49 64  1  0  0  0
 49117  1  0  0  0
 50 51  1  0  0  0
 50118  1  0  0  0
 50119  1  0  0  0
 51 52  1  0  0  0
 51120  1  0  0  0
 51121  1  0  0  0
 52122  1  0  0  0
 52123  1  0  0  0
 53 54  1  0  0  0
 54 55  2  0  0  0
 54124  1  0  0  0
 55 57  1  0  0  0
 55125  1  0  0  0
 56 69  2  0  0  0
 57 58  2  0  0  0
 57126  1  0  0  0
 58127  1  0  0  0
 59 60  1  0  0  0
 59 61  1  0  0  0
 59 62  1  0  0  0
 60128  1  0  0  0
 60129  1  0  0  0
 60130  1  0  0  0
 61131  1  0  0  0
 61132  1  0  0  0
 61133  1  0  0  0
 62134  1  0  0  0
 62135  1  0  0  0
 62136  1  0  0  0
 63 65  1  0  0  0
 63137  1  0  0  0
 63138  1  0  0  0
 63139  1  0  0  0
 64140  1  0  0  0
 65141  1  0  0  0
 68 79  1  0  0  0
 71 72  2  0  0  0
 71 80  1  0  0  0
 71142  1  0  0  0
 72 75  1  0  0  0
 72 81  1  0  0  0
 73 74  1  0  0  0
 73 80  1  0  0  0
 73 81  2  0  0  0
 74143  1  0  0  0
 74144  1  0  0  0
 74145  1  0  0  0
 75 78  1  0  0  0
 75146  1  0  0  0
 75147  1  0  0  0
 76 77  1  0  0  0
 76 79  1  0  0  0
 76148  1  0  0  0
 76149  1  0  0  0
 77 80  1  0  0  0
 77150  1  0  0  0
 77151  1  0  0  0
 78 82  1  0  0  0
 78152  1  0  0  0
 78153  1  0  0  0
 79154  1  0  0  0
 79155  1  0  0  0
 81156  1  0  0  0
 82157  1  0  0  0
M  CHG  1  81   1
M  ISO  4   1 100  68 101  79 101  82 100
M  END
> <chiral flag>
0

> <version>
0

> <s_m_source_file>
/data/baiqing/PycharmProjects/Reinvent-master-3.2/result/LINK_invent/BTK/process_docking_weight1_custom_sum_contain_oxygen_bond_distance_aromatic_linkinvent_7_9_3/rearranged_h_0082.sdf

> <i_m_source_file_index>
92

> <r_mmod_Potential_Energy-OPLS-2005>
-117.817687988281

> <r_mmod_Stretch_Energy-OPLS-2005>
44.671257019043

> <r_mmod_Bend_Energy-OPLS-2005>
118.067962646484

> <r_mmod_Torsional_Energy-OPLS-2005>
207.275100708008

> <r_mmod_Improper_Torsional_Energy-OPLS-2005>
4.89104509353638

> <r_mmod_Van_der_Waal_Energy-OPLS-2005>
133.891311645508

> <r_mmod_Electrostatic_Energy-OPLS-2005>
-218.858383178711

> <r_mmod_Solvation_Energy-OPLS-2005>
-427.592559814453

> <b_mmod_Minimization_Converged-OPLS-2005>
0

> <r_mmod_RMS_Derivative-OPLS-2005>
0.773626148700714

$$$$
93
                    3D
 Structure written by MMmdl.
153161  0  0  1  0            999 V2000
  -30.5488  -14.9481   20.3354 C   0  0  0  0  0  0
  -30.4435  -12.5726   19.4888 C   0  0  0  0  0  0
  -29.5189  -12.4994   18.2515 C   0  0  0  0  0  0
  -28.0574  -12.2546   18.6774 C   0  0  0  0  0  0
  -27.6172  -13.2008   19.8191 C   0  0  2  0  0  0
  -28.6685  -13.3040   20.9480 C   0  0  0  0  0  0
  -25.2524  -13.8081   20.5729 C   0  0  0  0  0  0
  -24.1781  -13.0374   20.9237 C   0  0  0  0  0  0
  -24.6331  -11.6843   20.8773 C   0  0  0  0  0  0
  -23.9012  -10.4247   21.0433 C   0  0  0  0  0  0
  -24.3589   -9.4170   21.9200 C   0  0  0  0  0  0
  -23.6280   -8.2198   22.0750 C   0  0  0  0  0  0
  -22.4263   -8.0238   21.3540 C   0  0  0  0  0  0
  -21.9888   -9.0207   20.4643 C   0  0  0  0  0  0
  -22.7199  -10.2094   20.3066 C   0  0  0  0  0  0
  -21.6838   -6.0712   22.5281 C   0  0  0  0  0  0
  -21.4002   -6.5627   23.8210 C   0  0  0  0  0  0
  -21.3660   -5.6784   24.9176 C   0  0  0  0  0  0
  -21.6053   -4.3051   24.7231 C   0  0  0  0  0  0
  -21.8819   -3.8138   23.4354 C   0  0  0  0  0  0
  -21.9190   -4.6944   22.3410 C   0  0  0  0  0  0
  -22.7814  -13.5188   21.1895 C   0  0  0  0  0  0
  -22.1656   -4.2132   21.0985 F   0  0  0  0  0  0
  -21.5646   -3.4539   25.7749 F   0  0  0  0  0  0
  -29.9564  -13.6842   20.3503 N   0  0  0  0  0  0
  -26.2845  -12.9176   20.3230 N   0  0  0  0  0  0
  -25.9245  -11.6372   20.5765 N   0  0  0  0  0  0
  -22.0454  -12.8177   22.0440 N   0  0  0  0  0  0
  -25.4358  -15.1797   20.4204 N   0  0  0  0  0  0
  -31.7793  -14.9863   20.2174 O   0  0  0  0  0  0
  -21.6623   -6.8845   21.4237 O   0  0  0  0  0  0
  -22.3519  -14.5503   20.6742 O   0  0  0  0  0  0
  -24.6390  -31.8474   23.1897 C   0  0  0  0  0  0
  -25.9187  -32.4706   23.8270 C   0  0  1  0  0  0
  -27.2288  -27.1783   20.1380 C   0  0  0  0  0  0
  -25.5955  -33.8512   24.2188 N   0  0  0  0  0  0
  -23.4399  -30.4682   21.5337 C   0  0  2  0  0  0
  -24.8919  -28.8986   20.1101 C   0  0  0  0  0  0
  -22.7527  -29.4573   22.4851 C   0  0  0  0  0  0
  -18.0307  -28.1393   22.8475 C   0  0  0  0  0  0
  -24.1503  -36.7270   23.2635 C   0  0  0  0  0  0
  -25.9924  -30.7326   21.3843 C   0  0  0  0  0  0
  -26.0667  -29.3476   20.7255 C   0  0  0  0  0  0
  -27.2349  -28.5021   20.7264 C   0  0  0  0  0  0
  -26.0276  -26.8225   19.4836 C   0  0  0  0  0  0
  -24.8824  -27.6465   19.4769 C   0  0  0  0  0  0
  -23.6662  -29.7964   20.1531 C   0  0  0  0  0  0
  -25.4133  -36.3030   24.0303 C   0  0  1  0  0  0
  -20.5908  -28.3721   23.1242 C   0  0  2  0  0  0
  -20.6795  -26.9447   22.5377 C   0  0  0  0  0  0
  -19.5766  -26.6415   21.5185 C   0  0  0  0  0  0
  -18.1958  -26.7948   22.1597 C   0  0  0  0  0  0
  -19.1559  -28.8862   23.2857 C   0  0  0  0  0  0
  -18.9475  -30.1454   23.8888 C   0  0  0  0  0  0
  -17.6471  -30.6580   24.0567 C   0  0  0  0  0  0
  -25.9082  -34.9410   23.5053 C   0  0  0  0  0  0
  -16.5364  -29.9089   23.6319 C   0  0  0  0  0  0
  -16.7294  -28.6509   23.0343 C   0  0  0  0  0  0
  -26.4533  -31.6557   25.0698 C   0  0  0  0  0  0
  -25.3730  -31.3739   26.1395 C   0  0  0  0  0  0
  -27.0388  -30.2949   24.6264 C   0  0  0  0  0  0
  -27.6051  -32.4322   25.7499 C   0  0  0  0  0  0
  -27.5578  -37.1791   24.8458 C   0  0  0  0  0  0
  -21.4215  -29.3075   22.3613 N   0  0  0  0  0  0
  -26.4293  -37.3744   23.9400 N   0  0  0  0  0  0
  -24.7093  -31.0364   22.0913 N   0  0  0  0  0  0
  -23.4179  -28.8116   23.2987 O   0  0  0  0  0  0
  -28.3003  -26.2235   20.2083 O   0  0  0  0  0  0
  -26.5654  -34.8899   22.4623 O   0  0  0  0  0  0
  -23.5524  -32.1340   23.7148 O   0  0  0  0  0  0
  -30.0356  -17.7084   20.4814 C   0  0  0  0  0  0
  -28.0312  -17.2280   18.7441 C   0  0  0  0  0  0
  -29.2962  -18.9098   20.0097 C   0  0  0  0  0  0
  -28.2592  -18.5720   19.0942 C   0  0  0  0  0  0
  -29.7234  -16.3109   20.0914 C   0  0  0  0  0  0
  -27.3621  -19.5880   18.4047 C   0  0  0  0  0  0
  -29.6248  -20.4803   20.3974 C   0  0  0  0  0  0
  -28.6995  -21.8434   20.0496 C   0  0  0  0  0  0
  -29.0647  -23.4411   20.3770 C   0  0  0  0  0  0
  -28.0515  -24.7151   19.9942 C   0  0  0  0  0  0
  -28.7196  -16.1738   19.2056 N   0  0  0  0  0  0
  -31.4737  -12.7296   19.1662 H   0  0  0  0  0  0
  -30.4392  -11.6316   20.0395 H   0  0  0  0  0  0
  -29.8528  -11.7092   17.5794 H   0  0  0  0  0  0
  -29.5856  -13.4306   17.6859 H   0  0  0  0  0  0
  -27.9765  -11.2190   19.0083 H   0  0  0  0  0  0
  -27.3915  -12.3535   17.8199 H   0  0  0  0  0  0
  -27.5181  -14.1526   19.3233 H   0  0  0  0  0  0
  -28.7602  -12.3609   21.4885 H   0  0  0  0  0  0
  -28.3617  -14.0539   21.6790 H   0  0  0  0  0  0
  -25.2724   -9.5656   22.4779 H   0  0  0  0  0  0
  -23.9998   -7.4583   22.7457 H   0  0  0  0  0  0
  -21.0823   -8.8710   19.8945 H   0  0  0  0  0  0
  -22.3650  -10.9633   19.6184 H   0  0  0  0  0  0
  -21.1975   -7.6133   23.9707 H   0  0  0  0  0  0
  -21.1496   -6.0521   25.9080 H   0  0  0  0  0  0
  -22.0606   -2.7597   23.2861 H   0  0  0  0  0  0
  -22.4080  -11.9838   22.4826 H   0  0  0  0  0  0
  -21.1070  -13.1202   22.2652 H   0  0  0  0  0  0
  -24.6896  -15.8535   20.5516 H   0  0  0  0  0  0
  -26.3200  -15.6008   20.1552 H   0  0  0  0  0  0
  -26.7241  -32.5330   23.0987 H   0  0  0  0  0  0
  -25.0073  -33.9632   25.0312 H   0  0  0  0  0  0
  -22.7415  -31.2935   21.3797 H   0  0  0  0  0  0
  -23.3759  -35.9609   23.3288 H   0  0  0  0  0  0
  -24.3581  -36.8920   22.2051 H   0  0  0  0  0  0
  -23.7277  -37.6467   23.6692 H   0  0  0  0  0  0
  -26.1440  -31.4912   20.6146 H   0  0  0  0  0  0
  -26.8642  -30.7806   22.0258 H   0  0  0  0  0  0
  -28.1288  -28.8416   21.2303 H   0  0  0  0  0  0
  -25.9413  -25.8688   18.9849 H   0  0  0  0  0  0
  -23.9862  -27.2955   18.9849 H   0  0  0  0  0  0
  -23.8018  -30.5709   19.3968 H   0  0  0  0  0  0
  -22.7810  -29.2380   19.8429 H   0  0  0  0  0  0
  -25.1330  -36.1843   25.0796 H   0  0  0  0  0  0
  -21.0005  -28.3314   24.1359 H   0  0  0  0  0  0
  -20.5683  -26.2354   23.3604 H   0  0  0  0  0  0
  -21.6667  -26.7477   22.1166 H   0  0  0  0  0  0
  -19.6687  -27.3239   20.6715 H   0  0  0  0  0  0
  -19.6928  -25.6326   21.1217 H   0  0  0  0  0  0
  -17.4222  -26.6697   21.4011 H   0  0  0  0  0  0
  -18.0364  -26.0083   22.8989 H   0  0  0  0  0  0
  -19.7957  -30.7265   24.2253 H   0  0  0  0  0  0
  -17.5024  -31.6244   24.5193 H   0  0  0  0  0  0
  -15.5366  -30.2991   23.7634 H   0  0  0  0  0  0
  -15.8694  -28.0832   22.7061 H   0  0  0  0  0  0
  -24.5917  -30.7075   25.7727 H   0  0  0  0  0  0
  -24.8912  -32.2919   26.4766 H   0  0  0  0  0  0
  -25.8027  -30.8951   27.0200 H   0  0  0  0  0  0
  -26.2990  -29.6669   24.1275 H   0  0  0  0  0  0
  -27.4004  -29.7251   25.4834 H   0  0  0  0  0  0
  -27.8906  -30.4181   23.9570 H   0  0  0  0  0  0
  -27.2627  -33.3632   26.2032 H   0  0  0  0  0  0
  -28.3904  -32.6864   25.0369 H   0  0  0  0  0  0
  -28.0676  -31.8472   26.5459 H   0  0  0  0  0  0
  -28.2581  -38.0098   24.7497 H   0  0  0  0  0  0
  -28.1088  -36.2622   24.6302 H   0  0  0  0  0  0
  -27.2285  -37.1460   25.8856 H   0  0  0  0  0  0
  -20.9394  -29.8868   21.6875 H   0  0  0  0  0  0
  -26.0153  -38.2813   24.1392 H   0  0  0  0  0  0
  -30.8837  -17.8554   21.1366 H   0  0  0  0  0  0
  -27.2539  -16.9745   18.0369 H   0  0  0  0  0  0
  -27.9422  -20.2206   17.7349 H   0  0  0  0  0  0
  -26.8055  -20.1909   19.1200 H   0  0  0  0  0  0
  -26.6150  -19.0979   17.7782 H   0  0  0  0  0  0
  -29.7821  -20.4773   21.4759 H   0  0  0  0  0  0
  -30.6152  -20.6662   19.9799 H   0  0  0  0  0  0
  -28.5394  -21.8515   18.9759 H   0  0  0  0  0  0
  -27.7211  -21.6729   20.4986 H   0  0  0  0  0  0
  -30.0196  -23.6489   19.8960 H   0  0  0  0  0  0
  -29.2751  -23.5061   21.4441 H   0  0  0  0  0  0
  -27.1078  -24.4944   20.4938 H   0  0  0  0  0  0
  -27.8407  -24.6064   18.9290 H   0  0  0  0  0  0
  1 25  1  0  0  0
  1 30  2  0  0  0
  1 75  1  0  0  0
  2  3  1  0  0  0
  2 25  1  0  0  0
  2 82  1  0  0  0
  2 83  1  0  0  0
  3  4  1  0  0  0
  3 84  1  0  0  0
  3 85  1  0  0  0
  4  5  1  0  0  0
  4 86  1  0  0  0
  4 87  1  0  0  0
  5  6  1  0  0  0
  5 26  1  0  0  0
  5 88  1  0  0  0
  6 25  1  0  0  0
  6 89  1  0  0  0
  6 90  1  0  0  0
  7  8  2  0  0  0
  7 26  1  0  0  0
  7 29  1  0  0  0
  8  9  1  0  0  0
  8 22  1  0  0  0
  9 10  1  0  0  0
  9 27  2  0  0  0
 10 11  2  0  0  0
 10 15  1  0  0  0
 11 12  1  0  0  0
 11 91  1  0  0  0
 12 13  2  0  0  0
 12 92  1  0  0  0
 13 14  1  0  0  0
 13 31  1  0  0  0
 14 15  2  0  0  0
 14 93  1  0  0  0
 15 94  1  0  0  0
 16 17  2  0  0  0
 16 21  1  0  0  0
 16 31  1  0  0  0
 17 18  1  0  0  0
 17 95  1  0  0  0
 18 19  2  0  0  0
 18 96  1  0  0  0
 19 20  1  0  0  0
 19 24  1  0  0  0
 20 21  2  0  0  0
 20 97  1  0  0  0
 21 23  1  0  0  0
 22 28  1  0  0  0
 22 32  2  0  0  0
 26 27  1  0  0  0
 28 98  1  0  0  0
 28 99  1  0  0  0
 29100  1  0  0  0
 29101  1  0  0  0
 33 34  1  0  0  0
 33 66  1  0  0  0
 33 70  2  0  0  0
 34 36  1  0  0  0
 34 59  1  0  0  0
 34102  1  0  0  0
 35 44  2  0  0  0
 35 45  1  0  0  0
 35 68  1  0  0  0
 36 56  1  0  0  0
 36103  1  0  0  0
 37 39  1  0  0  0
 37 47  1  0  0  0
 37 66  1  0  0  0
 37104  1  0  0  0
 38 43  2  0  0  0
 38 46  1  0  0  0
 38 47  1  0  0  0
 39 64  1  0  0  0
 39 67  2  0  0  0
 40 52  1  0  0  0
 40 53  2  0  0  0
 40 58  1  0  0  0
 41105  1  0  0  0
 41106  1  0  0  0
 41107  1  0  0  0
 41 48  1  0  0  0
 42 43  1  0  0  0
 42 66  1  0  0  0
 42108  1  0  0  0
 42109  1  0  0  0
 43 44  1  0  0  0
 44110  1  0  0  0
 45 46  2  0  0  0
 45111  1  0  0  0
 46112  1  0  0  0
 47113  1  0  0  0
 47114  1  0  0  0
 48 56  1  0  0  0
 48 65  1  0  0  0
 48115  1  0  0  0
 49 50  1  0  0  0
 49 53  1  0  0  0
 49 64  1  0  0  0
 49116  1  0  0  0
 50 51  1  0  0  0
 50117  1  0  0  0
 50118  1  0  0  0
 51 52  1  0  0  0
 51119  1  0  0  0
 51120  1  0  0  0
 52121  1  0  0  0
 52122  1  0  0  0
 53 54  1  0  0  0
 54 55  2  0  0  0
 54123  1  0  0  0
 55 57  1  0  0  0
 55124  1  0  0  0
 56 69  2  0  0  0
 57 58  2  0  0  0
 57125  1  0  0  0
 58126  1  0  0  0
 59 60  1  0  0  0
 59 61  1  0  0  0
 59 62  1  0  0  0
 60127  1  0  0  0
 60128  1  0  0  0
 60129  1  0  0  0
 61130  1  0  0  0
 61131  1  0  0  0
 61132  1  0  0  0
 62133  1  0  0  0
 62134  1  0  0  0
 62135  1  0  0  0
 63 65  1  0  0  0
 63136  1  0  0  0
 63137  1  0  0  0
 63138  1  0  0  0
 64139  1  0  0  0
 65140  1  0  0  0
 68 80  1  0  0  0
 71 73  2  0  0  0
 71 75  1  0  0  0
 71141  1  0  0  0
 72 74  2  0  0  0
 72 81  1  0  0  0
 72142  1  0  0  0
 73 74  1  0  0  0
 73 77  1  0  0  0
 74 76  1  0  0  0
 75 81  2  0  0  0
 76143  1  0  0  0
 76144  1  0  0  0
 76145  1  0  0  0
 77 78  1  0  0  0
 77146  1  0  0  0
 77147  1  0  0  0
 78 79  1  0  0  0
 78148  1  0  0  0
 78149  1  0  0  0
 79 80  1  0  0  0
 79150  1  0  0  0
 79151  1  0  0  0
 80152  1  0  0  0
 80153  1  0  0  0
M  ISO  4   1 100  68 101  75 100  80 101
M  END
> <chiral flag>
0

> <version>
0

> <s_m_source_file>
/data/baiqing/PycharmProjects/Reinvent-master-3.2/result/LINK_invent/BTK/process_docking_weight1_custom_sum_contain_oxygen_bond_distance_aromatic_linkinvent_7_9_3/rearranged_h_0082.sdf

> <i_m_source_file_index>
93

> <r_mmod_Potential_Energy-OPLS-2005>
457.637237548828

> <r_mmod_Stretch_Energy-OPLS-2005>
235.108993530273

> <r_mmod_Bend_Energy-OPLS-2005>
237.411285400391

> <r_mmod_Torsional_Energy-OPLS-2005>
215.27375793457

> <r_mmod_Improper_Torsional_Energy-OPLS-2005>
9.54994869232178

> <r_mmod_Van_der_Waal_Energy-OPLS-2005>
144.307357788086

> <r_mmod_Electrostatic_Energy-OPLS-2005>
-376.376586914062

> <r_mmod_Solvation_Energy-OPLS-2005>
-190.199111938477

> <b_mmod_Minimization_Converged-OPLS-2005>
0

> <r_mmod_RMS_Derivative-OPLS-2005>
1.80788969993591

$$$$
94
                    3D
 Structure written by MMmdl.
161169  0  0  1  0            999 V2000
  -30.5917  -14.7193   20.5246 C   0  0  0  0  0  0
  -30.4638  -12.4478   19.4576 C   0  0  0  0  0  0
  -29.5371  -12.5365   18.2290 C   0  0  0  0  0  0
  -28.0577  -12.3558   18.6253 C   0  0  0  0  0  0
  -27.6551  -13.2256   19.8471 C   0  0  2  0  0  0
  -28.6918  -13.1055   20.9775 C   0  0  0  0  0  0
  -25.2533  -13.8193   20.5542 C   0  0  0  0  0  0
  -24.1867  -13.0427   20.9077 C   0  0  0  0  0  0
  -24.6468  -11.6905   20.8659 C   0  0  0  0  0  0
  -23.9191  -10.4258   21.0359 C   0  0  0  0  0  0
  -24.3719   -9.4170   21.9128 C   0  0  0  0  0  0
  -23.6342   -8.2245   22.0766 C   0  0  0  0  0  0
  -22.4317   -8.0302   21.3553 C   0  0  0  0  0  0
  -21.9953   -9.0288   20.4668 C   0  0  0  0  0  0
  -22.7351  -10.2108   20.3016 C   0  0  0  0  0  0
  -21.6879   -6.0751   22.5288 C   0  0  0  0  0  0
  -21.4001   -6.5629   23.8236 C   0  0  0  0  0  0
  -21.3631   -5.6786   24.9180 C   0  0  0  0  0  0
  -21.6069   -4.3049   24.7218 C   0  0  0  0  0  0
  -21.8804   -3.8149   23.4315 C   0  0  0  0  0  0
  -21.9160   -4.6956   22.3388 C   0  0  0  0  0  0
  -22.7833  -13.5235   21.1751 C   0  0  0  0  0  0
  -22.1626   -4.2145   21.0947 F   0  0  0  0  0  0
  -21.5667   -3.4533   25.7718 F   0  0  0  0  0  0
  -29.9965  -13.4821   20.4149 N   0  0  0  0  0  0
  -26.3026  -12.9408   20.3196 N   0  0  0  0  0  0
  -25.9395  -11.6571   20.5678 N   0  0  0  0  0  0
  -22.0467  -12.8247   22.0332 N   0  0  0  0  0  0
  -25.4126  -15.1903   20.3909 N   0  0  0  0  0  0
  -31.7609  -14.8920   20.1828 O   0  0  0  0  0  0
  -21.6634   -6.8925   21.4305 O   0  0  0  0  0  0
  -22.3476  -14.5478   20.6575 O   0  0  0  0  0  0
  -24.6247  -31.8568   23.1936 C   0  0  0  0  0  0
  -25.9079  -32.4749   23.8284 C   0  0  1  0  0  0
  -27.2253  -27.3026   20.1678 C   0  0  0  0  0  0
  -25.5832  -33.8557   24.2167 N   0  0  0  0  0  0
  -23.4163  -30.4745   21.5424 C   0  0  2  0  0  0
  -24.8659  -28.9138   20.1343 C   0  0  0  0  0  0
  -22.7447  -29.4624   22.4997 C   0  0  0  0  0  0
  -18.0262  -28.1469   22.8526 C   0  0  0  0  0  0
  -24.1440  -36.7290   23.2642 C   0  0  0  0  0  0
  -25.9555  -30.7855   21.3662 C   0  0  0  0  0  0
  -26.0320  -29.4038   20.7348 C   0  0  0  0  0  0
  -27.2207  -28.6108   20.7424 C   0  0  0  0  0  0
  -26.0414  -26.8631   19.5441 C   0  0  0  0  0  0
  -24.8698  -27.6459   19.5340 C   0  0  0  0  0  0
  -23.6301  -29.7912   20.1675 C   0  0  0  0  0  0
  -25.4087  -36.3075   24.0294 C   0  0  1  0  0  0
  -20.5845  -28.3712   23.1329 C   0  0  2  0  0  0
  -20.6732  -26.9421   22.5476 C   0  0  0  0  0  0
  -19.5714  -26.6454   21.5264 C   0  0  0  0  0  0
  -18.1895  -26.8016   22.1670 C   0  0  0  0  0  0
  -19.1504  -28.8914   23.2931 C   0  0  0  0  0  0
  -18.9463  -30.1527   23.8922 C   0  0  0  0  0  0
  -17.6464  -30.6677   24.0610 C   0  0  0  0  0  0
  -25.9054  -34.9440   23.5052 C   0  0  0  0  0  0
  -16.5347  -29.9195   23.6380 C   0  0  0  0  0  0
  -16.7250  -28.6621   23.0388 C   0  0  0  0  0  0
  -26.4440  -31.6619   25.0714 C   0  0  0  0  0  0
  -25.3587  -31.3941   26.1404 C   0  0  0  0  0  0
  -27.0228  -30.2967   24.6289 C   0  0  0  0  0  0
  -27.5965  -32.4400   25.7502 C   0  0  0  0  0  0
  -27.5554  -37.1777   24.8444 C   0  0  0  0  0  0
  -21.4153  -29.3041   22.3699 N   0  0  0  0  0  0
  -26.4253  -37.3789   23.9408 N   0  0  0  0  0  0
  -24.6845  -31.0588   22.0893 N   0  0  0  0  0  0
  -23.4150  -28.8160   23.3088 O   0  0  0  0  0  0
  -28.3448  -26.4840   20.0294 O   0  0  0  0  0  0
  -26.5715  -34.8933   22.4694 O   0  0  0  0  0  0
  -23.5404  -32.1374   23.7262 O   0  0  0  0  0  0
  -27.7870  -20.4003   20.7436 C   0  0  0  0  0  0
  -27.4554  -21.7684   20.9541 C   0  0  0  0  0  0
  -29.1396  -19.9447   20.7248 C   0  0  0  0  0  0
  -28.4580  -22.7516   21.1321 C   0  0  0  0  0  0
  -30.0891  -20.9981   20.9428 C   0  0  0  0  0  0
  -32.1986  -20.4382   22.3049 C   0  0  0  0  0  0
  -28.0373  -24.2682   23.1244 C   0  0  0  0  0  0
  -29.4837  -18.4376   20.2776 C   0  0  0  0  0  0
  -31.5893  -20.7081   20.9164 C   0  0  0  0  0  0
  -29.9687  -17.2493   21.2725 C   0  0  0  0  0  0
  -28.8085  -25.5487   21.0688 C   0  0  0  0  0  0
  -28.0491  -24.2253   21.5795 C   0  0  1  0  0  0
  -29.7589  -22.3208   21.1688 N   0  0  0  0  0  0
  -29.7701  -15.7747   20.8821 N   0  0  0  0  0  0
  -31.4979  -12.6185   19.1509 H   0  0  0  0  0  0
  -30.4524  -11.4566   19.9119 H   0  0  0  0  0  0
  -29.8379  -11.8050   17.4720 H   0  0  0  0  0  0
  -29.6590  -13.5182   17.7704 H   0  0  0  0  0  0
  -27.9033  -11.3036   18.8534 H   0  0  0  0  0  0
  -27.4138  -12.5669   17.7722 H   0  0  0  0  0  0
  -27.6737  -14.2592   19.4981 H   0  0  0  0  0  0
  -28.7087  -12.0904   21.3734 H   0  0  0  0  0  0
  -28.4305  -13.7375   21.8258 H   0  0  0  0  0  0
  -25.2889   -9.5604   22.4693 H   0  0  0  0  0  0
  -23.9992   -7.4634   22.7481 H   0  0  0  0  0  0
  -21.0880   -8.8887   19.8958 H   0  0  0  0  0  0
  -22.3916  -10.9646   19.6070 H   0  0  0  0  0  0
  -21.2016   -7.6135   23.9748 H   0  0  0  0  0  0
  -21.1499   -6.0492   25.9104 H   0  0  0  0  0  0
  -22.0614   -2.7611   23.2819 H   0  0  0  0  0  0
  -22.4092  -11.9940   22.4771 H   0  0  0  0  0  0
  -21.1091  -13.1295   22.2544 H   0  0  0  0  0  0
  -24.6407  -15.8312   20.5443 H   0  0  0  0  0  0
  -26.2663  -15.6568   20.1116 H   0  0  0  0  0  0
  -26.7131  -32.5407   23.1025 H   0  0  0  0  0  0
  -24.9624  -33.9607   25.0036 H   0  0  0  0  0  0
  -22.7156  -31.2972   21.3942 H   0  0  0  0  0  0
  -23.3688  -35.9635   23.3335 H   0  0  0  0  0  0
  -24.3493  -36.8928   22.2049 H   0  0  0  0  0  0
  -23.7194  -37.6485   23.6696 H   0  0  0  0  0  0
  -26.0842  -31.5419   20.5898 H   0  0  0  0  0  0
  -26.8341  -30.8453   21.9972 H   0  0  0  0  0  0
  -28.1250  -29.0000   21.1844 H   0  0  0  0  0  0
  -26.0230  -25.9018   19.0490 H   0  0  0  0  0  0
  -23.9725  -27.2690   19.0651 H   0  0  0  0  0  0
  -23.7199  -30.5468   19.3868 H   0  0  0  0  0  0
  -22.7552  -29.1990   19.8926 H   0  0  0  0  0  0
  -25.1269  -36.1903   25.0781 H   0  0  0  0  0  0
  -20.9968  -28.3318   24.1430 H   0  0  0  0  0  0
  -20.5667  -26.2284   23.3664 H   0  0  0  0  0  0
  -21.6599  -26.7510   22.1242 H   0  0  0  0  0  0
  -19.6850  -25.6394   21.1254 H   0  0  0  0  0  0
  -19.6660  -27.3271   20.6803 H   0  0  0  0  0  0
  -17.4151  -26.6767   21.4088 H   0  0  0  0  0  0
  -18.0309  -26.0194   22.9107 H   0  0  0  0  0  0
  -19.7922  -30.7379   24.2264 H   0  0  0  0  0  0
  -17.5027  -31.6330   24.5258 H   0  0  0  0  0  0
  -15.5361  -30.3130   23.7747 H   0  0  0  0  0  0
  -15.8636  -28.0997   22.7102 H   0  0  0  0  0  0
  -24.5661  -30.7402   25.7754 H   0  0  0  0  0  0
  -24.8859  -32.3192   26.4722 H   0  0  0  0  0  0
  -25.7771  -30.9156   27.0249 H   0  0  0  0  0  0
  -26.2818  -29.6789   24.1185 H   0  0  0  0  0  0
  -27.3644  -29.7243   25.4933 H   0  0  0  0  0  0
  -27.8839  -30.4148   23.9691 H   0  0  0  0  0  0
  -27.2502  -33.3677   26.2080 H   0  0  0  0  0  0
  -28.3772  -32.7020   25.0348 H   0  0  0  0  0  0
  -28.0622  -31.8524   26.5414 H   0  0  0  0  0  0
  -28.2617  -38.0043   24.7529 H   0  0  0  0  0  0
  -28.1018  -36.2594   24.6243 H   0  0  0  0  0  0
  -27.2281  -37.1412   25.8851 H   0  0  0  0  0  0
  -20.9353  -29.8621   21.6773 H   0  0  0  0  0  0
  -26.0129  -38.2847   24.1491 H   0  0  0  0  0  0
  -26.9756  -19.7086   20.5650 H   0  0  0  0  0  0
  -26.4091  -22.0482   21.0095 H   0  0  0  0  0  0
  -33.2713  -20.2582   22.2301 H   0  0  0  0  0  0
  -31.7863  -19.5429   22.7636 H   0  0  0  0  0  0
  -32.0330  -21.2762   22.9844 H   0  0  0  0  0  0
  -27.4263  -23.4779   23.5526 H   0  0  0  0  0  0
  -27.6315  -25.2114   23.4924 H   0  0  0  0  0  0
  -29.0498  -24.1668   23.5244 H   0  0  0  0  0  0
  -30.2290  -18.5264   19.4857 H   0  0  0  0  0  0
  -28.6055  -18.0762   19.7420 H   0  0  0  0  0  0
  -32.1214  -21.5330   20.4362 H   0  0  0  0  0  0
  -31.7906  -19.8466   20.2840 H   0  0  0  0  0  0
  -29.3553  -17.3380   22.1708 H   0  0  0  0  0  0
  -30.9847  -17.4059   21.6326 H   0  0  0  0  0  0
  -29.8181  -25.2441   20.8003 H   0  0  0  0  0  0
  -28.9716  -26.1973   21.9333 H   0  0  0  0  0  0
  -27.0092  -24.3525   21.2829 H   0  0  0  0  0  0
  -28.8354  -15.4505   21.0514 H   0  0  0  0  0  0
  1 25  1  0  0  0
  1 30  2  0  0  0
  1 84  1  0  0  0
  2  3  1  0  0  0
  2 25  1  0  0  0
  2 85  1  0  0  0
  2 86  1  0  0  0
  3  4  1  0  0  0
  3 87  1  0  0  0
  3 88  1  0  0  0
  4  5  1  0  0  0
  4 89  1  0  0  0
  4 90  1  0  0  0
  5  6  1  0  0  0
  5 26  1  0  0  0
  5 91  1  0  0  0
  6 25  1  0  0  0
  6 92  1  0  0  0
  6 93  1  0  0  0
  7  8  2  0  0  0
  7 26  1  0  0  0
  7 29  1  0  0  0
  8  9  1  0  0  0
  8 22  1  0  0  0
  9 10  1  0  0  0
  9 27  2  0  0  0
 10 11  2  0  0  0
 10 15  1  0  0  0
 11 12  1  0  0  0
 11 94  1  0  0  0
 12 13  2  0  0  0
 12 95  1  0  0  0
 13 14  1  0  0  0
 13 31  1  0  0  0
 14 15  2  0  0  0
 14 96  1  0  0  0
 15 97  1  0  0  0
 16 17  2  0  0  0
 16 21  1  0  0  0
 16 31  1  0  0  0
 17 18  1  0  0  0
 17 98  1  0  0  0
 18 19  2  0  0  0
 18 99  1  0  0  0
 19 20  1  0  0  0
 19 24  1  0  0  0
 20 21  2  0  0  0
 20100  1  0  0  0
 21 23  1  0  0  0
 22 28  1  0  0  0
 22 32  2  0  0  0
 26 27  1  0  0  0
 28101  1  0  0  0
 28102  1  0  0  0
 29103  1  0  0  0
 29104  1  0  0  0
 33 34  1  0  0  0
 33 66  1  0  0  0
 33 70  2  0  0  0
 34 36  1  0  0  0
 34 59  1  0  0  0
 34105  1  0  0  0
 35 44  2  0  0  0
 35 45  1  0  0  0
 35 68  1  0  0  0
 36 56  1  0  0  0
 36106  1  0  0  0
 37 39  1  0  0  0
 37 47  1  0  0  0
 37 66  1  0  0  0
 37107  1  0  0  0
 38 43  2  0  0  0
 38 46  1  0  0  0
 38 47  1  0  0  0
 39 64  1  0  0  0
 39 67  2  0  0  0
 40 52  1  0  0  0
 40 53  2  0  0  0
 40 58  1  0  0  0
 41108  1  0  0  0
 41109  1  0  0  0
 41110  1  0  0  0
 41 48  1  0  0  0
 42 43  1  0  0  0
 42 66  1  0  0  0
 42111  1  0  0  0
 42112  1  0  0  0
 43 44  1  0  0  0
 44113  1  0  0  0
 45 46  2  0  0  0
 45114  1  0  0  0
 46115  1  0  0  0
 47116  1  0  0  0
 47117  1  0  0  0
 48 56  1  0  0  0
 48 65  1  0  0  0
 48118  1  0  0  0
 49 50  1  0  0  0
 49 53  1  0  0  0
 49 64  1  0  0  0
 49119  1  0  0  0
 50 51  1  0  0  0
 50120  1  0  0  0
 50121  1  0  0  0
 51 52  1  0  0  0
 51122  1  0  0  0
 51123  1  0  0  0
 52124  1  0  0  0
 52125  1  0  0  0
 53 54  1  0  0  0
 54 55  2  0  0  0
 54126  1  0  0  0
 55 57  1  0  0  0
 55127  1  0  0  0
 56 69  2  0  0  0
 57 58  2  0  0  0
 57128  1  0  0  0
 58129  1  0  0  0
 59 60  1  0  0  0
 59 61  1  0  0  0
 59 62  1  0  0  0
 60130  1  0  0  0
 60131  1  0  0  0
 60132  1  0  0  0
 61133  1  0  0  0
 61134  1  0  0  0
 61135  1  0  0  0
 62136  1  0  0  0
 62137  1  0  0  0
 62138  1  0  0  0
 63 65  1  0  0  0
 63139  1  0  0  0
 63140  1  0  0  0
 63141  1  0  0  0
 64142  1  0  0  0
 65143  1  0  0  0
 68 81  1  0  0  0
 71 72  2  0  0  0
 71 73  1  0  0  0
 71144  1  0  0  0
 72 74  1  0  0  0
 72145  1  0  0  0
 73 75  2  0  0  0
 73 78  1  0  0  0
 74 82  1  0  0  0
 74 83  2  0  0  0
 75 79  1  0  0  0
 75 83  1  0  0  0
 76 79  1  0  0  0
 76146  1  0  0  0
 76147  1  0  0  0
 76148  1  0  0  0
 77149  1  0  0  0
 77150  1  0  0  0
 77151  1  0  0  0
 77 82  1  0  0  0
 78 80  1  0  0  0
 78152  1  0  0  0
 78153  1  0  0  0
 79154  1  0  0  0
 79155  1  0  0  0
 80 84  1  0  0  0
 80156  1  0  0  0
 80157  1  0  0  0
 81 82  1  0  0  0
 81158  1  0  0  0
 81159  1  0  0  0
 82160  1  0  0  0
 84161  1  0  0  0
M  ISO  4   1 100  68 101  81 101  84 100
M  END
> <chiral flag>
0

> <version>
0

> <s_m_source_file>
/data/baiqing/PycharmProjects/Reinvent-master-3.2/result/LINK_invent/BTK/process_docking_weight1_custom_sum_contain_oxygen_bond_distance_aromatic_linkinvent_7_9_3/rearranged_h_0082.sdf

> <i_m_source_file_index>
94

> <r_mmod_Potential_Energy-OPLS-2005>
-32.4504280090332

> <r_mmod_Stretch_Energy-OPLS-2005>
111.134773254395

> <r_mmod_Bend_Energy-OPLS-2005>
209.9873046875

> <r_mmod_Torsional_Energy-OPLS-2005>
223.026473999023

> <r_mmod_Improper_Torsional_Energy-OPLS-2005>
6.78521680831909

> <r_mmod_Van_der_Waal_Energy-OPLS-2005>
128.279144287109

> <r_mmod_Electrostatic_Energy-OPLS-2005>
-557.941711425781

> <r_mmod_Solvation_Energy-OPLS-2005>
-219.004135131836

> <b_mmod_Minimization_Converged-OPLS-2005>
0

> <r_mmod_RMS_Derivative-OPLS-2005>
10.1883163452148

$$$$
95
                    3D
 Structure written by MMmdl.
168176  0  0  1  0            999 V2000
  -30.7023  -14.4915   20.5059 C   0  0  0  0  0  0
  -30.4293  -12.2917   19.4576 C   0  0  0  0  0  0
  -29.5055  -12.4567   18.2323 C   0  0  0  0  0  0
  -28.0290  -12.3253   18.6457 C   0  0  0  0  0  0
  -27.6658  -13.2024   19.8731 C   0  0  2  0  0  0
  -28.7056  -13.0251   21.0050 C   0  0  0  0  0  0
  -25.2578  -13.8164   20.5510 C   0  0  0  0  0  0
  -24.1831  -13.0461   20.9113 C   0  0  0  0  0  0
  -24.6411  -11.6942   20.8712 C   0  0  0  0  0  0
  -23.9080  -10.4331   21.0380 C   0  0  0  0  0  0
  -24.3636   -9.4276   21.9178 C   0  0  0  0  0  0
  -23.6311   -8.2316   22.0759 C   0  0  0  0  0  0
  -22.4313   -8.0326   21.3558 C   0  0  0  0  0  0
  -21.9909   -9.0285   20.4667 C   0  0  0  0  0  0
  -22.7230  -10.2175   20.3055 C   0  0  0  0  0  0
  -21.6906   -6.0768   22.5277 C   0  0  0  0  0  0
  -21.4038   -6.5667   23.8210 C   0  0  0  0  0  0
  -21.3626   -5.6814   24.9168 C   0  0  0  0  0  0
  -21.6023   -4.3058   24.7222 C   0  0  0  0  0  0
  -21.8826   -3.8183   23.4339 C   0  0  0  0  0  0
  -21.9207   -4.7006   22.3408 C   0  0  0  0  0  0
  -22.7860  -13.5239   21.1779 C   0  0  0  0  0  0
  -22.1682   -4.2173   21.0982 F   0  0  0  0  0  0
  -21.5605   -3.4544   25.7739 F   0  0  0  0  0  0
  -30.0425  -13.3034   20.4521 N   0  0  0  0  0  0
  -26.3051  -12.9344   20.3345 N   0  0  0  0  0  0
  -25.9344  -11.6508   20.5815 N   0  0  0  0  0  0
  -22.0520  -12.8222   22.0349 N   0  0  0  0  0  0
  -25.4269  -15.1830   20.3699 N   0  0  0  0  0  0
  -31.8572  -14.6388   20.0986 O   0  0  0  0  0  0
  -21.6701   -6.8905   21.4235 O   0  0  0  0  0  0
  -22.3527  -14.5562   20.6664 O   0  0  0  0  0  0
  -24.6149  -31.8662   23.2100 C   0  0  0  0  0  0
  -25.9050  -32.4797   23.8371 C   0  0  1  0  0  0
  -27.2143  -27.4246   20.0932 C   0  0  0  0  0  0
  -25.5905  -33.8606   24.2284 N   0  0  0  0  0  0
  -23.3972  -30.4953   21.5518 C   0  0  2  0  0  0
  -24.8373  -28.9596   20.1140 C   0  0  0  0  0  0
  -22.7385  -29.4680   22.4984 C   0  0  0  0  0  0
  -18.0282  -28.1367   22.8482 C   0  0  0  0  0  0
  -24.1495  -36.7322   23.2626 C   0  0  0  0  0  0
  -25.9286  -30.8319   21.3588 C   0  0  0  0  0  0
  -26.0035  -29.4683   20.7015 C   0  0  0  0  0  0
  -27.2001  -28.7136   20.6761 C   0  0  0  0  0  0
  -26.0317  -26.9307   19.5009 C   0  0  0  0  0  0
  -24.8488  -27.6910   19.5077 C   0  0  0  0  0  0
  -23.6010  -29.8295   20.1666 C   0  0  0  0  0  0
  -25.4111  -36.3088   24.0314 C   0  0  1  0  0  0
  -20.5859  -28.3657   23.1318 C   0  0  2  0  0  0
  -20.6778  -26.9391   22.5426 C   0  0  0  0  0  0
  -19.5779  -26.6378   21.5210 C   0  0  0  0  0  0
  -18.1938  -26.7926   22.1595 C   0  0  0  0  0  0
  -19.1516  -28.8832   23.2898 C   0  0  0  0  0  0
  -18.9457  -30.1434   23.8905 C   0  0  0  0  0  0
  -17.6459  -30.6575   24.0568 C   0  0  0  0  0  0
  -25.9044  -34.9455   23.5089 C   0  0  0  0  0  0
  -16.5354  -29.9069   23.6324 C   0  0  0  0  0  0
  -16.7266  -28.6488   23.0338 C   0  0  0  0  0  0
  -26.4483  -31.6580   25.0700 C   0  0  0  0  0  0
  -25.3759  -31.3715   26.1462 C   0  0  0  0  0  0
  -27.0272  -30.2993   24.6079 C   0  0  0  0  0  0
  -27.6021  -32.4325   25.7466 C   0  0  0  0  0  0
  -27.5583  -37.1806   24.8452 C   0  0  0  0  0  0
  -21.4119  -29.3029   22.3714 N   0  0  0  0  0  0
  -26.4283  -37.3769   23.9409 N   0  0  0  0  0  0
  -24.6647  -31.0798   22.0972 N   0  0  0  0  0  0
  -23.4172  -28.8211   23.3021 O   0  0  0  0  0  0
  -28.3608  -26.6628   20.0893 O   0  0  0  0  0  0
  -26.5602  -34.8908   22.4655 O   0  0  0  0  0  0
  -23.5353  -32.1398   23.7544 O   0  0  0  0  0  0
  -29.8428  -21.3058   22.0390 C   0  0  0  0  0  0
  -29.6099  -20.8071   20.7317 C   0  0  0  0  0  0
  -29.5783  -22.6517   21.9741 C   0  0  0  0  0  0
  -29.7793  -23.6408   23.0785 C   0  0  0  0  0  0
  -28.3524  -16.9768   22.8793 C   0  0  0  0  0  0
  -27.1623  -18.2758   21.0441 C   0  0  0  0  0  0
  -28.0140  -23.9971   18.6830 C   0  0  0  0  0  0
  -29.8725  -19.4291   20.1245 C   0  0  0  0  0  0
  -30.0248  -16.8878   20.1373 C   0  0  0  0  0  0
  -28.2647  -25.3912   20.7689 C   0  0  0  0  0  0
  -28.4498  -18.1397   21.8770 C   0  0  0  0  0  0
  -29.7594  -18.1532   21.0274 C   0  0  2  0  0  0
  -28.8842  -24.2210   19.9471 C   0  0  1  0  0  0
  -29.1807  -21.7858   19.9458 N   0  0  0  0  0  0
  -29.1363  -22.9387   20.6772 N   0  0  0  0  0  0
  -29.9264  -15.5564   20.7728 N   0  0  0  0  0  0
  -31.4798  -12.3745   19.1666 H   0  0  0  0  0  0
  -30.3219  -11.2956   19.8860 H   0  0  0  0  0  0
  -29.7473  -11.6914   17.4929 H   0  0  0  0  0  0
  -29.6748  -13.4228   17.7546 H   0  0  0  0  0  0
  -27.8539  -11.2749   18.8805 H   0  0  0  0  0  0
  -27.3783  -12.5606   17.8039 H   0  0  0  0  0  0
  -27.7099  -14.2411   19.5453 H   0  0  0  0  0  0
  -28.6768  -12.0061   21.3940 H   0  0  0  0  0  0
  -28.4730  -13.6741   21.8493 H   0  0  0  0  0  0
  -25.2778   -9.5781   22.4736 H   0  0  0  0  0  0
  -24.0052   -7.4708   22.7471 H   0  0  0  0  0  0
  -21.0859   -8.8802   19.8952 H   0  0  0  0  0  0
  -22.3683  -10.9719   19.6176 H   0  0  0  0  0  0
  -21.2057   -7.6183   23.9723 H   0  0  0  0  0  0
  -21.1405   -6.0544   25.9053 H   0  0  0  0  0  0
  -22.0620   -2.7655   23.2849 H   0  0  0  0  0  0
  -22.4209  -11.9932   22.4756 H   0  0  0  0  0  0
  -21.1132  -13.1206   22.2611 H   0  0  0  0  0  0
  -24.6514  -15.8318   20.4409 H   0  0  0  0  0  0
  -26.2542  -15.5985   19.9642 H   0  0  0  0  0  0
  -26.7106  -32.5508   23.1117 H   0  0  0  0  0  0
  -25.0077  -33.9757   25.0444 H   0  0  0  0  0  0
  -22.6841  -31.3120   21.4196 H   0  0  0  0  0  0
  -23.3722  -35.9689   23.3278 H   0  0  0  0  0  0
  -24.3582  -36.8959   22.2041 H   0  0  0  0  0  0
  -23.7298  -37.6538   23.6667 H   0  0  0  0  0  0
  -26.0476  -31.6013   20.5946 H   0  0  0  0  0  0
  -26.8137  -30.8792   21.9807 H   0  0  0  0  0  0
  -28.1050  -29.1081   21.1150 H   0  0  0  0  0  0
  -26.0147  -25.9581   19.0325 H   0  0  0  0  0  0
  -23.9518  -27.2952   19.0501 H   0  0  0  0  0  0
  -23.7074  -30.6062   19.4092 H   0  0  0  0  0  0
  -22.7205  -29.2551   19.8723 H   0  0  0  0  0  0
  -25.1300  -36.1905   25.0798 H   0  0  0  0  0  0
  -20.9969  -28.3245   24.1434 H   0  0  0  0  0  0
  -20.5682  -26.2276   23.3610 H   0  0  0  0  0  0
  -21.6657  -26.7449   22.1230 H   0  0  0  0  0  0
  -19.6956  -25.6290   21.1230 H   0  0  0  0  0  0
  -19.6736  -27.3191   20.6736 H   0  0  0  0  0  0
  -17.4227  -26.6683   21.3959 H   0  0  0  0  0  0
  -18.0317  -26.0037   22.8958 H   0  0  0  0  0  0
  -19.7926  -30.7251   24.2267 H   0  0  0  0  0  0
  -17.5015  -31.6255   24.5172 H   0  0  0  0  0  0
  -15.5345  -30.2992   23.7653 H   0  0  0  0  0  0
  -15.8660  -28.0832   22.7046 H   0  0  0  0  0  0
  -24.5991  -30.6948   25.7882 H   0  0  0  0  0  0
  -24.8882  -32.2877   26.4797 H   0  0  0  0  0  0
  -25.8159  -30.9037   27.0280 H   0  0  0  0  0  0
  -26.2787  -29.6781   24.1135 H   0  0  0  0  0  0
  -27.4006  -29.7205   25.4542 H   0  0  0  0  0  0
  -27.8655  -30.4251   23.9216 H   0  0  0  0  0  0
  -27.2576  -33.3612   26.2027 H   0  0  0  0  0  0
  -28.3834  -32.6919   25.0308 H   0  0  0  0  0  0
  -28.0676  -31.8476   26.5406 H   0  0  0  0  0  0
  -28.2590  -38.0110   24.7485 H   0  0  0  0  0  0
  -28.1089  -36.2645   24.6277 H   0  0  0  0  0  0
  -27.2316  -37.1459   25.8856 H   0  0  0  0  0  0
  -20.9262  -29.8718   21.6915 H   0  0  0  0  0  0
  -26.0160  -38.2835   24.1415 H   0  0  0  0  0  0
  -30.2122  -20.7603   22.8971 H   0  0  0  0  0  0
  -30.3530  -23.1847   23.8874 H   0  0  0  0  0  0
  -28.8284  -23.9663   23.5019 H   0  0  0  0  0  0
  -30.3501  -24.5108   22.7577 H   0  0  0  0  0  0
  -27.6762  -17.2281   23.6949 H   0  0  0  0  0  0
  -29.3199  -16.7444   23.3277 H   0  0  0  0  0  0
  -27.9599  -16.0723   22.4178 H   0  0  0  0  0  0
  -26.2780  -18.1622   21.6699 H   0  0  0  0  0  0
  -27.1032  -17.5303   20.2543 H   0  0  0  0  0  0
  -27.0964  -19.2604   20.5781 H   0  0  0  0  0  0
  -27.8872  -24.9163   18.1126 H   0  0  0  0  0  0
  -27.0202  -23.6349   18.9517 H   0  0  0  0  0  0
  -28.4546  -23.2762   17.9962 H   0  0  0  0  0  0
  -30.8710  -19.4406   19.6860 H   0  0  0  0  0  0
  -29.2058  -19.2977   19.2722 H   0  0  0  0  0  0
  -31.0007  -16.9983   19.6589 H   0  0  0  0  0  0
  -29.3032  -16.8957   19.3153 H   0  0  0  0  0  0
  -28.8056  -25.5530   21.6933 H   0  0  0  0  0  0
  -27.2420  -25.1408   21.0599 H   0  0  0  0  0  0
  -28.4866  -19.0227   22.5151 H   0  0  0  0  0  0
  -30.5905  -18.2021   21.7325 H   0  0  0  0  0  0
  -29.8667  -24.5648   19.6226 H   0  0  0  0  0  0
  -29.0192  -15.3198   21.1400 H   0  0  0  0  0  0
  1 25  1  0  0  0
  1 30  2  0  0  0
  1 86  1  0  0  0
  2  3  1  0  0  0
  2 25  1  0  0  0
  2 87  1  0  0  0
  2 88  1  0  0  0
  3  4  1  0  0  0
  3 89  1  0  0  0
  3 90  1  0  0  0
  4  5  1  0  0  0
  4 91  1  0  0  0
  4 92  1  0  0  0
  5  6  1  0  0  0
  5 26  1  0  0  0
  5 93  1  0  0  0
  6 25  1  0  0  0
  6 94  1  0  0  0
  6 95  1  0  0  0
  7  8  2  0  0  0
  7 26  1  0  0  0
  7 29  1  0  0  0
  8  9  1  0  0  0
  8 22  1  0  0  0
  9 10  1  0  0  0
  9 27  2  0  0  0
 10 11  2  0  0  0
 10 15  1  0  0  0
 11 12  1  0  0  0
 11 96  1  0  0  0
 12 13  2  0  0  0
 12 97  1  0  0  0
 13 14  1  0  0  0
 13 31  1  0  0  0
 14 15  2  0  0  0
 14 98  1  0  0  0
 15 99  1  0  0  0
 16 17  2  0  0  0
 16 21  1  0  0  0
 16 31  1  0  0  0
 17 18  1  0  0  0
 17100  1  0  0  0
 18 19  2  0  0  0
 18101  1  0  0  0
 19 20  1  0  0  0
 19 24  1  0  0  0
 20 21  2  0  0  0
 20102  1  0  0  0
 21 23  1  0  0  0
 22 28  1  0  0  0
 22 32  2  0  0  0
 26 27  1  0  0  0
 28103  1  0  0  0
 28104  1  0  0  0
 29105  1  0  0  0
 29106  1  0  0  0
 33 34  1  0  0  0
 33 66  1  0  0  0
 33 70  2  0  0  0
 34 36  1  0  0  0
 34 59  1  0  0  0
 34107  1  0  0  0
 35 44  2  0  0  0
 35 45  1  0  0  0
 35 68  1  0  0  0
 36 56  1  0  0  0
 36108  1  0  0  0
 37 39  1  0  0  0
 37 47  1  0  0  0
 37 66  1  0  0  0
 37109  1  0  0  0
 38 43  2  0  0  0
 38 46  1  0  0  0
 38 47  1  0  0  0
 39 64  1  0  0  0
 39 67  2  0  0  0
 40 52  1  0  0  0
 40 53  2  0  0  0
 40 58  1  0  0  0
 41110  1  0  0  0
 41111  1  0  0  0
 41112  1  0  0  0
 41 48  1  0  0  0
 42 43  1  0  0  0
 42 66  1  0  0  0
 42113  1  0  0  0
 42114  1  0  0  0
 43 44  1  0  0  0
 44115  1  0  0  0
 45 46  2  0  0  0
 45116  1  0  0  0
 46117  1  0  0  0
 47118  1  0  0  0
 47119  1  0  0  0
 48 56  1  0  0  0
 48 65  1  0  0  0
 48120  1  0  0  0
 49 50  1  0  0  0
 49 53  1  0  0  0
 49 64  1  0  0  0
 49121  1  0  0  0
 50 51  1  0  0  0
 50122  1  0  0  0
 50123  1  0  0  0
 51 52  1  0  0  0
 51124  1  0  0  0
 51125  1  0  0  0
 52126  1  0  0  0
 52127  1  0  0  0
 53 54  1  0  0  0
 54 55  2  0  0  0
 54128  1  0  0  0
 55 57  1  0  0  0
 55129  1  0  0  0
 56 69  2  0  0  0
 57 58  2  0  0  0
 57130  1  0  0  0
 58131  1  0  0  0
 59 60  1  0  0  0
 59 61  1  0  0  0
 59 62  1  0  0  0
 60132  1  0  0  0
 60133  1  0  0  0
 60134  1  0  0  0
 61135  1  0  0  0
 61136  1  0  0  0
 61137  1  0  0  0
 62138  1  0  0  0
 62139  1  0  0  0
 62140  1  0  0  0
 63 65  1  0  0  0
 63141  1  0  0  0
 63142  1  0  0  0
 63143  1  0  0  0
 64144  1  0  0  0
 65145  1  0  0  0
 68 80  1  0  0  0
 71 72  1  0  0  0
 71 73  2  0  0  0
 71146  1  0  0  0
 72 78  1  0  0  0
 72 84  2  0  0  0
 73 74  1  0  0  0
 73 85  1  0  0  0
 74147  1  0  0  0
 74148  1  0  0  0
 74149  1  0  0  0
 75150  1  0  0  0
 75151  1  0  0  0
 75152  1  0  0  0
 75 81  1  0  0  0
 76 81  1  0  0  0
 76153  1  0  0  0
 76154  1  0  0  0
 76155  1  0  0  0
 77156  1  0  0  0
 77157  1  0  0  0
 77158  1  0  0  0
 77 83  1  0  0  0
 78159  1  0  0  0
 78160  1  0  0  0
 78 82  1  0  0  0
 79 82  1  0  0  0
 79 86  1  0  0  0
 79161  1  0  0  0
 79162  1  0  0  0
 80 83  1  0  0  0
 80163  1  0  0  0
 80164  1  0  0  0
 81 82  1  0  0  0
 81165  1  0  0  0
 82166  1  0  0  0
 83 85  1  0  0  0
 83167  1  0  0  0
 84 85  1  0  0  0
 86168  1  0  0  0
M  ISO  4   1 100  68 101  80 101  86 100
M  END
> <chiral flag>
0

> <version>
0

> <s_m_source_file>
/data/baiqing/PycharmProjects/Reinvent-master-3.2/result/LINK_invent/BTK/process_docking_weight1_custom_sum_contain_oxygen_bond_distance_aromatic_linkinvent_7_9_3/rearranged_h_0082.sdf

> <i_m_source_file_index>
95

> <r_mmod_Potential_Energy-OPLS-2005>
-13.3358745574951

> <r_mmod_Stretch_Energy-OPLS-2005>
44.9833335876465

> <r_mmod_Bend_Energy-OPLS-2005>
124.553100585938

> <r_mmod_Torsional_Energy-OPLS-2005>
272.979705810547

> <r_mmod_Improper_Torsional_Energy-OPLS-2005>
9.87232780456543

> <r_mmod_Van_der_Waal_Energy-OPLS-2005>
128.306686401367

> <r_mmod_Electrostatic_Energy-OPLS-2005>
-410.818359375

> <r_mmod_Solvation_Energy-OPLS-2005>
-201.731231689453

> <b_mmod_Minimization_Converged-OPLS-2005>
0

> <r_mmod_RMS_Derivative-OPLS-2005>
5.03602743148804

$$$$
96
                    3D
 Structure written by MMmdl.
161169  0  0  1  0            999 V2000
  -30.6076  -14.6821   20.4949 C   0  0  0  0  0  0
  -30.4383  -12.4200   19.4517 C   0  0  0  0  0  0
  -29.5037  -12.4984   18.2243 C   0  0  0  0  0  0
  -28.0311  -12.3234   18.6443 C   0  0  0  0  0  0
  -27.6462  -13.2154   19.8536 C   0  0  2  0  0  0
  -28.6914  -13.1045   20.9844 C   0  0  0  0  0  0
  -25.2547  -13.8167   20.5688 C   0  0  0  0  0  0
  -24.1816  -13.0428   20.9208 C   0  0  0  0  0  0
  -24.6385  -11.6903   20.8749 C   0  0  0  0  0  0
  -23.9056  -10.4287   21.0413 C   0  0  0  0  0  0
  -24.3612   -9.4204   21.9189 C   0  0  0  0  0  0
  -23.6291   -8.2241   22.0752 C   0  0  0  0  0  0
  -22.4273   -8.0282   21.3544 C   0  0  0  0  0  0
  -21.9909   -9.0251   20.4645 C   0  0  0  0  0  0
  -22.7231  -10.2135   20.3057 C   0  0  0  0  0  0
  -21.6855   -6.0740   22.5283 C   0  0  0  0  0  0
  -21.4010   -6.5641   23.8214 C   0  0  0  0  0  0
  -21.3654   -5.6796   24.9176 C   0  0  0  0  0  0
  -21.6042   -4.3057   24.7228 C   0  0  0  0  0  0
  -21.8817   -3.8149   23.4346 C   0  0  0  0  0  0
  -21.9193   -4.6969   22.3404 C   0  0  0  0  0  0
  -22.7846  -13.5232   21.1868 C   0  0  0  0  0  0
  -22.1667   -4.2155   21.0984 F   0  0  0  0  0  0
  -21.5626   -3.4540   25.7740 F   0  0  0  0  0  0
  -29.9971  -13.4560   20.4083 N   0  0  0  0  0  0
  -26.2957  -12.9339   20.3290 N   0  0  0  0  0  0
  -25.9310  -11.6498   20.5756 N   0  0  0  0  0  0
  -22.0489  -12.8221   22.0425 N   0  0  0  0  0  0
  -25.4239  -15.1887   20.4093 N   0  0  0  0  0  0
  -31.7916  -14.8276   20.1794 O   0  0  0  0  0  0
  -21.6634   -6.8880   21.4241 O   0  0  0  0  0  0
  -22.3534  -14.5535   20.6716 O   0  0  0  0  0  0
  -24.6282  -31.8582   23.2001 C   0  0  0  0  0  0
  -25.9110  -32.4757   23.8347 C   0  0  1  0  0  0
  -27.2218  -27.2898   20.1258 C   0  0  0  0  0  0
  -25.5907  -33.8559   24.2264 N   0  0  0  0  0  0
  -23.4253  -30.4775   21.5465 C   0  0  2  0  0  0
  -24.8723  -28.9280   20.1144 C   0  0  0  0  0  0
  -22.7502  -29.4599   22.4966 C   0  0  0  0  0  0
  -18.0288  -28.1392   22.8487 C   0  0  0  0  0  0
  -24.1490  -36.7294   23.2642 C   0  0  0  0  0  0
  -25.9687  -30.7770   21.3782 C   0  0  0  0  0  0
  -26.0428  -29.4015   20.7223 C   0  0  0  0  0  0
  -27.2227  -28.5949   20.7160 C   0  0  0  0  0  0
  -26.0335  -26.8788   19.4856 C   0  0  0  0  0  0
  -24.8713  -27.6738   19.4849 C   0  0  0  0  0  0
  -23.6404  -29.8102   20.1633 C   0  0  0  0  0  0
  -25.4116  -36.3065   24.0328 C   0  0  1  0  0  0
  -20.5890  -28.3687   23.1303 C   0  0  2  0  0  0
  -20.6777  -26.9411   22.5423 C   0  0  0  0  0  0
  -19.5745  -26.6397   21.5229 C   0  0  0  0  0  0
  -18.1929  -26.7932   22.1637 C   0  0  0  0  0  0
  -19.1542  -28.8860   23.2885 C   0  0  0  0  0  0
  -18.9454  -30.1471   23.8890 C   0  0  0  0  0  0
  -17.6448  -30.6593   24.0555 C   0  0  0  0  0  0
  -25.9056  -34.9436   23.5101 C   0  0  0  0  0  0
  -16.5344  -29.9083   23.6335 C   0  0  0  0  0  0
  -16.7276  -28.6510   23.0349 C   0  0  0  0  0  0
  -26.4474  -31.6575   25.0731 C   0  0  0  0  0  0
  -25.3692  -31.3728   26.1447 C   0  0  0  0  0  0
  -27.0306  -30.2987   24.6203 C   0  0  0  0  0  0
  -27.6040  -32.4313   25.7471 C   0  0  0  0  0  0
  -27.5586  -37.1790   24.8464 C   0  0  0  0  0  0
  -21.4215  -29.3024   22.3695 N   0  0  0  0  0  0
  -26.4287  -37.3765   23.9414 N   0  0  0  0  0  0
  -24.6931  -31.0553   22.0977 N   0  0  0  0  0  0
  -23.4208  -28.8152   23.3068 O   0  0  0  0  0  0
  -28.3251  -26.4163   20.1392 O   0  0  0  0  0  0
  -26.5645  -34.8905   22.4680 O   0  0  0  0  0  0
  -23.5432  -32.1399   23.7297 O   0  0  0  0  0  0
  -27.9308  -22.1463   21.7851 C   0  0  0  0  0  0
  -29.2731  -21.0718   20.1018 C   0  0  0  0  0  0
  -28.7294  -22.3062   20.6364 C   0  0  0  0  0  0
  -27.7064  -20.8674   22.3265 C   0  0  0  0  0  0
  -29.0066  -19.7816   20.7125 C   0  0  0  0  0  0
  -25.3486  -20.3398   23.0667 C   0  0  0  0  0  0
  -29.9670  -18.4090   18.7248 C   0  0  0  0  0  0
  -28.9503  -23.7613   20.0298 C   0  0  0  0  0  0
  -26.7734  -20.6990   23.5100 C   0  0  0  0  0  0
  -30.0881  -17.2338   21.0024 C   0  0  0  0  0  0
  -28.1017  -25.0105   20.6002 C   0  0  0  0  0  0
  -29.3172  -18.3344   20.1131 C   0  0  1  0  0  0
  -28.2224  -19.7305   21.8102 N   0  0  0  0  0  0
  -29.7938  -15.7588   20.7628 N   0  0  0  0  0  0
  -31.4767  -12.5569   19.1438 H   0  0  0  0  0  0
  -30.3894  -11.4314   19.9124 H   0  0  0  0  0  0
  -29.7762  -11.7368   17.4928 H   0  0  0  0  0  0
  -29.6307  -13.4608   17.7266 H   0  0  0  0  0  0
  -27.8874  -11.2739   18.9046 H   0  0  0  0  0  0
  -27.3674  -12.5186   17.8020 H   0  0  0  0  0  0
  -27.6539  -14.2421   19.4880 H   0  0  0  0  0  0
  -28.7154  -12.0919   21.3902 H   0  0  0  0  0  0
  -28.4323  -13.7565   21.8204 H   0  0  0  0  0  0
  -25.2751   -9.5689   22.4773 H   0  0  0  0  0  0
  -24.0001   -7.4631   22.7473 H   0  0  0  0  0  0
  -21.0838   -8.8761   19.8957 H   0  0  0  0  0  0
  -22.3674  -10.9675   19.6175 H   0  0  0  0  0  0
  -21.2000   -7.6152   23.9719 H   0  0  0  0  0  0
  -21.1479   -6.0528   25.9081 H   0  0  0  0  0  0
  -22.0602   -2.7616   23.2845 H   0  0  0  0  0  0
  -22.4099  -11.9873   22.4795 H   0  0  0  0  0  0
  -21.1114  -13.1253   22.2642 H   0  0  0  0  0  0
  -24.6508  -15.8367   20.5090 H   0  0  0  0  0  0
  -26.2665  -15.6295   20.0643 H   0  0  0  0  0  0
  -26.7179  -32.5401   23.1090 H   0  0  0  0  0  0
  -24.9942  -33.9694   25.0328 H   0  0  0  0  0  0
  -22.7189  -31.2973   21.4032 H   0  0  0  0  0  0
  -23.3747  -35.9634   23.3286 H   0  0  0  0  0  0
  -24.3584  -36.8951   22.2062 H   0  0  0  0  0  0
  -23.7258  -37.6494   23.6682 H   0  0  0  0  0  0
  -26.1061  -31.5362   20.6073 H   0  0  0  0  0  0
  -26.8463  -30.8248   22.0112 H   0  0  0  0  0  0
  -28.1219  -28.9504   21.1993 H   0  0  0  0  0  0
  -25.9939  -25.9221   18.9841 H   0  0  0  0  0  0
  -23.9760  -27.3116   19.0001 H   0  0  0  0  0  0
  -23.7574  -30.5842   19.4047 H   0  0  0  0  0  0
  -22.7577  -29.2407   19.8658 H   0  0  0  0  0  0
  -25.1297  -36.1897   25.0820 H   0  0  0  0  0  0
  -20.9976  -28.3254   24.1429 H   0  0  0  0  0  0
  -20.5728  -26.2288   23.3623 H   0  0  0  0  0  0
  -21.6641  -26.7470   22.1190 H   0  0  0  0  0  0
  -19.6906  -25.6320   21.1239 H   0  0  0  0  0  0
  -19.6669  -27.3223   20.6767 H   0  0  0  0  0  0
  -17.4206  -26.6694   21.4029 H   0  0  0  0  0  0
  -18.0301  -26.0075   22.9025 H   0  0  0  0  0  0
  -19.7926  -30.7294   24.2258 H   0  0  0  0  0  0
  -17.4997  -31.6263   24.5167 H   0  0  0  0  0  0
  -15.5345  -30.2964   23.7693 H   0  0  0  0  0  0
  -15.8673  -28.0838   22.7056 H   0  0  0  0  0  0
  -24.5851  -30.7098   25.7763 H   0  0  0  0  0  0
  -24.8883  -32.2895   26.4864 H   0  0  0  0  0  0
  -25.7994  -30.8890   27.0223 H   0  0  0  0  0  0
  -26.2882  -29.6727   24.1231 H   0  0  0  0  0  0
  -27.3998  -29.7244   25.4709 H   0  0  0  0  0  0
  -27.8753  -30.4276   23.9437 H   0  0  0  0  0  0
  -27.2690  -33.3652   26.2003 H   0  0  0  0  0  0
  -28.3846  -32.6826   25.0278 H   0  0  0  0  0  0
  -28.0699  -31.8461   26.5409 H   0  0  0  0  0  0
  -28.2589  -38.0099   24.7525 H   0  0  0  0  0  0
  -28.1103  -36.2629   24.6269 H   0  0  0  0  0  0
  -27.2306  -37.1413   25.8869 H   0  0  0  0  0  0
  -20.9420  -29.8698   21.6842 H   0  0  0  0  0  0
  -26.0162  -38.2845   24.1394 H   0  0  0  0  0  0
  -27.4591  -22.9983   22.2537 H   0  0  0  0  0  0
  -29.8629  -21.1167   19.1964 H   0  0  0  0  0  0
  -24.6780  -20.2641   23.9219 H   0  0  0  0  0  0
  -25.3285  -19.3866   22.5378 H   0  0  0  0  0  0
  -24.9484  -21.1001   22.3941 H   0  0  0  0  0  0
  -29.3643  -19.0004   18.0355 H   0  0  0  0  0  0
  -30.0750  -17.4140   18.2932 H   0  0  0  0  0  0
  -30.9587  -18.8584   18.7804 H   0  0  0  0  0  0
  -28.7759  -23.6961   18.9559 H   0  0  0  0  0  0
  -30.0104  -23.9938   20.1378 H   0  0  0  0  0  0
  -26.7576  -21.6228   24.0903 H   0  0  0  0  0  0
  -27.1661  -19.9311   24.1775 H   0  0  0  0  0  0
  -29.8198  -17.4084   22.0451 H   0  0  0  0  0  0
  -31.1633  -17.4103   20.9562 H   0  0  0  0  0  0
  -28.2780  -25.0542   21.6751 H   0  0  0  0  0  0
  -27.0506  -24.7405   20.5107 H   0  0  0  0  0  0
  -28.3221  -17.9167   19.9499 H   0  0  0  0  0  0
  -28.8328  -15.4980   20.9244 H   0  0  0  0  0  0
  1 25  1  0  0  0
  1 30  2  0  0  0
  1 84  1  0  0  0
  2  3  1  0  0  0
  2 25  1  0  0  0
  2 85  1  0  0  0
  2 86  1  0  0  0
  3  4  1  0  0  0
  3 87  1  0  0  0
  3 88  1  0  0  0
  4  5  1  0  0  0
  4 89  1  0  0  0
  4 90  1  0  0  0
  5  6  1  0  0  0
  5 26  1  0  0  0
  5 91  1  0  0  0
  6 25  1  0  0  0
  6 92  1  0  0  0
  6 93  1  0  0  0
  7  8  2  0  0  0
  7 26  1  0  0  0
  7 29  1  0  0  0
  8  9  1  0  0  0
  8 22  1  0  0  0
  9 10  1  0  0  0
  9 27  2  0  0  0
 10 11  2  0  0  0
 10 15  1  0  0  0
 11 12  1  0  0  0
 11 94  1  0  0  0
 12 13  2  0  0  0
 12 95  1  0  0  0
 13 14  1  0  0  0
 13 31  1  0  0  0
 14 15  2  0  0  0
 14 96  1  0  0  0
 15 97  1  0  0  0
 16 17  2  0  0  0
 16 21  1  0  0  0
 16 31  1  0  0  0
 17 18  1  0  0  0
 17 98  1  0  0  0
 18 19  2  0  0  0
 18 99  1  0  0  0
 19 20  1  0  0  0
 19 24  1  0  0  0
 20 21  2  0  0  0
 20100  1  0  0  0
 21 23  1  0  0  0
 22 28  1  0  0  0
 22 32  2  0  0  0
 26 27  1  0  0  0
 28101  1  0  0  0
 28102  1  0  0  0
 29103  1  0  0  0
 29104  1  0  0  0
 33 34  1  0  0  0
 33 66  1  0  0  0
 33 70  2  0  0  0
 34 36  1  0  0  0
 34 59  1  0  0  0
 34105  1  0  0  0
 35 44  2  0  0  0
 35 45  1  0  0  0
 35 68  1  0  0  0
 36 56  1  0  0  0
 36106  1  0  0  0
 37 39  1  0  0  0
 37 47  1  0  0  0
 37 66  1  0  0  0
 37107  1  0  0  0
 38 43  2  0  0  0
 38 46  1  0  0  0
 38 47  1  0  0  0
 39 64  1  0  0  0
 39 67  2  0  0  0
 40 52  1  0  0  0
 40 53  2  0  0  0
 40 58  1  0  0  0
 41108  1  0  0  0
 41109  1  0  0  0
 41110  1  0  0  0
 41 48  1  0  0  0
 42 43  1  0  0  0
 42 66  1  0  0  0
 42111  1  0  0  0
 42112  1  0  0  0
 43 44  1  0  0  0
 44113  1  0  0  0
 45 46  2  0  0  0
 45114  1  0  0  0
 46115  1  0  0  0
 47116  1  0  0  0
 47117  1  0  0  0
 48 56  1  0  0  0
 48 65  1  0  0  0
 48118  1  0  0  0
 49 50  1  0  0  0
 49 53  1  0  0  0
 49 64  1  0  0  0
 49119  1  0  0  0
 50 51  1  0  0  0
 50120  1  0  0  0
 50121  1  0  0  0
 51 52  1  0  0  0
 51122  1  0  0  0
 51123  1  0  0  0
 52124  1  0  0  0
 52125  1  0  0  0
 53 54  1  0  0  0
 54 55  2  0  0  0
 54126  1  0  0  0
 55 57  1  0  0  0
 55127  1  0  0  0
 56 69  2  0  0  0
 57 58  2  0  0  0
 57128  1  0  0  0
 58129  1  0  0  0
 59 60  1  0  0  0
 59 61  1  0  0  0
 59 62  1  0  0  0
 60130  1  0  0  0
 60131  1  0  0  0
 60132  1  0  0  0
 61133  1  0  0  0
 61134  1  0  0  0
 61135  1  0  0  0
 62136  1  0  0  0
 62137  1  0  0  0
 62138  1  0  0  0
 63 65  1  0  0  0
 63139  1  0  0  0
 63140  1  0  0  0
 63141  1  0  0  0
 64142  1  0  0  0
 65143  1  0  0  0
 68 81  1  0  0  0
 71 73  2  0  0  0
 71 74  1  0  0  0
 71144  1  0  0  0
 72 73  1  0  0  0
 72 75  2  0  0  0
 72145  1  0  0  0
 73 78  1  0  0  0
 74 79  1  0  0  0
 74 83  2  0  0  0
 75 82  1  0  0  0
 75 83  1  0  0  0
 76 79  1  0  0  0
 76146  1  0  0  0
 76147  1  0  0  0
 76148  1  0  0  0
 77149  1  0  0  0
 77150  1  0  0  0
 77151  1  0  0  0
 77 82  1  0  0  0
 78 81  1  0  0  0
 78152  1  0  0  0
 78153  1  0  0  0
 79154  1  0  0  0
 79155  1  0  0  0
 80 82  1  0  0  0
 80 84  1  0  0  0
 80156  1  0  0  0
 80157  1  0  0  0
 81158  1  0  0  0
 81159  1  0  0  0
 82160  1  0  0  0
 84161  1  0  0  0
M  ISO  4   1 100  68 101  81 101  84 100
M  END
> <chiral flag>
0

> <version>
0

> <s_m_source_file>
/data/baiqing/PycharmProjects/Reinvent-master-3.2/result/LINK_invent/BTK/process_docking_weight1_custom_sum_contain_oxygen_bond_distance_aromatic_linkinvent_7_9_3/rearranged_h_0082.sdf

> <i_m_source_file_index>
96

> <r_mmod_Potential_Energy-OPLS-2005>
-57.3635520935059

> <r_mmod_Stretch_Energy-OPLS-2005>
105.626342773438

> <r_mmod_Bend_Energy-OPLS-2005>
151.608810424805

> <r_mmod_Torsional_Energy-OPLS-2005>
216.51106262207

> <r_mmod_Improper_Torsional_Energy-OPLS-2005>
5.31950902938843

> <r_mmod_Van_der_Waal_Energy-OPLS-2005>
138.250549316406

> <r_mmod_Electrostatic_Energy-OPLS-2005>
-526.64013671875

> <r_mmod_Solvation_Energy-OPLS-2005>
-212.154327392578

> <b_mmod_Minimization_Converged-OPLS-2005>
0

> <r_mmod_RMS_Derivative-OPLS-2005>
1.76507186889648

$$$$
97
                    3D
 Structure written by MMmdl.
173181  0  0  1  0            999 V2000
  -30.6959  -14.5264   20.5433 C   0  0  0  0  0  0
  -30.4329  -12.3347   19.4330 C   0  0  0  0  0  0
  -29.5072  -12.5051   18.2121 C   0  0  0  0  0  0
  -28.0279  -12.3584   18.6218 C   0  0  0  0  0  0
  -27.6607  -13.2155   19.8631 C   0  0  2  0  0  0
  -28.7032  -13.0407   20.9909 C   0  0  0  0  0  0
  -25.2574  -13.8159   20.5628 C   0  0  0  0  0  0
  -24.1869  -13.0438   20.9171 C   0  0  0  0  0  0
  -24.6433  -11.6908   20.8712 C   0  0  0  0  0  0
  -23.9108  -10.4294   21.0397 C   0  0  0  0  0  0
  -24.3649   -9.4192   21.9172 C   0  0  0  0  0  0
  -23.6306   -8.2239   22.0752 C   0  0  0  0  0  0
  -22.4282   -8.0283   21.3544 C   0  0  0  0  0  0
  -21.9932   -9.0264   20.4642 C   0  0  0  0  0  0
  -22.7285  -10.2136   20.3040 C   0  0  0  0  0  0
  -21.6855   -6.0738   22.5282 C   0  0  0  0  0  0
  -21.4017   -6.5641   23.8210 C   0  0  0  0  0  0
  -21.3655   -5.6789   24.9172 C   0  0  0  0  0  0
  -21.6047   -4.3057   24.7227 C   0  0  0  0  0  0
  -21.8821   -3.8153   23.4345 C   0  0  0  0  0  0
  -21.9200   -4.6964   22.3403 C   0  0  0  0  0  0
  -22.7883  -13.5202   21.1847 C   0  0  0  0  0  0
  -22.1672   -4.2147   21.0978 F   0  0  0  0  0  0
  -21.5627   -3.4537   25.7737 F   0  0  0  0  0  0
  -30.0342  -13.3404   20.4312 N   0  0  0  0  0  0
  -26.3035  -12.9367   20.3295 N   0  0  0  0  0  0
  -25.9360  -11.6523   20.5736 N   0  0  0  0  0  0
  -22.0542  -12.8186   22.0400 N   0  0  0  0  0  0
  -25.4201  -15.1878   20.3988 N   0  0  0  0  0  0
  -31.8390  -14.6982   20.1127 O   0  0  0  0  0  0
  -21.6643   -6.8888   21.4245 O   0  0  0  0  0  0
  -22.3559  -14.5514   20.6703 O   0  0  0  0  0  0
  -24.6077  -31.8692   23.2066 C   0  0  0  0  0  0
  -25.8974  -32.4828   23.8394 C   0  0  1  0  0  0
  -27.2639  -27.4465   20.0865 C   0  0  0  0  0  0
  -25.5882  -33.8639   24.2347 N   0  0  0  0  0  0
  -23.3996  -30.4816   21.5529 C   0  0  2  0  0  0
  -24.8501  -28.9423   20.1199 C   0  0  0  0  0  0
  -22.7384  -29.4635   22.5052 C   0  0  0  0  0  0
  -18.0249  -28.1317   22.8448 C   0  0  0  0  0  0
  -24.1490  -36.7344   23.2628 C   0  0  0  0  0  0
  -25.9215  -30.8341   21.3572 C   0  0  0  0  0  0
  -26.0051  -29.4664   20.7100 C   0  0  0  0  0  0
  -27.2061  -28.7233   20.6939 C   0  0  0  0  0  0
  -26.0876  -26.9316   19.4937 C   0  0  0  0  0  0
  -24.8847  -27.6714   19.5169 C   0  0  0  0  0  0
  -23.6039  -29.8007   20.1725 C   0  0  0  0  0  0
  -25.4105  -36.3132   24.0333 C   0  0  1  0  0  0
  -20.5840  -28.3622   23.1318 C   0  0  2  0  0  0
  -20.6750  -26.9382   22.5393 C   0  0  0  0  0  0
  -19.5749  -26.6351   21.5172 C   0  0  0  0  0  0
  -18.1927  -26.7846   22.1575 C   0  0  0  0  0  0
  -19.1504  -28.8781   23.2850 C   0  0  0  0  0  0
  -18.9440  -30.1386   23.8837 C   0  0  0  0  0  0
  -17.6457  -30.6538   24.0516 C   0  0  0  0  0  0
  -25.9022  -34.9489   23.5138 C   0  0  0  0  0  0
  -16.5341  -29.9030   23.6316 C   0  0  0  0  0  0
  -16.7254  -28.6460   23.0320 C   0  0  0  0  0  0
  -26.4417  -31.6563   25.0700 C   0  0  0  0  0  0
  -25.3682  -31.3636   26.1472 C   0  0  0  0  0  0
  -27.0265  -30.3013   24.6063 C   0  0  0  0  0  0
  -27.6036  -32.4264   25.7441 C   0  0  0  0  0  0
  -27.5594  -37.1826   24.8454 C   0  0  0  0  0  0
  -21.4121  -29.3007   22.3759 N   0  0  0  0  0  0
  -26.4303  -37.3813   23.9391 N   0  0  0  0  0  0
  -24.6621  -31.0772   22.0986 N   0  0  0  0  0  0
  -23.4173  -28.8210   23.3102 O   0  0  0  0  0  0
  -28.4738  -26.7755   20.1180 O   0  0  0  0  0  0
  -26.5580  -34.8910   22.4698 O   0  0  0  0  0  0
  -23.5269  -32.1501   23.7443 O   0  0  0  0  0  0
  -29.5016  -20.4961   19.7787 C   0  0  0  0  0  0
  -29.1311  -19.2048   20.2647 C   0  0  0  0  0  0
  -27.9222  -19.1553   21.0258 C   0  0  0  0  0  0
  -28.7147  -21.6387   20.0495 C   0  0  0  0  0  0
  -27.1989  -20.3565   21.2454 C   0  0  0  0  0  0
  -27.3519  -17.8551   21.5956 C   0  0  0  0  0  0
  -23.3296  -20.1957   21.6588 C   0  0  0  0  0  0
  -31.2850  -18.3013   19.1997 C   0  0  0  0  0  0
  -29.1573  -17.1651   18.7646 C   0  0  0  0  0  0
  -29.0397  -23.0080   19.4259 C   0  0  0  0  0  0
  -25.8514  -20.3799   21.9505 C   0  0  0  0  0  0
  -24.6901  -20.1867   20.9562 C   0  0  0  0  0  0
  -28.4251  -24.2637   20.1172 C   0  0  0  0  0  0
  -30.3322  -16.9925   21.1011 C   0  0  0  0  0  0
  -28.7148  -25.5835   19.3550 C   0  0  0  0  0  0
  -29.9437  -17.9158   19.8694 C   0  0  0  0  0  0
  -27.5792  -21.5541   20.7617 N   0  0  0  0  0  0
  -29.9599  -15.5574   21.0027 N   0  0  0  0  0  0
  -31.4756  -12.4433   19.1302 H   0  0  0  0  0  0
  -30.3459  -11.3319   19.8535 H   0  0  0  0  0  0
  -29.7585  -11.7715   17.4446 H   0  0  0  0  0  0
  -29.6702  -13.4873   17.7638 H   0  0  0  0  0  0
  -27.8484  -11.3038   18.8348 H   0  0  0  0  0  0
  -27.3799  -12.6166   17.7819 H   0  0  0  0  0  0
  -27.6913  -14.2567   19.5397 H   0  0  0  0  0  0
  -28.6847  -12.0219   21.3811 H   0  0  0  0  0  0
  -28.4563  -13.6841   21.8369 H   0  0  0  0  0  0
  -25.2800   -9.5658   22.4743 H   0  0  0  0  0  0
  -24.0013   -7.4629   22.7465 H   0  0  0  0  0  0
  -21.0872   -8.8792   19.8942 H   0  0  0  0  0  0
  -22.3757  -10.9671   19.6140 H   0  0  0  0  0  0
  -21.2006   -7.6147   23.9719 H   0  0  0  0  0  0
  -21.1478   -6.0515   25.9074 H   0  0  0  0  0  0
  -22.0603   -2.7612   23.2845 H   0  0  0  0  0  0
  -22.4189  -11.9841   22.4753 H   0  0  0  0  0  0
  -21.1137  -13.1171   22.2596 H   0  0  0  0  0  0
  -24.6299  -15.8187   20.4664 H   0  0  0  0  0  0
  -26.2479  -15.6264   20.0202 H   0  0  0  0  0  0
  -26.7015  -32.5537   23.1139 H   0  0  0  0  0  0
  -25.0049  -33.9839   25.0510 H   0  0  0  0  0  0
  -22.6857  -31.2961   21.4111 H   0  0  0  0  0  0
  -23.3750  -35.9682   23.3304 H   0  0  0  0  0  0
  -24.3548  -36.8989   22.2040 H   0  0  0  0  0  0
  -23.7295  -37.6570   23.6631 H   0  0  0  0  0  0
  -26.0214  -31.5959   20.5827 H   0  0  0  0  0  0
  -26.8096  -30.8964   21.9728 H   0  0  0  0  0  0
  -28.1006  -29.1369   21.1386 H   0  0  0  0  0  0
  -26.0880  -25.9628   19.0167 H   0  0  0  0  0  0
  -23.9943  -27.2520   19.0685 H   0  0  0  0  0  0
  -23.6895  -30.5692   19.4034 H   0  0  0  0  0  0
  -22.7290  -29.2091   19.8948 H   0  0  0  0  0  0
  -25.1285  -36.2015   25.0833 H   0  0  0  0  0  0
  -20.9849  -28.3165   24.1466 H   0  0  0  0  0  0
  -20.5658  -26.2241   23.3567 H   0  0  0  0  0  0
  -21.6638  -26.7425   22.1231 H   0  0  0  0  0  0
  -19.6939  -25.6267   21.1206 H   0  0  0  0  0  0
  -19.6676  -27.3118   20.6672 H   0  0  0  0  0  0
  -17.4212  -26.6532   21.3961 H   0  0  0  0  0  0
  -18.0336  -25.9970   22.8954 H   0  0  0  0  0  0
  -19.7939  -30.7167   24.2211 H   0  0  0  0  0  0
  -17.5046  -31.6217   24.5117 H   0  0  0  0  0  0
  -15.5345  -30.2914   23.7714 H   0  0  0  0  0  0
  -15.8641  -28.0776   22.7061 H   0  0  0  0  0  0
  -24.5915  -30.6887   25.7837 H   0  0  0  0  0  0
  -24.8735  -32.2744   26.4852 H   0  0  0  0  0  0
  -25.8073  -30.8910   27.0279 H   0  0  0  0  0  0
  -26.2824  -29.6739   24.1140 H   0  0  0  0  0  0
  -27.4092  -29.7259   25.4499 H   0  0  0  0  0  0
  -27.8595  -30.4363   23.9171 H   0  0  0  0  0  0
  -27.2750  -33.3617   26.1959 H   0  0  0  0  0  0
  -28.3850  -32.6743   25.0250 H   0  0  0  0  0  0
  -28.0643  -31.8400   26.5393 H   0  0  0  0  0  0
  -28.2631  -38.0111   24.7558 H   0  0  0  0  0  0
  -28.1113  -36.2680   24.6246 H   0  0  0  0  0  0
  -27.2294  -37.1433   25.8849 H   0  0  0  0  0  0
  -20.9279  -29.8762   21.6988 H   0  0  0  0  0  0
  -26.0212  -38.2911   24.1366 H   0  0  0  0  0  0
  -30.3650  -20.6370   19.1456 H   0  0  0  0  0  0
  -27.6201  -17.7558   22.6467 H   0  0  0  0  0  0
  -27.6972  -16.9635   21.0914 H   0  0  0  0  0  0
  -26.2667  -17.8077   21.5224 H   0  0  0  0  0  0
  -22.5078  -20.1615   20.9428 H   0  0  0  0  0  0
  -23.2153  -21.0975   22.2591 H   0  0  0  0  0  0
  -23.2352  -19.3365   22.3227 H   0  0  0  0  0  0
  -31.1302  -18.7913   18.2377 H   0  0  0  0  0  0
  -31.8988  -17.4216   19.0012 H   0  0  0  0  0  0
  -31.8739  -18.9738   19.8259 H   0  0  0  0  0  0
  -28.9047  -17.8474   17.9525 H   0  0  0  0  0  0
  -28.2146  -16.7401   19.0955 H   0  0  0  0  0  0
  -29.7426  -16.3544   18.3300 H   0  0  0  0  0  0
  -28.7390  -22.9869   18.3770 H   0  0  0  0  0  0
  -30.1247  -23.1130   19.4245 H   0  0  0  0  0  0
  -25.7279  -21.3331   22.4623 H   0  0  0  0  0  0
  -25.8167  -19.6349   22.7464 H   0  0  0  0  0  0
  -24.7240  -20.9750   20.2019 H   0  0  0  0  0  0
  -24.8139  -19.2532   20.4067 H   0  0  0  0  0  0
  -28.8097  -24.3330   21.1351 H   0  0  0  0  0  0
  -27.3433  -24.1536   20.1996 H   0  0  0  0  0  0
  -29.8851  -17.3841   22.0138 H   0  0  0  0  0  0
  -31.4007  -17.0640   21.3193 H   0  0  0  0  0  0
  -28.2100  -25.6117   18.3904 H   0  0  0  0  0  0
  -29.7788  -25.6122   19.1164 H   0  0  0  0  0  0
  -29.0208  -15.3214   21.2842 H   0  0  0  0  0  0
  1 25  1  0  0  0
  1 30  2  0  0  0
  1 88  1  0  0  0
  2  3  1  0  0  0
  2 25  1  0  0  0
  2 89  1  0  0  0
  2 90  1  0  0  0
  3  4  1  0  0  0
  3 91  1  0  0  0
  3 92  1  0  0  0
  4  5  1  0  0  0
  4 93  1  0  0  0
  4 94  1  0  0  0
  5  6  1  0  0  0
  5 26  1  0  0  0
  5 95  1  0  0  0
  6 25  1  0  0  0
  6 96  1  0  0  0
  6 97  1  0  0  0
  7  8  2  0  0  0
  7 26  1  0  0  0
  7 29  1  0  0  0
  8  9  1  0  0  0
  8 22  1  0  0  0
  9 10  1  0  0  0
  9 27  2  0  0  0
 10 11  2  0  0  0
 10 15  1  0  0  0
 11 12  1  0  0  0
 11 98  1  0  0  0
 12 13  2  0  0  0
 12 99  1  0  0  0
 13 14  1  0  0  0
 13 31  1  0  0  0
 14 15  2  0  0  0
 14100  1  0  0  0
 15101  1  0  0  0
 16 17  2  0  0  0
 16 21  1  0  0  0
 16 31  1  0  0  0
 17 18  1  0  0  0
 17102  1  0  0  0
 18 19  2  0  0  0
 18103  1  0  0  0
 19 20  1  0  0  0
 19 24  1  0  0  0
 20 21  2  0  0  0
 20104  1  0  0  0
 21 23  1  0  0  0
 22 28  1  0  0  0
 22 32  2  0  0  0
 26 27  1  0  0  0
 28105  1  0  0  0
 28106  1  0  0  0
 29107  1  0  0  0
 29108  1  0  0  0
 33 34  1  0  0  0
 33 66  1  0  0  0
 33 70  2  0  0  0
 34 36  1  0  0  0
 34 59  1  0  0  0
 34109  1  0  0  0
 35 44  2  0  0  0
 35 45  1  0  0  0
 35 68  1  0  0  0
 36 56  1  0  0  0
 36110  1  0  0  0
 37 39  1  0  0  0
 37 47  1  0  0  0
 37 66  1  0  0  0
 37111  1  0  0  0
 38 43  2  0  0  0
 38 46  1  0  0  0
 38 47  1  0  0  0
 39 64  1  0  0  0
 39 67  2  0  0  0
 40 52  1  0  0  0
 40 53  2  0  0  0
 40 58  1  0  0  0
 41112  1  0  0  0
 41113  1  0  0  0
 41114  1  0  0  0
 41 48  1  0  0  0
 42 43  1  0  0  0
 42 66  1  0  0  0
 42115  1  0  0  0
 42116  1  0  0  0
 43 44  1  0  0  0
 44117  1  0  0  0
 45 46  2  0  0  0
 45118  1  0  0  0
 46119  1  0  0  0
 47120  1  0  0  0
 47121  1  0  0  0
 48 56  1  0  0  0
 48 65  1  0  0  0
 48122  1  0  0  0
 49 50  1  0  0  0
 49 53  1  0  0  0
 49 64  1  0  0  0
 49123  1  0  0  0
 50 51  1  0  0  0
 50124  1  0  0  0
 50125  1  0  0  0
 51 52  1  0  0  0
 51126  1  0  0  0
 51127  1  0  0  0
 52128  1  0  0  0
 52129  1  0  0  0
 53 54  1  0  0  0
 54 55  2  0  0  0
 54130  1  0  0  0
 55 57  1  0  0  0
 55131  1  0  0  0
 56 69  2  0  0  0
 57 58  2  0  0  0
 57132  1  0  0  0
 58133  1  0  0  0
 59 60  1  0  0  0
 59 61  1  0  0  0
 59 62  1  0  0  0
 60134  1  0  0  0
 60135  1  0  0  0
 60136  1  0  0  0
 61137  1  0  0  0
 61138  1  0  0  0
 61139  1  0  0  0
 62140  1  0  0  0
 62141  1  0  0  0
 62142  1  0  0  0
 63 65  1  0  0  0
 63143  1  0  0  0
 63144  1  0  0  0
 63145  1  0  0  0
 64146  1  0  0  0
 65147  1  0  0  0
 68 85  1  0  0  0
 71 72  2  0  0  0
 71 74  1  0  0  0
 71148  1  0  0  0
 72 73  1  0  0  0
 72 86  1  0  0  0
 73 75  2  0  0  0
 73 76  1  0  0  0
 74 80  1  0  0  0
 74 87  2  0  0  0
 75 81  1  0  0  0
 75 87  1  0  0  0
 76149  1  0  0  0
 76150  1  0  0  0
 76151  1  0  0  0
 77 82  1  0  0  0
 77152  1  0  0  0
 77153  1  0  0  0
 77154  1  0  0  0
 78155  1  0  0  0
 78156  1  0  0  0
 78157  1  0  0  0
 78 86  1  0  0  0
 79 86  1  0  0  0
 79158  1  0  0  0
 79159  1  0  0  0
 79160  1  0  0  0
 80 83  1  0  0  0
 80161  1  0  0  0
 80162  1  0  0  0
 81 82  1  0  0  0
 81163  1  0  0  0
 81164  1  0  0  0
 82165  1  0  0  0
 82166  1  0  0  0
 83 85  1  0  0  0
 83167  1  0  0  0
 83168  1  0  0  0
 84 86  1  0  0  0
 84 88  1  0  0  0
 84169  1  0  0  0
 84170  1  0  0  0
 85171  1  0  0  0
 85172  1  0  0  0
 88173  1  0  0  0
M  ISO  4   1 100  68 101  85 101  88 100
M  END
> <chiral flag>
0

> <version>
0

> <s_m_source_file>
/data/baiqing/PycharmProjects/Reinvent-master-3.2/result/LINK_invent/BTK/process_docking_weight1_custom_sum_contain_oxygen_bond_distance_aromatic_linkinvent_7_9_3/rearranged_h_0082.sdf

> <i_m_source_file_index>
97

> <r_mmod_Potential_Energy-OPLS-2005>
-238.833404541016

> <r_mmod_Stretch_Energy-OPLS-2005>
52.4018745422363

> <r_mmod_Bend_Energy-OPLS-2005>
127.725151062012

> <r_mmod_Torsional_Energy-OPLS-2005>
217.052597045898

> <r_mmod_Improper_Torsional_Energy-OPLS-2005>
5.0031566619873

> <r_mmod_Van_der_Waal_Energy-OPLS-2005>
162.499862670898

> <r_mmod_Electrostatic_Energy-OPLS-2005>
-612.182800292969

> <r_mmod_Solvation_Energy-OPLS-2005>
-209.165420532227

> <b_mmod_Minimization_Converged-OPLS-2005>
0

> <r_mmod_RMS_Derivative-OPLS-2005>
4.54745006561279

$$$$
98
                    3D
 Structure written by MMmdl.
152159  0  0  1  0            999 V2000
  -30.4138  -15.5646   20.3646 C   0  0  0  0  0  0
  -30.4016  -13.0593   19.4901 C   0  0  0  0  0  0
  -29.5216  -12.6277   18.2906 C   0  0  0  0  0  0
  -28.1022  -12.2832   18.7577 C   0  0  0  0  0  0
  -27.5873  -13.3033   19.7986 C   0  0  2  0  0  0
  -28.6180  -13.6599   20.8953 C   0  0  0  0  0  0
  -25.2325  -13.8294   20.5822 C   0  0  0  0  0  0
  -24.1704  -13.0446   20.9299 C   0  0  0  0  0  0
  -24.6400  -11.6951   20.8776 C   0  0  0  0  0  0
  -23.9109  -10.4296   21.0403 C   0  0  0  0  0  0
  -24.3648   -9.4207   21.9180 C   0  0  0  0  0  0
  -23.6312   -8.2246   22.0753 C   0  0  0  0  0  0
  -22.4294   -8.0281   21.3542 C   0  0  0  0  0  0
  -21.9937   -9.0257   20.4644 C   0  0  0  0  0  0
  -22.7276  -10.2132   20.3054 C   0  0  0  0  0  0
  -21.6855   -6.0738   22.5278 C   0  0  0  0  0  0
  -21.4010   -6.5638   23.8210 C   0  0  0  0  0  0
  -21.3665   -5.6789   24.9170 C   0  0  0  0  0  0
  -21.6052   -4.3053   24.7222 C   0  0  0  0  0  0
  -21.8821   -3.8147   23.4342 C   0  0  0  0  0  0
  -21.9196   -4.6964   22.3399 C   0  0  0  0  0  0
  -22.7716  -13.5176   21.1921 C   0  0  0  0  0  0
  -22.1662   -4.2152   21.0974 F   0  0  0  0  0  0
  -21.5637   -3.4538   25.7734 F   0  0  0  0  0  0
  -29.7711  -14.2700   20.1911 N   0  0  0  0  0  0
  -26.2753  -12.9607   20.3256 N   0  0  0  0  0  0
  -25.9341  -11.6681   20.5723 N   0  0  0  0  0  0
  -22.0378  -12.8147   22.0470 N   0  0  0  0  0  0
  -25.3961  -15.2033   20.4265 N   0  0  0  0  0  0
  -31.6405  -15.3253   20.3514 O   0  0  0  0  0  0
  -21.6652   -6.8882   21.4240 O   0  0  0  0  0  0
  -22.3389  -14.5469   20.6753 O   0  0  0  0  0  0
  -24.6811  -31.8045   23.1539 C   0  0  0  0  0  0
  -25.9408  -32.4486   23.8077 C   0  0  1  0  0  0
  -27.2124  -26.7307   20.2209 C   0  0  0  0  0  0
  -25.6002  -33.8310   24.1968 N   0  0  0  0  0  0
  -23.5036  -30.4082   21.5096 C   0  0  2  0  0  0
  -24.9551  -28.7500   20.1271 C   0  0  0  0  0  0
  -22.7742  -29.4349   22.4742 C   0  0  0  0  0  0
  -18.0331  -28.1419   22.8458 C   0  0  0  0  0  0
  -24.1490  -36.7155   23.2650 C   0  0  0  0  0  0
  -26.0831  -30.5464   21.4125 C   0  0  0  0  0  0
  -26.1463  -29.1127   20.7672 C   0  0  0  0  0  0
  -27.2661  -28.1330   20.7740 C   0  0  0  0  0  0
  -25.9854  -26.5638   19.5345 C   0  0  0  0  0  0
  -24.9104  -27.4995   19.4883 C   0  0  0  0  0  0
  -23.7543  -29.7053   20.1454 C   0  0  0  0  0  0
  -25.4141  -36.2906   24.0285 C   0  0  1  0  0  0
  -20.5966  -28.3780   23.1153 C   0  0  2  0  0  0
  -20.6802  -26.9446   22.5404 C   0  0  0  0  0  0
  -19.5779  -26.6376   21.5216 C   0  0  0  0  0  0
  -18.1959  -26.7949   22.1618 C   0  0  0  0  0  0
  -19.1599  -28.8925   23.2784 C   0  0  0  0  0  0
  -18.9507  -30.1506   23.8830 C   0  0  0  0  0  0
  -17.6501  -30.6609   24.0552 C   0  0  0  0  0  0
  -25.9126  -34.9296   23.4962 C   0  0  0  0  0  0
  -16.5390  -29.9090   23.6353 C   0  0  0  0  0  0
  -16.7314  -28.6512   23.0371 C   0  0  0  0  0  0
  -26.4596  -31.6505   25.0687 C   0  0  0  0  0  0
  -25.3668  -31.3816   26.1308 C   0  0  0  0  0  0
  -27.0521  -30.2848   24.6557 C   0  0  0  0  0  0
  -27.6055  -32.4356   25.7500 C   0  0  0  0  0  0
  -27.5569  -37.1723   24.8459 C   0  0  0  0  0  0
  -21.4398  -29.3037   22.3483 N   0  0  0  0  0  0
  -26.4264  -37.3672   23.9425 N   0  0  0  0  0  0
  -24.7796  -30.9519   22.0778 N   0  0  0  0  0  0
  -23.4201  -28.7944   23.3072 O   0  0  0  0  0  0
  -28.2132  -25.5586   20.1798 O   0  0  0  0  0  0
  -26.5767  -34.8871   22.4578 O   0  0  0  0  0  0
  -23.5840  -32.1107   23.6518 O   0  0  0  0  0  0
  -30.0272  -20.6425   21.7285 C   0  0  0  0  0  0
  -28.1202  -18.1432   21.5461 C   0  0  0  0  0  0
  -30.9866  -17.6367   19.1477 C   0  0  0  0  0  0
  -28.4454  -22.0536   19.9865 C   0  0  0  0  0  0
  -28.2077  -23.8623   20.6004 C   0  0  0  0  0  0
  -29.3153  -20.3850   20.3958 C   0  0  2  0  0  0
  -29.0150  -18.4825   20.3473 C   0  0  1  0  0  0
  -29.9854  -17.0443   20.0494 N   0  0  0  0  0  0
  -31.3931  -13.2945   19.1018 H   0  0  0  0  0  0
  -30.5572  -12.2286   20.1811 H   0  0  0  0  0  0
  -29.9656  -11.7773   17.7714 H   0  0  0  0  0  0
  -29.4777  -13.4427   17.5663 H   0  0  0  0  0  0
  -28.1339  -11.2899   19.2067 H   0  0  0  0  0  0
  -27.4224  -12.2170   17.9072 H   0  0  0  0  0  0
  -27.4388  -14.2147   19.2172 H   0  0  0  0  0  0
  -28.8898  -12.7925   21.4988 H   0  0  0  0  0  0
  -28.1953  -14.3951   21.5815 H   0  0  0  0  0  0
  -25.2787   -9.5680   22.4767 H   0  0  0  0  0  0
  -24.0019   -7.4639   22.7477 H   0  0  0  0  0  0
  -21.0874   -8.8776   19.8944 H   0  0  0  0  0  0
  -22.3731  -10.9673   19.6169 H   0  0  0  0  0  0
  -21.1988   -7.6142   23.9710 H   0  0  0  0  0  0
  -21.1489   -6.0519   25.9074 H   0  0  0  0  0  0
  -22.0595   -2.7611   23.2840 H   0  0  0  0  0  0
  -22.4021  -11.9830   22.4871 H   0  0  0  0  0  0
  -21.0983  -13.1135   22.2662 H   0  0  0  0  0  0
  -24.6313  -15.8573   20.5502 H   0  0  0  0  0  0
  -26.2503  -15.6456   20.1126 H   0  0  0  0  0  0
  -26.7491  -32.4965   23.0791 H   0  0  0  0  0  0
  -25.0062  -33.9359   25.0062 H   0  0  0  0  0  0
  -22.8276  -31.2450   21.3218 H   0  0  0  0  0  0
  -23.3788  -35.9445   23.3235 H   0  0  0  0  0  0
  -24.3563  -36.8893   22.2079 H   0  0  0  0  0  0
  -23.7206  -37.6294   23.6775 H   0  0  0  0  0  0
  -26.2824  -31.2709   20.6218 H   0  0  0  0  0  0
  -26.9365  -30.6139   22.0749 H   0  0  0  0  0  0
  -28.1756  -28.4258   21.2794 H   0  0  0  0  0  0
  -25.8291  -25.6197   19.0319 H   0  0  0  0  0  0
  -24.0096  -27.2132   18.9628 H   0  0  0  0  0  0
  -23.9311  -30.4648   19.3832 H   0  0  0  0  0  0
  -22.8578  -29.1736   19.8215 H   0  0  0  0  0  0
  -25.1340  -36.1667   25.0774 H   0  0  0  0  0  0
  -21.0043  -28.3402   24.1281 H   0  0  0  0  0  0
  -20.5669  -26.2406   23.3663 H   0  0  0  0  0  0
  -21.6664  -26.7396   22.1220 H   0  0  0  0  0  0
  -19.6941  -25.6268   21.1290 H   0  0  0  0  0  0
  -19.6722  -27.3148   20.6715 H   0  0  0  0  0  0
  -17.4230  -26.6695   21.4018 H   0  0  0  0  0  0
  -18.0349  -26.0102   22.9026 H   0  0  0  0  0  0
  -19.7985  -30.7337   24.2169 H   0  0  0  0  0  0
  -17.5055  -31.6280   24.5169 H   0  0  0  0  0  0
  -15.5389  -30.2976   23.7716 H   0  0  0  0  0  0
  -15.8712  -28.0808   22.7134 H   0  0  0  0  0  0
  -24.5871  -30.7150   25.7603 H   0  0  0  0  0  0
  -24.8843  -32.3039   26.4553 H   0  0  0  0  0  0
  -25.7849  -30.9092   27.0206 H   0  0  0  0  0  0
  -26.3234  -29.6475   24.1536 H   0  0  0  0  0  0
  -27.3952  -29.7275   25.5284 H   0  0  0  0  0  0
  -27.9210  -30.3982   24.0072 H   0  0  0  0  0  0
  -27.2607  -33.3726   26.1884 H   0  0  0  0  0  0
  -28.3963  -32.6805   25.0396 H   0  0  0  0  0  0
  -28.0618  -31.8615   26.5574 H   0  0  0  0  0  0
  -28.2521  -38.0078   24.7564 H   0  0  0  0  0  0
  -28.1127  -36.2610   24.6209 H   0  0  0  0  0  0
  -27.2297  -37.1264   25.8859 H   0  0  0  0  0  0
  -20.9702  -29.8694   21.6553 H   0  0  0  0  0  0
  -26.0088  -38.2709   24.1482 H   0  0  0  0  0  0
  -30.5414  -21.6040   21.7220 H   0  0  0  0  0  0
  -30.7710  -19.8719   21.9342 H   0  0  0  0  0  0
  -29.3160  -20.6545   22.5549 H   0  0  0  0  0  0
  -27.3287  -18.8838   21.6662 H   0  0  0  0  0  0
  -28.6975  -18.1214   22.4706 H   0  0  0  0  0  0
  -27.6454  -17.1682   21.4313 H   0  0  0  0  0  0
  -30.5678  -18.4186   18.5137 H   0  0  0  0  0  0
  -31.4155  -16.9132   18.4507 H   0  0  0  0  0  0
  -31.8004  -18.0748   19.7267 H   0  0  0  0  0  0
  -28.7677  -22.2175   18.9583 H   0  0  0  0  0  0
  -27.4123  -21.7358   19.8439 H   0  0  0  0  0  0
  -28.9462  -23.8929   21.4014 H   0  0  0  0  0  0
  -27.2687  -23.7938   21.1498 H   0  0  0  0  0  0
  -30.1179  -20.4458   19.6603 H   0  0  0  0  0  0
  -28.3465  -18.4096   19.4878 H   0  0  0  0  0  0
  1 25  1  0  0  0
  1 30  2  0  0  0
  1 78  1  0  0  0
  2  3  1  0  0  0
  2 25  1  0  0  0
  2 79  1  0  0  0
  2 80  1  0  0  0
  3  4  1  0  0  0
  3 81  1  0  0  0
  3 82  1  0  0  0
  4  5  1  0  0  0
  4 83  1  0  0  0
  4 84  1  0  0  0
  5  6  1  0  0  0
  5 26  1  0  0  0
  5 85  1  0  0  0
  6 25  1  0  0  0
  6 86  1  0  0  0
  6 87  1  0  0  0
  7  8  2  0  0  0
  7 26  1  0  0  0
  7 29  1  0  0  0
  8  9  1  0  0  0
  8 22  1  0  0  0
  9 10  1  0  0  0
  9 27  2  0  0  0
 10 11  2  0  0  0
 10 15  1  0  0  0
 11 12  1  0  0  0
 11 88  1  0  0  0
 12 13  2  0  0  0
 12 89  1  0  0  0
 13 14  1  0  0  0
 13 31  1  0  0  0
 14 15  2  0  0  0
 14 90  1  0  0  0
 15 91  1  0  0  0
 16 17  2  0  0  0
 16 21  1  0  0  0
 16 31  1  0  0  0
 17 18  1  0  0  0
 17 92  1  0  0  0
 18 19  2  0  0  0
 18 93  1  0  0  0
 19 20  1  0  0  0
 19 24  1  0  0  0
 20 21  2  0  0  0
 20 94  1  0  0  0
 21 23  1  0  0  0
 22 28  1  0  0  0
 22 32  2  0  0  0
 26 27  1  0  0  0
 28 95  1  0  0  0
 28 96  1  0  0  0
 29 97  1  0  0  0
 29 98  1  0  0  0
 33 34  1  0  0  0
 33 66  1  0  0  0
 33 70  2  0  0  0
 34 36  1  0  0  0
 34 59  1  0  0  0
 34 99  1  0  0  0
 35 44  2  0  0  0
 35 45  1  0  0  0
 35 68  1  0  0  0
 36 56  1  0  0  0
 36100  1  0  0  0
 37 39  1  0  0  0
 37 47  1  0  0  0
 37 66  1  0  0  0
 37101  1  0  0  0
 38 43  2  0  0  0
 38 46  1  0  0  0
 38 47  1  0  0  0
 39 64  1  0  0  0
 39 67  2  0  0  0
 40 52  1  0  0  0
 40 53  2  0  0  0
 40 58  1  0  0  0
 41102  1  0  0  0
 41103  1  0  0  0
 41104  1  0  0  0
 41 48  1  0  0  0
 42 43  1  0  0  0
 42 66  1  0  0  0
 42105  1  0  0  0
 42106  1  0  0  0
 43 44  1  0  0  0
 44107  1  0  0  0
 45 46  2  0  0  0
 45108  1  0  0  0
 46109  1  0  0  0
 47110  1  0  0  0
 47111  1  0  0  0
 48 56  1  0  0  0
 48 65  1  0  0  0
 48112  1  0  0  0
 49 50  1  0  0  0
 49 53  1  0  0  0
 49 64  1  0  0  0
 49113  1  0  0  0
 50 51  1  0  0  0
 50114  1  0  0  0
 50115  1  0  0  0
 51 52  1  0  0  0
 51116  1  0  0  0
 51117  1  0  0  0
 52118  1  0  0  0
 52119  1  0  0  0
 53 54  1  0  0  0
 54 55  2  0  0  0
 54120  1  0  0  0
 55 57  1  0  0  0
 55121  1  0  0  0
 56 69  2  0  0  0
 57 58  2  0  0  0
 57122  1  0  0  0
 58123  1  0  0  0
 59 60  1  0  0  0
 59 61  1  0  0  0
 59 62  1  0  0  0
 60124  1  0  0  0
 60125  1  0  0  0
 60126  1  0  0  0
 61127  1  0  0  0
 61128  1  0  0  0
 61129  1  0  0  0
 62130  1  0  0  0
 62131  1  0  0  0
 62132  1  0  0  0
 63 65  1  0  0  0
 63133  1  0  0  0
 63134  1  0  0  0
 63135  1  0  0  0
 64136  1  0  0  0
 65137  1  0  0  0
 68 75  1  0  0  0
 71138  1  0  0  0
 71139  1  0  0  0
 71140  1  0  0  0
 71 76  1  0  0  0
 72141  1  0  0  0
 72142  1  0  0  0
 72143  1  0  0  0
 72 77  1  0  0  0
 73 78  1  0  0  0
 73144  1  0  0  0
 73145  1  0  0  0
 73146  1  0  0  0
 74 75  1  0  0  0
 74 76  1  0  0  0
 74147  1  0  0  0
 74148  1  0  0  0
 75149  1  0  0  0
 75150  1  0  0  0
 76 77  1  0  0  0
 76151  1  0  0  0
 77 78  1  0  0  0
 77152  1  0  0  0
M  ISO  4   1 100  68 101  75 101  78 100
M  END
> <chiral flag>
0

> <version>
0

> <s_m_source_file>
/data/baiqing/PycharmProjects/Reinvent-master-3.2/result/LINK_invent/BTK/process_docking_weight1_custom_sum_contain_oxygen_bond_distance_aromatic_linkinvent_7_9_3/rearranged_h_0082.sdf

> <i_m_source_file_index>
98

> <r_mmod_Potential_Energy-OPLS-2005>
2680.34399414062

> <r_mmod_Stretch_Energy-OPLS-2005>
1117.53771972656

> <r_mmod_Bend_Energy-OPLS-2005>
754.881103515625

> <r_mmod_Torsional_Energy-OPLS-2005>
340.417572021484

> <r_mmod_Improper_Torsional_Energy-OPLS-2005>
22.1981468200684

> <r_mmod_Van_der_Waal_Energy-OPLS-2005>
117.915466308594

> <r_mmod_Electrostatic_Energy-OPLS-2005>
-284.99658203125

> <r_mmod_Solvation_Energy-OPLS-2005>
-189.821090698242

> <b_mmod_Minimization_Converged-OPLS-2005>
0

> <r_mmod_RMS_Derivative-OPLS-2005>
0.944104254245758

$$$$
