0
                    3D
 Structure written by MMmdl.
173183  0  0  1  0            999 V2000
  -30.7278  -14.3641   20.6692 C   0  0  0  0  0  0
  -30.4278  -12.2790   19.3875 C   0  0  0  0  0  0
  -29.4927  -12.5395   18.1887 C   0  0  0  0  0  0
  -28.0120  -12.3983   18.5985 C   0  0  0  0  0  0
  -27.6732  -13.1982   19.8843 C   0  0  2  0  0  0
  -28.7081  -12.8936   20.9900 C   0  0  0  0  0  0
  -25.2628  -13.8149   20.5650 C   0  0  0  0  0  0
  -24.1867  -13.0445   20.9172 C   0  0  0  0  0  0
  -24.6402  -11.6907   20.8716 C   0  0  0  0  0  0
  -23.9048  -10.4302   21.0396 C   0  0  0  0  0  0
  -24.3604   -9.4219   21.9179 C   0  0  0  0  0  0
  -23.6283   -8.2253   22.0749 C   0  0  0  0  0  0
  -22.4268   -8.0287   21.3542 C   0  0  0  0  0  0
  -21.9895   -9.0266   20.4651 C   0  0  0  0  0  0
  -22.7213  -10.2148   20.3057 C   0  0  0  0  0  0
  -21.6851   -6.0736   22.5284 C   0  0  0  0  0  0
  -21.4010   -6.5635   23.8221 C   0  0  0  0  0  0
  -21.3657   -5.6780   24.9179 C   0  0  0  0  0  0
  -21.6048   -4.3045   24.7224 C   0  0  0  0  0  0
  -21.8812   -3.8143   23.4341 C   0  0  0  0  0  0
  -21.9200   -4.6965   22.3406 C   0  0  0  0  0  0
  -22.7883  -13.5264   21.1832 C   0  0  0  0  0  0
  -22.1663   -4.2155   21.0981 F   0  0  0  0  0  0
  -21.5630   -3.4528   25.7733 F   0  0  0  0  0  0
  -30.0568  -13.2012   20.4703 N   0  0  0  0  0  0
  -26.3075  -12.9314   20.3361 N   0  0  0  0  0  0
  -25.9326  -11.6476   20.5720 N   0  0  0  0  0  0
  -22.0499  -12.8287   22.0394 N   0  0  0  0  0  0
  -25.4350  -15.1861   20.4045 N   0  0  0  0  0  0
  -31.7526  -14.6771   20.0577 O   0  0  0  0  0  0
  -21.6636   -6.8882   21.4244 O   0  0  0  0  0  0
  -22.3578  -14.5571   20.6674 O   0  0  0  0  0  0
  -24.6106  -31.8692   23.2118 C   0  0  0  0  0  0
  -25.9015  -32.4832   23.8398 C   0  0  1  0  0  0
  -27.2505  -27.4788   20.0661 C   0  0  0  0  0  0
  -25.5883  -33.8629   24.2336 N   0  0  0  0  0  0
  -23.3976  -30.4908   21.5508 C   0  0  2  0  0  0
  -24.8483  -28.9578   20.1177 C   0  0  0  0  0  0
  -22.7381  -29.4658   22.5001 C   0  0  0  0  0  0
  -18.0259  -28.1378   22.8487 C   0  0  0  0  0  0
  -24.1479  -36.7321   23.2639 C   0  0  0  0  0  0
  -25.9225  -30.8426   21.3619 C   0  0  0  0  0  0
  -26.0038  -29.4776   20.7141 C   0  0  0  0  0  0
  -27.2053  -28.7372   20.7008 C   0  0  0  0  0  0
  -26.0749  -26.9526   19.4897 C   0  0  0  0  0  0
  -24.8746  -27.6888   19.5114 C   0  0  0  0  0  0
  -23.6073  -29.8189   20.1670 C   0  0  0  0  0  0
  -25.4094  -36.3115   24.0344 C   0  0  1  0  0  0
  -20.5847  -28.3662   23.1328 C   0  0  2  0  0  0
  -20.6754  -26.9402   22.5425 C   0  0  0  0  0  0
  -19.5746  -26.6395   21.5202 C   0  0  0  0  0  0
  -18.1919  -26.7932   22.1604 C   0  0  0  0  0  0
  -19.1514  -28.8831   23.2911 C   0  0  0  0  0  0
  -18.9447  -30.1433   23.8926 C   0  0  0  0  0  0
  -17.6461  -30.6598   24.0560 C   0  0  0  0  0  0
  -25.9029  -34.9484   23.5143 C   0  0  0  0  0  0
  -16.5347  -29.9106   23.6319 C   0  0  0  0  0  0
  -16.7256  -28.6513   23.0355 C   0  0  0  0  0  0
  -26.4469  -31.6608   25.0718 C   0  0  0  0  0  0
  -25.3754  -31.3717   26.1485 C   0  0  0  0  0  0
  -27.0295  -30.3051   24.6084 C   0  0  0  0  0  0
  -27.6062  -32.4318   25.7459 C   0  0  0  0  0  0
  -27.5579  -37.1791   24.8449 C   0  0  0  0  0  0
  -21.4118  -29.3032   22.3737 N   0  0  0  0  0  0
  -26.4268  -37.3809   23.9436 N   0  0  0  0  0  0
  -24.6612  -31.0811   22.1010 N   0  0  0  0  0  0
  -23.4165  -28.8207   23.3038 O   0  0  0  0  0  0
  -28.4273  -26.7712   20.0405 O   0  0  0  0  0  0
  -26.5595  -34.8924   22.4708 O   0  0  0  0  0  0
  -23.5308  -32.1421   23.7533 O   0  0  0  0  0  0
  -28.3269  -18.3292   21.9102 C   0  0  0  0  0  0
  -30.5492  -17.3945   20.6117 C   0  0  0  0  0  0
  -28.7150  -17.0037   22.1541 C   0  0  0  0  0  0
  -29.8457  -16.5104   21.4641 C   0  0  0  0  0  0
  -29.0627  -19.1181   21.0210 C   0  0  0  0  0  0
  -30.0764  -22.2622   20.9519 C   0  0  0  0  0  0
  -28.3331  -22.0942   19.1376 C   0  0  0  0  0  0
  -27.3436  -16.7109   24.3833 C   0  0  0  0  0  0
  -30.6651  -23.4868   20.2262 C   0  0  0  0  0  0
  -28.9762  -23.3110   18.4548 C   0  0  0  0  0  0
  -27.8972  -16.1604   23.0880 C   0  0  2  0  0  0
  -28.4603  -15.6921   24.4104 C   0  0  2  0  0  0
  -29.3490  -21.3140   19.9835 C   0  0  2  0  0  0
  -28.2143  -14.2775   24.8900 C   0  0  0  0  0  0
  -30.0928  -25.4884   18.8763 C   0  0  0  0  0  0
  -28.9462  -26.5031   18.7373 C   0  0  0  0  0  0
  -30.1697  -18.6703   20.3927 N   0  0  0  0  0  0
  -30.1952  -15.1417   21.6218 N   0  0  0  0  0  0
  -29.6167  -24.2059   19.4550 N   0  3  2  0  0  0
  -28.5910  -20.3832   20.7545 O   0  0  0  0  0  0
  -31.4704  -12.3915   19.0857 H   0  0  0  0  0  0
  -30.3287  -11.2475   19.7272 H   0  0  0  0  0  0
  -29.7248  -11.8535   17.3725 H   0  0  0  0  0  0
  -29.6694  -13.5433   17.7986 H   0  0  0  0  0  0
  -27.8080  -11.3390   18.7537 H   0  0  0  0  0  0
  -27.3670  -12.7145   17.7780 H   0  0  0  0  0  0
  -27.7450  -14.2578   19.6386 H   0  0  0  0  0  0
  -28.6649  -11.8357   21.2550 H   0  0  0  0  0  0
  -28.4526  -13.4190   21.9086 H   0  0  0  0  0  0
  -25.2749   -9.5703   22.4745 H   0  0  0  0  0  0
  -24.0005   -7.4640   22.7453 H   0  0  0  0  0  0
  -21.0827   -8.8772   19.8965 H   0  0  0  0  0  0
  -22.3660  -10.9680   19.6159 H   0  0  0  0  0  0
  -21.1994   -7.6142   23.9719 H   0  0  0  0  0  0
  -21.1479   -6.0513   25.9080 H   0  0  0  0  0  0
  -22.0599   -2.7611   23.2838 H   0  0  0  0  0  0
  -22.4067  -11.9955   22.4824 H   0  0  0  0  0  0
  -21.1113  -13.1344   22.2560 H   0  0  0  0  0  0
  -24.6678  -15.8407   20.5105 H   0  0  0  0  0  0
  -26.2874  -15.6235   20.0785 H   0  0  0  0  0  0
  -26.7089  -32.5560   23.1168 H   0  0  0  0  0  0
  -24.9987  -33.9790   25.0445 H   0  0  0  0  0  0
  -22.6854  -31.3060   21.4100 H   0  0  0  0  0  0
  -23.3740  -35.9650   23.3280 H   0  0  0  0  0  0
  -24.3573  -36.8958   22.2054 H   0  0  0  0  0  0
  -23.7210  -37.6517   23.6661 H   0  0  0  0  0  0
  -26.0255  -31.6060   20.5897 H   0  0  0  0  0  0
  -26.8151  -30.9038   21.9730 H   0  0  0  0  0  0
  -28.0991  -29.1363   21.1587 H   0  0  0  0  0  0
  -26.0804  -25.9750   19.0273 H   0  0  0  0  0  0
  -23.9827  -27.2760   19.0603 H   0  0  0  0  0  0
  -23.7109  -30.5902   19.4032 H   0  0  0  0  0  0
  -22.7347  -29.2321   19.8743 H   0  0  0  0  0  0
  -25.1255  -36.1972   25.0831 H   0  0  0  0  0  0
  -20.9936  -28.3236   24.1446 H   0  0  0  0  0  0
  -20.5643  -26.2270   23.3610 H   0  0  0  0  0  0
  -21.6637  -26.7450   22.1234 H   0  0  0  0  0  0
  -19.6919  -25.6312   21.1222 H   0  0  0  0  0  0
  -19.6707  -27.3218   20.6741 H   0  0  0  0  0  0
  -17.4197  -26.6678   21.4001 H   0  0  0  0  0  0
  -18.0328  -26.0068   22.8994 H   0  0  0  0  0  0
  -19.7934  -30.7222   24.2334 H   0  0  0  0  0  0
  -17.5031  -31.6278   24.5168 H   0  0  0  0  0  0
  -15.5360  -30.3028   23.7638 H   0  0  0  0  0  0
  -15.8642  -28.0842   22.7082 H   0  0  0  0  0  0
  -24.5920  -30.7069   25.7833 H   0  0  0  0  0  0
  -24.8953  -32.2881   26.4934 H   0  0  0  0  0  0
  -25.8128  -30.8888   27.0234 H   0  0  0  0  0  0
  -26.2823  -29.6796   24.1190 H   0  0  0  0  0  0
  -27.4124  -29.7306   25.4528 H   0  0  0  0  0  0
  -27.8632  -30.4368   23.9182 H   0  0  0  0  0  0
  -27.2700  -33.3595   26.2091 H   0  0  0  0  0  0
  -28.3835  -32.6914   25.0264 H   0  0  0  0  0  0
  -28.0779  -31.8412   26.5319 H   0  0  0  0  0  0
  -28.2572  -38.0115   24.7559 H   0  0  0  0  0  0
  -28.1103  -36.2656   24.6185 H   0  0  0  0  0  0
  -27.2321  -37.1338   25.8855 H   0  0  0  0  0  0
  -20.9275  -29.8730   21.6944 H   0  0  0  0  0  0
  -26.0159  -38.2877   24.1499 H   0  0  0  0  0  0
  -27.4485  -18.7390   22.3876 H   0  0  0  0  0  0
  -31.4275  -17.0905   20.0659 H   0  0  0  0  0  0
  -29.3786  -22.6026   21.7179 H   0  0  0  0  0  0
  -30.8662  -21.7237   21.4778 H   0  0  0  0  0  0
  -27.8990  -21.4330   18.3859 H   0  0  0  0  0  0
  -27.5069  -22.4263   19.7667 H   0  0  0  0  0  0
  -26.3534  -16.3785   24.6880 H   0  0  0  0  0  0
  -27.5966  -17.7337   24.6561 H   0  0  0  0  0  0
  -31.4706  -23.1807   19.5565 H   0  0  0  0  0  0
  -31.1083  -24.1566   20.9648 H   0  0  0  0  0  0
  -28.2078  -23.8440   17.8957 H   0  0  0  0  0  0
  -29.7193  -22.9836   17.7249 H   0  0  0  0  0  0
  -27.2590  -15.4781   22.5312 H   0  0  0  0  0  0
  -29.4414  -16.0800   24.6790 H   0  0  0  0  0  0
  -30.0656  -20.8546   19.3016 H   0  0  0  0  0  0
  -27.2320  -13.9246   24.5731 H   0  0  0  0  0  0
  -28.2624  -14.2367   25.9783 H   0  0  0  0  0  0
  -28.9715  -13.6062   24.4857 H   0  0  0  0  0  0
  -30.8593  -25.9296   19.5143 H   0  0  0  0  0  0
  -30.5665  -25.3128   17.9092 H   0  0  0  0  0  0
  -28.1864  -26.1315   18.0503 H   0  0  0  0  0  0
  -29.3276  -27.4312   18.3093 H   0  0  0  0  0  0
  -29.5750  -14.6277   22.2282 H   0  0  0  0  0  0
  -28.9066  -24.4729   20.1244 H   0  0  0  0  0  0
  1 25  1  0  0  0
  1 30  2  0  0  0
  1 88  1  0  0  0
  2  3  1  0  0  0
  2 25  1  0  0  0
  2 91  1  0  0  0
  2 92  1  0  0  0
  3  4  1  0  0  0
  3 93  1  0  0  0
  3 94  1  0  0  0
  4  5  1  0  0  0
  4 95  1  0  0  0
  4 96  1  0  0  0
  5  6  1  0  0  0
  5 26  1  0  0  0
  5 97  1  0  0  0
  6 25  1  0  0  0
  6 98  1  0  0  0
  6 99  1  0  0  0
  7  8  2  0  0  0
  7 26  1  0  0  0
  7 29  1  0  0  0
  8  9  1  0  0  0
  8 22  1  0  0  0
  9 10  1  0  0  0
  9 27  2  0  0  0
 10 11  2  0  0  0
 10 15  1  0  0  0
 11 12  1  0  0  0
 11100  1  0  0  0
 12 13  2  0  0  0
 12101  1  0  0  0
 13 14  1  0  0  0
 13 31  1  0  0  0
 14 15  2  0  0  0
 14102  1  0  0  0
 15103  1  0  0  0
 16 17  2  0  0  0
 16 21  1  0  0  0
 16 31  1  0  0  0
 17 18  1  0  0  0
 17104  1  0  0  0
 18 19  2  0  0  0
 18105  1  0  0  0
 19 20  1  0  0  0
 19 24  1  0  0  0
 20 21  2  0  0  0
 20106  1  0  0  0
 21 23  1  0  0  0
 22 28  1  0  0  0
 22 32  2  0  0  0
 26 27  1  0  0  0
 28107  1  0  0  0
 28108  1  0  0  0
 29109  1  0  0  0
 29110  1  0  0  0
 33 34  1  0  0  0
 33 66  1  0  0  0
 33 70  2  0  0  0
 34 36  1  0  0  0
 34 59  1  0  0  0
 34111  1  0  0  0
 35 44  2  0  0  0
 35 45  1  0  0  0
 35 68  1  0  0  0
 36 56  1  0  0  0
 36112  1  0  0  0
 37 39  1  0  0  0
 37 47  1  0  0  0
 37 66  1  0  0  0
 37113  1  0  0  0
 38 43  2  0  0  0
 38 46  1  0  0  0
 38 47  1  0  0  0
 39 64  1  0  0  0
 39 67  2  0  0  0
 40 52  1  0  0  0
 40 53  2  0  0  0
 40 58  1  0  0  0
 41114  1  0  0  0
 41115  1  0  0  0
 41116  1  0  0  0
 41 48  1  0  0  0
 42 43  1  0  0  0
 42 66  1  0  0  0
 42117  1  0  0  0
 42118  1  0  0  0
 43 44  1  0  0  0
 44119  1  0  0  0
 45 46  2  0  0  0
 45120  1  0  0  0
 46121  1  0  0  0
 47122  1  0  0  0
 47123  1  0  0  0
 48 56  1  0  0  0
 48 65  1  0  0  0
 48124  1  0  0  0
 49 50  1  0  0  0
 49 53  1  0  0  0
 49 64  1  0  0  0
 49125  1  0  0  0
 50 51  1  0  0  0
 50126  1  0  0  0
 50127  1  0  0  0
 51 52  1  0  0  0
 51128  1  0  0  0
 51129  1  0  0  0
 52130  1  0  0  0
 52131  1  0  0  0
 53 54  1  0  0  0
 54 55  2  0  0  0
 54132  1  0  0  0
 55 57  1  0  0  0
 55133  1  0  0  0
 56 69  2  0  0  0
 57 58  2  0  0  0
 57134  1  0  0  0
 58135  1  0  0  0
 59 60  1  0  0  0
 59 61  1  0  0  0
 59 62  1  0  0  0
 60136  1  0  0  0
 60137  1  0  0  0
 60138  1  0  0  0
 61139  1  0  0  0
 61140  1  0  0  0
 61141  1  0  0  0
 62142  1  0  0  0
 62143  1  0  0  0
 62144  1  0  0  0
 63 65  1  0  0  0
 63145  1  0  0  0
 63146  1  0  0  0
 63147  1  0  0  0
 64148  1  0  0  0
 65149  1  0  0  0
 68 86  1  0  0  0
 71 73  2  0  0  0
 71 75  1  0  0  0
 71150  1  0  0  0
 72 74  2  0  0  0
 72 87  1  0  0  0
 72151  1  0  0  0
 73 74  1  0  0  0
 73 81  1  0  0  0
 74 88  1  0  0  0
 75 87  2  0  0  0
 75 90  1  0  0  0
 76 79  1  0  0  0
 76 83  1  0  0  0
 76152  1  0  0  0
 76153  1  0  0  0
 77 80  1  0  0  0
 77 83  1  0  0  0
 77154  1  0  0  0
 77155  1  0  0  0
 78 81  1  0  0  0
 78 82  1  0  0  0
 78156  1  0  0  0
 78157  1  0  0  0
 79 89  1  0  0  0
 79158  1  0  0  0
 79159  1  0  0  0
 80 89  1  0  0  0
 80160  1  0  0  0
 80161  1  0  0  0
 81 82  1  0  0  0
 81162  1  0  0  0
 82 84  1  0  0  0
 82163  1  0  0  0
 83 90  1  0  0  0
 83164  1  0  0  0
 84165  1  0  0  0
 84166  1  0  0  0
 84167  1  0  0  0
 85 86  1  0  0  0
 85168  1  0  0  0
 85169  1  0  0  0
 85 89  1  0  0  0
 86170  1  0  0  0
 86171  1  0  0  0
 88172  1  0  0  0
 89173  1  0  0  0
M  CHG  1  89   1
M  ISO  4   1 100  68 101  86 101  88 100
M  END
> <chiral flag>
0

> <version>
0

> <s_m_source_file>
/data/baiqing/PycharmProjects/Reinvent-master-3.2/result/LINK_invent/BTK/process_docking_weight1_custom_sum_contain_oxygen_bond_distance_aromatic_linkinvent_7_9_3/rearranged_h_0142.sdf

> <i_m_source_file_index>
1

> <r_mmod_Potential_Energy-OPLS-2005>
-284.231292724609

> <r_mmod_Stretch_Energy-OPLS-2005>
33.3301849365234

> <r_mmod_Bend_Energy-OPLS-2005>
106.666282653809

> <r_mmod_Torsional_Energy-OPLS-2005>
305.541900634766

> <r_mmod_Improper_Torsional_Energy-OPLS-2005>
5.01712656021118

> <r_mmod_Van_der_Waal_Energy-OPLS-2005>
155.201797485352

> <r_mmod_Electrostatic_Energy-OPLS-2005>
-488.141082763672

> <r_mmod_Solvation_Energy-OPLS-2005>
-409.007720947266

> <b_mmod_Minimization_Converged-OPLS-2005>
0

> <r_mmod_RMS_Derivative-OPLS-2005>
2.05954170227051

$$$$
1
                    3D
 Structure written by MMmdl.
191201  0  0  1  0            999 V2000
  -30.7337  -14.4029   20.6231 C   0  0  0  0  0  0
  -30.4209  -12.2889   19.3935 C   0  0  0  0  0  0
  -29.4847  -12.5187   18.1906 C   0  0  0  0  0  0
  -28.0064  -12.3823   18.6077 C   0  0  0  0  0  0
  -27.6663  -13.1997   19.8817 C   0  0  2  0  0  0
  -28.7121  -12.9311   20.9881 C   0  0  0  0  0  0
  -25.2574  -13.8101   20.5697 C   0  0  0  0  0  0
  -24.1847  -13.0399   20.9252 C   0  0  0  0  0  0
  -24.6394  -11.6878   20.8771 C   0  0  0  0  0  0
  -23.9061  -10.4270   21.0420 C   0  0  0  0  0  0
  -24.3613   -9.4186   21.9195 C   0  0  0  0  0  0
  -23.6277   -8.2226   22.0764 C   0  0  0  0  0  0
  -22.4262   -8.0270   21.3546 C   0  0  0  0  0  0
  -21.9904   -9.0247   20.4654 C   0  0  0  0  0  0
  -22.7235  -10.2121   20.3063 C   0  0  0  0  0  0
  -21.6845   -6.0725   22.5276 C   0  0  0  0  0  0
  -21.4002   -6.5636   23.8207 C   0  0  0  0  0  0
  -21.3657   -5.6790   24.9172 C   0  0  0  0  0  0
  -21.6048   -4.3051   24.7221 C   0  0  0  0  0  0
  -21.8818   -3.8144   23.4343 C   0  0  0  0  0  0
  -21.9189   -4.6956   22.3399 C   0  0  0  0  0  0
  -22.7878  -13.5229   21.1881 C   0  0  0  0  0  0
  -22.1662   -4.2142   21.0972 F   0  0  0  0  0  0
  -21.5637   -3.4539   25.7738 F   0  0  0  0  0  0
  -30.0477  -13.2424   20.4480 N   0  0  0  0  0  0
  -26.3034  -12.9296   20.3391 N   0  0  0  0  0  0
  -25.9312  -11.6471   20.5771 N   0  0  0  0  0  0
  -22.0474  -12.8236   22.0413 N   0  0  0  0  0  0
  -25.4206  -15.1804   20.4010 N   0  0  0  0  0  0
  -31.8052  -14.6347   20.0566 O   0  0  0  0  0  0
  -21.6628   -6.8867   21.4238 O   0  0  0  0  0  0
  -22.3628  -14.5562   20.6723 O   0  0  0  0  0  0
  -24.6123  -31.8684   23.2088 C   0  0  0  0  0  0
  -25.9027  -32.4834   23.8374 C   0  0  1  0  0  0
  -27.2424  -27.4644   20.0930 C   0  0  0  0  0  0
  -25.5893  -33.8626   24.2313 N   0  0  0  0  0  0
  -23.3984  -30.4909   21.5491 C   0  0  2  0  0  0
  -24.8451  -28.9513   20.1201 C   0  0  0  0  0  0
  -22.7398  -29.4666   22.4993 C   0  0  0  0  0  0
  -18.0266  -28.1367   22.8492 C   0  0  0  0  0  0
  -24.1483  -36.7317   23.2640 C   0  0  0  0  0  0
  -25.9225  -30.8433   21.3547 C   0  0  0  0  0  0
  -26.0021  -29.4753   20.7108 C   0  0  0  0  0  0
  -27.2051  -28.7403   20.6909 C   0  0  0  0  0  0
  -26.0713  -26.9386   19.5078 C   0  0  0  0  0  0
  -24.8728  -27.6798   19.5178 C   0  0  0  0  0  0
  -23.6054  -29.8151   20.1656 C   0  0  0  0  0  0
  -25.4104  -36.3119   24.0342 C   0  0  1  0  0  0
  -20.5853  -28.3658   23.1316 C   0  0  2  0  0  0
  -20.6770  -26.9399   22.5409 C   0  0  0  0  0  0
  -19.5758  -26.6374   21.5207 C   0  0  0  0  0  0
  -18.1925  -26.7914   22.1608 C   0  0  0  0  0  0
  -19.1515  -28.8825   23.2909 C   0  0  0  0  0  0
  -18.9459  -30.1436   23.8922 C   0  0  0  0  0  0
  -17.6462  -30.6582   24.0574 C   0  0  0  0  0  0
  -25.9036  -34.9485   23.5125 C   0  0  0  0  0  0
  -16.5348  -29.9096   23.6329 C   0  0  0  0  0  0
  -16.7252  -28.6507   23.0345 C   0  0  0  0  0  0
  -26.4458  -31.6607   25.0700 C   0  0  0  0  0  0
  -25.3737  -31.3712   26.1465 C   0  0  0  0  0  0
  -27.0279  -30.3065   24.6025 C   0  0  0  0  0  0
  -27.6039  -32.4322   25.7459 C   0  0  0  0  0  0
  -27.5591  -37.1802   24.8466 C   0  0  0  0  0  0
  -21.4125  -29.3038   22.3741 N   0  0  0  0  0  0
  -26.4289  -37.3812   23.9422 N   0  0  0  0  0  0
  -24.6629  -31.0814   22.0967 N   0  0  0  0  0  0
  -23.4186  -28.8215   23.3020 O   0  0  0  0  0  0
  -28.4265  -26.7758   20.0259 O   0  0  0  0  0  0
  -26.5609  -34.8948   22.4697 O   0  0  0  0  0  0
  -23.5327  -32.1405   23.7518 O   0  0  0  0  0  0
  -32.0482  -18.5107   21.7687 C   0  0  0  0  0  0
  -31.7461  -17.1451   21.6316 C   0  0  0  0  0  0
  -29.6781  -19.0320   21.7659 C   0  0  0  0  0  0
  -31.0158  -19.4621   21.8405 C   0  0  0  0  0  0
  -29.3542  -17.6617   21.6044 C   0  0  0  0  0  0
  -30.4053  -16.6985   21.5325 C   0  0  0  0  0  0
  -27.6316  -16.9140   18.0119 C   0  0  0  0  0  0
  -27.1121  -18.3048   17.7295 C   0  0  0  0  0  0
  -27.2359  -15.0695   23.7205 C   0  0  0  0  0  0
  -26.3310  -15.9148   24.5851 C   0  0  0  0  0  0
  -27.8713  -18.0277   19.0060 C   0  0  0  0  0  0
  -27.5379  -16.5456   23.9173 C   0  0  0  0  0  0
  -28.2761  -18.4265   25.4632 C   0  0  0  0  0  0
  -29.2326  -16.1239   25.8177 C   0  0  0  0  0  0
  -31.3500  -20.9345   22.0213 C   0  0  0  0  0  0
  -27.1632  -18.0855   20.3557 C   0  0  0  0  0  0
  -31.5810  -21.6830   20.6925 C   0  0  0  0  0  0
  -30.3198  -22.2480   20.0054 C   0  0  0  0  0  0
  -29.1645  -24.4692   19.9352 C   0  0  0  0  0  0
  -28.4920  -25.5682   20.7820 C   0  0  0  0  0  0
  -27.8703  -17.2812   21.4830 C   0  0  2  0  0  0
  -28.6862  -17.1151   24.7728 C   0  0  0  0  0  0
  -30.1206  -15.3025   21.4140 N   0  0  0  0  0  0
  -27.1293  -17.4065   22.7688 N   0  3  0  0  0  0
  -29.7139  -23.3692   20.7673 N   0  3  0  0  0  0
  -31.4636  -12.3912   19.0859 H   0  0  0  0  0  0
  -30.3214  -11.2681   19.7663 H   0  0  0  0  0  0
  -29.7121  -11.8068   17.3957 H   0  0  0  0  0  0
  -29.6559  -13.5110   17.7707 H   0  0  0  0  0  0
  -27.8074  -11.3242   18.7833 H   0  0  0  0  0  0
  -27.3528  -12.6770   17.7866 H   0  0  0  0  0  0
  -27.7254  -14.2547   19.6160 H   0  0  0  0  0  0
  -28.6802  -11.8817   21.2836 H   0  0  0  0  0  0
  -28.4823  -13.4784   21.8975 H   0  0  0  0  0  0
  -25.2759   -9.5655   22.4769 H   0  0  0  0  0  0
  -23.9978   -7.4621   22.7479 H   0  0  0  0  0  0
  -21.0836   -8.8763   19.8960 H   0  0  0  0  0  0
  -22.3700  -10.9662   19.6167 H   0  0  0  0  0  0
  -21.1986   -7.6142   23.9707 H   0  0  0  0  0  0
  -21.1483   -6.0523   25.9073 H   0  0  0  0  0  0
  -22.0601   -2.7604   23.2844 H   0  0  0  0  0  0
  -22.4024  -11.9857   22.4785 H   0  0  0  0  0  0
  -21.1094  -13.1285   22.2583 H   0  0  0  0  0  0
  -24.5300  -15.6604   20.3224 H   0  0  0  0  0  0
  -26.0243  -15.4256   19.6281 H   0  0  0  0  0  0
  -26.7098  -32.5545   23.1145 H   0  0  0  0  0  0
  -25.0077  -33.9794   25.0484 H   0  0  0  0  0  0
  -22.6883  -31.3085   21.4081 H   0  0  0  0  0  0
  -23.3764  -35.9632   23.3276 H   0  0  0  0  0  0
  -24.3588  -36.8946   22.2061 H   0  0  0  0  0  0
  -23.7206  -37.6505   23.6660 H   0  0  0  0  0  0
  -26.0232  -31.6027   20.5776 H   0  0  0  0  0  0
  -26.8158  -30.9052   21.9633 H   0  0  0  0  0  0
  -28.1054  -29.1515   21.1281 H   0  0  0  0  0  0
  -26.0915  -25.9701   19.0277 H   0  0  0  0  0  0
  -23.9846  -27.2717   19.0540 H   0  0  0  0  0  0
  -23.7114  -30.5865   19.4021 H   0  0  0  0  0  0
  -22.7301  -29.2321   19.8731 H   0  0  0  0  0  0
  -25.1281  -36.1975   25.0835 H   0  0  0  0  0  0
  -20.9953  -28.3204   24.1437 H   0  0  0  0  0  0
  -20.5662  -26.2270   23.3593 H   0  0  0  0  0  0
  -21.6640  -26.7454   22.1205 H   0  0  0  0  0  0
  -19.6937  -25.6291   21.1228 H   0  0  0  0  0  0
  -19.6697  -27.3205   20.6758 H   0  0  0  0  0  0
  -17.4207  -26.6670   21.4002 H   0  0  0  0  0  0
  -18.0330  -26.0026   22.8981 H   0  0  0  0  0  0
  -19.7943  -30.7240   24.2289 H   0  0  0  0  0  0
  -17.5030  -31.6274   24.5167 H   0  0  0  0  0  0
  -15.5359  -30.3027   23.7637 H   0  0  0  0  0  0
  -15.8642  -28.0852   22.7042 H   0  0  0  0  0  0
  -24.5906  -30.7057   25.7822 H   0  0  0  0  0  0
  -24.8948  -32.2867   26.4941 H   0  0  0  0  0  0
  -25.8105  -30.8874   27.0215 H   0  0  0  0  0  0
  -26.2794  -29.6821   24.1138 H   0  0  0  0  0  0
  -27.4148  -29.7297   25.4442 H   0  0  0  0  0  0
  -27.8580  -30.4418   23.9091 H   0  0  0  0  0  0
  -27.2668  -33.3640   26.2015 H   0  0  0  0  0  0
  -28.3863  -32.6840   25.0287 H   0  0  0  0  0  0
  -28.0678  -31.8448   26.5389 H   0  0  0  0  0  0
  -28.2587  -38.0127   24.7571 H   0  0  0  0  0  0
  -28.1101  -36.2662   24.6207 H   0  0  0  0  0  0
  -27.2316  -37.1352   25.8870 H   0  0  0  0  0  0
  -20.9278  -29.8765   21.6977 H   0  0  0  0  0  0
  -26.0174  -38.2881   24.1464 H   0  0  0  0  0  0
  -33.0815  -18.8238   21.8315 H   0  0  0  0  0  0
  -32.5668  -16.4417   21.6076 H   0  0  0  0  0  0
  -28.8955  -19.7728   21.8309 H   0  0  0  0  0  0
  -28.4857  -16.5671   17.4319 H   0  0  0  0  0  0
  -26.8889  -16.1538   18.2388 H   0  0  0  0  0  0
  -26.0372  -18.4605   17.7986 H   0  0  0  0  0  0
  -27.6144  -18.8876   16.9589 H   0  0  0  0  0  0
  -26.8036  -14.7274   22.7851 H   0  0  0  0  0  0
  -27.8466  -14.3274   24.2316 H   0  0  0  0  0  0
  -26.3664  -15.7305   25.6571 H   0  0  0  0  0  0
  -25.3376  -16.1315   24.1948 H   0  0  0  0  0  0
  -28.8836  -18.4282   19.0248 H   0  0  0  0  0  0
  -27.9832  -19.1914   24.7442 H   0  0  0  0  0  0
  -29.1020  -18.8385   26.0441 H   0  0  0  0  0  0
  -27.4403  -18.2720   26.1476 H   0  0  0  0  0  0
  -29.6061  -15.2122   25.3522 H   0  0  0  0  0  0
  -28.4823  -15.8438   26.5571 H   0  0  0  0  0  0
  -30.0707  -16.5592   26.3621 H   0  0  0  0  0  0
  -32.2616  -20.9944   22.6180 H   0  0  0  0  0  0
  -30.5810  -21.4210   22.6231 H   0  0  0  0  0  0
  -26.1351  -17.7447   20.2337 H   0  0  0  0  0  0
  -27.0842  -19.1371   20.6327 H   0  0  0  0  0  0
  -32.1086  -21.0249   20.0012 H   0  0  0  0  0  0
  -32.2677  -22.5113   20.8727 H   0  0  0  0  0  0
  -29.5801  -21.4651   19.8329 H   0  0  0  0  0  0
  -30.6117  -22.6038   19.0160 H   0  0  0  0  0  0
  -29.9871  -24.9071   19.3679 H   0  0  0  0  0  0
  -28.4519  -24.0783   19.2081 H   0  0  0  0  0  0
  -29.0923  -25.7881   21.6665 H   0  0  0  0  0  0
  -27.5179  -25.2329   21.1421 H   0  0  0  0  0  0
  -27.8034  -16.2375   21.1869 H   0  0  0  0  0  0
  -29.5312  -17.3376   24.1258 H   0  0  0  0  0  0
  -29.2616  -14.9651   21.8144 H   0  0  0  0  0  0
  -27.1445  -18.3678   23.0673 H   0  0  0  0  0  0
  -26.1671  -17.1861   22.5610 H   0  0  0  0  0  0
  -30.4254  -23.7601   21.3652 H   0  0  0  0  0  0
  -28.9867  -23.0028   21.3623 H   0  0  0  0  0  0
  1 25  1  0  0  0
  1 30  2  0  0  0
  1 93  1  0  0  0
  2  3  1  0  0  0
  2 25  1  0  0  0
  2 96  1  0  0  0
  2 97  1  0  0  0
  3  4  1  0  0  0
  3 98  1  0  0  0
  3 99  1  0  0  0
  4  5  1  0  0  0
  4100  1  0  0  0
  4101  1  0  0  0
  5  6  1  0  0  0
  5 26  1  0  0  0
  5102  1  0  0  0
  6 25  1  0  0  0
  6103  1  0  0  0
  6104  1  0  0  0
  7  8  2  0  0  0
  7 26  1  0  0  0
  7 29  1  0  0  0
  8  9  1  0  0  0
  8 22  1  0  0  0
  9 10  1  0  0  0
  9 27  2  0  0  0
 10 11  2  0  0  0
 10 15  1  0  0  0
 11 12  1  0  0  0
 11105  1  0  0  0
 12 13  2  0  0  0
 12106  1  0  0  0
 13 14  1  0  0  0
 13 31  1  0  0  0
 14 15  2  0  0  0
 14107  1  0  0  0
 15108  1  0  0  0
 16 17  2  0  0  0
 16 21  1  0  0  0
 16 31  1  0  0  0
 17 18  1  0  0  0
 17109  1  0  0  0
 18 19  2  0  0  0
 18110  1  0  0  0
 19 20  1  0  0  0
 19 24  1  0  0  0
 20 21  2  0  0  0
 20111  1  0  0  0
 21 23  1  0  0  0
 22 28  1  0  0  0
 22 32  2  0  0  0
 26 27  1  0  0  0
 28112  1  0  0  0
 28113  1  0  0  0
 29114  1  0  0  0
 29115  1  0  0  0
 33 34  1  0  0  0
 33 66  1  0  0  0
 33 70  2  0  0  0
 34 36  1  0  0  0
 34 59  1  0  0  0
 34116  1  0  0  0
 35 44  2  0  0  0
 35 45  1  0  0  0
 35 68  1  0  0  0
 36 56  1  0  0  0
 36117  1  0  0  0
 37 39  1  0  0  0
 37 47  1  0  0  0
 37 66  1  0  0  0
 37118  1  0  0  0
 38 43  2  0  0  0
 38 46  1  0  0  0
 38 47  1  0  0  0
 39 64  1  0  0  0
 39 67  2  0  0  0
 40 52  1  0  0  0
 40 53  2  0  0  0
 40 58  1  0  0  0
 41119  1  0  0  0
 41120  1  0  0  0
 41121  1  0  0  0
 41 48  1  0  0  0
 42 43  1  0  0  0
 42 66  1  0  0  0
 42122  1  0  0  0
 42123  1  0  0  0
 43 44  1  0  0  0
 44124  1  0  0  0
 45 46  2  0  0  0
 45125  1  0  0  0
 46126  1  0  0  0
 47127  1  0  0  0
 47128  1  0  0  0
 48 56  1  0  0  0
 48 65  1  0  0  0
 48129  1  0  0  0
 49 50  1  0  0  0
 49 53  1  0  0  0
 49 64  1  0  0  0
 49130  1  0  0  0
 50 51  1  0  0  0
 50131  1  0  0  0
 50132  1  0  0  0
 51 52  1  0  0  0
 51133  1  0  0  0
 51134  1  0  0  0
 52135  1  0  0  0
 52136  1  0  0  0
 53 54  1  0  0  0
 54 55  2  0  0  0
 54137  1  0  0  0
 55 57  1  0  0  0
 55138  1  0  0  0
 56 69  2  0  0  0
 57 58  2  0  0  0
 57139  1  0  0  0
 58140  1  0  0  0
 59 60  1  0  0  0
 59 61  1  0  0  0
 59 62  1  0  0  0
 60141  1  0  0  0
 60142  1  0  0  0
 60143  1  0  0  0
 61144  1  0  0  0
 61145  1  0  0  0
 61146  1  0  0  0
 62147  1  0  0  0
 62148  1  0  0  0
 62149  1  0  0  0
 63 65  1  0  0  0
 63150  1  0  0  0
 63151  1  0  0  0
 63152  1  0  0  0
 64153  1  0  0  0
 65154  1  0  0  0
 68 90  1  0  0  0
 71 72  2  0  0  0
 71 74  1  0  0  0
 71155  1  0  0  0
 72 76  1  0  0  0
 72156  1  0  0  0
 73 74  2  0  0  0
 73 75  1  0  0  0
 73157  1  0  0  0
 74 85  1  0  0  0
 75 76  2  0  0  0
 75 91  1  0  0  0
 76 93  1  0  0  0
 77 78  1  0  0  0
 77 81  1  0  0  0
 77158  1  0  0  0
 77159  1  0  0  0
 78 81  1  0  0  0
 78160  1  0  0  0
 78161  1  0  0  0
 79 80  1  0  0  0
 79 82  1  0  0  0
 79162  1  0  0  0
 79163  1  0  0  0
 80 82  1  0  0  0
 80164  1  0  0  0
 80165  1  0  0  0
 81 86  1  0  0  0
 81166  1  0  0  0
 82 92  1  0  0  0
 82 94  1  0  0  0
 83167  1  0  0  0
 83168  1  0  0  0
 83169  1  0  0  0
 83 92  1  0  0  0
 84 92  1  0  0  0
 84170  1  0  0  0
 84171  1  0  0  0
 84172  1  0  0  0
 85 87  1  0  0  0
 85173  1  0  0  0
 85174  1  0  0  0
 86175  1  0  0  0
 86176  1  0  0  0
 86 91  1  0  0  0
 87 88  1  0  0  0
 87177  1  0  0  0
 87178  1  0  0  0
 88 95  1  0  0  0
 88179  1  0  0  0
 88180  1  0  0  0
 89 90  1  0  0  0
 89 95  1  0  0  0
 89181  1  0  0  0
 89182  1  0  0  0
 90183  1  0  0  0
 90184  1  0  0  0
 91 94  1  0  0  0
 91185  1  0  0  0
 92186  1  0  0  0
 93187  1  0  0  0
 94188  1  0  0  0
 94189  1  0  0  0
 95190  1  0  0  0
 95191  1  0  0  0
M  CHG  2  94   1  95   1
M  ISO  4   1 100  68 101  90 101  93 100
M  END
> <chiral flag>
0

> <version>
0

> <s_m_source_file>
/data/baiqing/PycharmProjects/Reinvent-master-3.2/result/LINK_invent/BTK/process_docking_weight1_custom_sum_contain_oxygen_bond_distance_aromatic_linkinvent_7_9_3/rearranged_h_0142.sdf

> <i_m_source_file_index>
2

> <r_mmod_Potential_Energy-OPLS-2005>
-203.939804077148

> <r_mmod_Stretch_Energy-OPLS-2005>
39.285758972168

> <r_mmod_Bend_Energy-OPLS-2005>
101.26708984375

> <r_mmod_Torsional_Energy-OPLS-2005>
372.171051025391

> <r_mmod_Improper_Torsional_Energy-OPLS-2005>
8.166015625

> <r_mmod_Van_der_Waal_Energy-OPLS-2005>
121.873069763184

> <r_mmod_Electrostatic_Energy-OPLS-2005>
24.6055316925049

> <r_mmod_Solvation_Energy-OPLS-2005>
-878.5390625

> <b_mmod_Minimization_Converged-OPLS-2005>
0

> <r_mmod_RMS_Derivative-OPLS-2005>
2.10798573493958

$$$$
2
                    3D
 Structure written by MMmdl.
162171  0  0  1  0            999 V2000
  -30.4079  -15.3411   20.3718 C   0  0  0  0  0  0
  -30.4385  -12.8698   19.5122 C   0  0  0  0  0  0
  -29.5345  -12.5890   18.2850 C   0  0  0  0  0  0
  -28.0878  -12.2971   18.7212 C   0  0  0  0  0  0
  -27.6059  -13.2794   19.8166 C   0  0  2  0  0  0
  -28.6419  -13.4903   20.9399 C   0  0  0  0  0  0
  -25.2375  -13.8244   20.5782 C   0  0  0  0  0  0
  -24.1731  -13.0433   20.9289 C   0  0  0  0  0  0
  -24.6386  -11.6930   20.8777 C   0  0  0  0  0  0
  -23.9081  -10.4292   21.0409 C   0  0  0  0  0  0
  -24.3627   -9.4206   21.9183 C   0  0  0  0  0  0
  -23.6308   -8.2237   22.0742 C   0  0  0  0  0  0
  -22.4286   -8.0282   21.3544 C   0  0  0  0  0  0
  -21.9929   -9.0252   20.4638 C   0  0  0  0  0  0
  -22.7255  -10.2133   20.3047 C   0  0  0  0  0  0
  -21.6858   -6.0739   22.5288 C   0  0  0  0  0  0
  -21.4017   -6.5641   23.8225 C   0  0  0  0  0  0
  -21.3659   -5.6794   24.9187 C   0  0  0  0  0  0
  -21.6044   -4.3057   24.7230 C   0  0  0  0  0  0
  -21.8822   -3.8149   23.4353 C   0  0  0  0  0  0
  -21.9190   -4.6966   22.3410 C   0  0  0  0  0  0
  -22.7751  -13.5185   21.1937 C   0  0  0  0  0  0
  -22.1665   -4.2151   21.0986 F   0  0  0  0  0  0
  -21.5619   -3.4536   25.7741 F   0  0  0  0  0  0
  -29.8527  -14.0252   20.2921 N   0  0  0  0  0  0
  -26.2801  -12.9525   20.3230 N   0  0  0  0  0  0
  -25.9324  -11.6628   20.5726 N   0  0  0  0  0  0
  -22.0409  -12.8148   22.0482 N   0  0  0  0  0  0
  -25.3994  -15.1980   20.4219 N   0  0  0  0  0  0
  -31.6431  -15.3251   20.2556 O   0  0  0  0  0  0
  -21.6647   -6.8880   21.4250 O   0  0  0  0  0  0
  -22.3429  -14.5489   20.6783 O   0  0  0  0  0  0
  -24.6683  -31.8190   23.1654 C   0  0  0  0  0  0
  -25.9345  -32.4570   23.8135 C   0  0  1  0  0  0
  -27.2183  -26.8746   20.1964 C   0  0  0  0  0  0
  -25.6001  -33.8381   24.2052 N   0  0  0  0  0  0
  -23.4851  -30.4294   21.5159 C   0  0  2  0  0  0
  -24.9381  -28.8017   20.1204 C   0  0  0  0  0  0
  -22.7691  -29.4426   22.4758 C   0  0  0  0  0  0
  -18.0332  -28.1418   22.8475 C   0  0  0  0  0  0
  -24.1486  -36.7192   23.2645 C   0  0  0  0  0  0
  -26.0576  -30.6094   21.4016 C   0  0  0  0  0  0
  -26.1257  -29.1912   20.7521 C   0  0  0  0  0  0
  -27.2622  -28.2530   20.7581 C   0  0  0  0  0  0
  -25.9974  -26.6489   19.5201 C   0  0  0  0  0  0
  -24.9020  -27.5517   19.4828 C   0  0  0  0  0  0
  -23.7299  -29.7404   20.1456 C   0  0  0  0  0  0
  -25.4133  -36.2955   24.0297 C   0  0  1  0  0  0
  -20.5961  -28.3770   23.1177 C   0  0  2  0  0  0
  -20.6812  -26.9448   22.5402 C   0  0  0  0  0  0
  -19.5784  -26.6386   21.5219 C   0  0  0  0  0  0
  -18.1965  -26.7955   22.1623 C   0  0  0  0  0  0
  -19.1594  -28.8913   23.2813 C   0  0  0  0  0  0
  -18.9501  -30.1501   23.8854 C   0  0  0  0  0  0
  -17.6496  -30.6607   24.0559 C   0  0  0  0  0  0
  -25.9108  -34.9344   23.4999 C   0  0  0  0  0  0
  -16.5386  -29.9095   23.6345 C   0  0  0  0  0  0
  -16.7311  -28.6512   23.0369 C   0  0  0  0  0  0
  -26.4584  -31.6526   25.0677 C   0  0  0  0  0  0
  -25.3692  -31.3794   26.1321 C   0  0  0  0  0  0
  -27.0475  -30.2883   24.6436 C   0  0  0  0  0  0
  -27.6063  -32.4341   25.7493 C   0  0  0  0  0  0
  -27.5566  -37.1757   24.8467 C   0  0  0  0  0  0
  -21.4354  -29.3052   22.3516 N   0  0  0  0  0  0
  -26.4270  -37.3701   23.9416 N   0  0  0  0  0  0
  -24.7590  -30.9809   22.0815 N   0  0  0  0  0  0
  -23.4221  -28.8007   23.3025 O   0  0  0  0  0  0
  -28.2194  -25.7493   20.1889 O   0  0  0  0  0  0
  -26.5708  -34.8891   22.4588 O   0  0  0  0  0  0
  -23.5745  -32.1178   23.6726 O   0  0  0  0  0  0
  -28.9238  -22.3784   18.6744 C   0  0  0  0  0  0
  -28.6497  -22.5701   20.0455 C   0  0  0  0  0  0
  -28.8702  -21.1975   20.7444 C   0  0  0  0  0  0
  -29.3011  -21.1196   18.1180 C   0  0  0  0  0  0
  -29.2910  -19.8371   20.1170 C   0  0  0  0  0  0
  -26.4976  -22.7040   24.4720 C   0  0  0  0  0  0
  -25.4392  -21.6244   24.4925 C   0  0  0  0  0  0
  -26.8423  -21.2981   24.0384 C   0  0  0  0  0  0
  -29.5365  -21.0301   16.6245 C   0  0  0  0  0  0
  -28.6254  -21.2019   22.2421 C   0  0  0  0  0  0
  -27.9637  -24.1346   20.5451 C   0  0  0  0  0  0
  -29.8131  -18.2659   20.7525 C   0  0  0  0  0  0
  -27.1420  -20.9971   22.5839 C   0  0  0  0  0  0
  -29.4696  -19.9369   18.7819 N   0  0  0  0  0  0
  -29.6343  -16.6237   20.3869 N   0  0  0  0  0  0
  -31.4489  -13.0968   19.1692 H   0  0  0  0  0  0
  -30.5351  -11.9812   20.1385 H   0  0  0  0  0  0
  -29.9296  -11.7569   17.7004 H   0  0  0  0  0  0
  -29.5436  -13.4594   17.6273 H   0  0  0  0  0  0
  -28.0573  -11.2774   19.1072 H   0  0  0  0  0  0
  -27.4158  -12.3205   17.8624 H   0  0  0  0  0  0
  -27.5064  -14.2362   19.3023 H   0  0  0  0  0  0
  -28.8377  -12.5680   21.4887 H   0  0  0  0  0  0
  -28.2693  -14.2130   21.6675 H   0  0  0  0  0  0
  -25.2758   -9.5684   22.4777 H   0  0  0  0  0  0
  -24.0020   -7.4612   22.7443 H   0  0  0  0  0  0
  -21.0867   -8.8766   19.8932 H   0  0  0  0  0  0
  -22.3707  -10.9674   19.6159 H   0  0  0  0  0  0
  -21.2018   -7.6151   23.9732 H   0  0  0  0  0  0
  -21.1481   -6.0521   25.9092 H   0  0  0  0  0  0
  -22.0596   -2.7610   23.2851 H   0  0  0  0  0  0
  -22.4059  -11.9808   22.4849 H   0  0  0  0  0  0
  -21.1016  -13.1132   22.2684 H   0  0  0  0  0  0
  -24.6262  -15.8446   20.5340 H   0  0  0  0  0  0
  -26.2341  -15.6419   20.0641 H   0  0  0  0  0  0
  -26.7414  -32.5103   23.0842 H   0  0  0  0  0  0
  -25.0123  -33.9450   25.0190 H   0  0  0  0  0  0
  -22.8010  -31.2621   21.3402 H   0  0  0  0  0  0
  -23.3767  -35.9499   23.3269 H   0  0  0  0  0  0
  -24.3560  -36.8878   22.2066 H   0  0  0  0  0  0
  -23.7225  -37.6362   23.6724 H   0  0  0  0  0  0
  -26.2386  -31.3446   20.6159 H   0  0  0  0  0  0
  -26.9171  -30.6747   22.0570 H   0  0  0  0  0  0
  -28.1662  -28.5594   21.2646 H   0  0  0  0  0  0
  -25.8640  -25.6999   19.0204 H   0  0  0  0  0  0
  -24.0026  -27.2481   18.9651 H   0  0  0  0  0  0
  -23.8967  -30.5059   19.3875 H   0  0  0  0  0  0
  -22.8377  -29.2016   19.8225 H   0  0  0  0  0  0
  -25.1330  -36.1736   25.0785 H   0  0  0  0  0  0
  -21.0048  -28.3382   24.1300 H   0  0  0  0  0  0
  -20.5693  -26.2388   23.3650 H   0  0  0  0  0  0
  -21.6674  -26.7427   22.1204 H   0  0  0  0  0  0
  -19.6939  -25.6281   21.1288 H   0  0  0  0  0  0
  -19.6724  -27.3160   20.6721 H   0  0  0  0  0  0
  -17.4238  -26.6706   21.4020 H   0  0  0  0  0  0
  -18.0347  -26.0106   22.9024 H   0  0  0  0  0  0
  -19.7977  -30.7327   24.2203 H   0  0  0  0  0  0
  -17.5049  -31.6281   24.5171 H   0  0  0  0  0  0
  -15.5384  -30.2983   23.7691 H   0  0  0  0  0  0
  -15.8714  -28.0810   22.7112 H   0  0  0  0  0  0
  -24.5909  -30.7104   25.7637 H   0  0  0  0  0  0
  -24.8840  -32.2996   26.4579 H   0  0  0  0  0  0
  -25.7914  -30.9085   27.0207 H   0  0  0  0  0  0
  -26.3139  -29.6556   24.1428 H   0  0  0  0  0  0
  -27.3975  -29.7260   25.5105 H   0  0  0  0  0  0
  -27.9101  -30.4051   23.9871 H   0  0  0  0  0  0
  -27.2629  -33.3702   26.1908 H   0  0  0  0  0  0
  -28.3966  -32.6803   25.0388 H   0  0  0  0  0  0
  -28.0621  -31.8567   26.5548 H   0  0  0  0  0  0
  -28.2557  -38.0078   24.7526 H   0  0  0  0  0  0
  -28.1089  -36.2606   24.6274 H   0  0  0  0  0  0
  -27.2288  -37.1376   25.8870 H   0  0  0  0  0  0
  -20.9610  -29.8729   21.6634 H   0  0  0  0  0  0
  -26.0111  -38.2750   24.1442 H   0  0  0  0  0  0
  -28.8007  -23.2237   18.0103 H   0  0  0  0  0  0
  -26.8948  -23.0454   25.4264 H   0  0  0  0  0  0
  -26.4113  -23.4703   23.7039 H   0  0  0  0  0  0
  -24.6585  -21.6686   23.7350 H   0  0  0  0  0  0
  -25.1225  -21.2526   25.4655 H   0  0  0  0  0  0
  -27.4389  -20.7154   24.7384 H   0  0  0  0  0  0
  -30.0098  -21.9384   16.2505 H   0  0  0  0  0  0
  -28.5887  -20.8986   16.1021 H   0  0  0  0  0  0
  -30.1847  -20.1905   16.3705 H   0  0  0  0  0  0
  -28.9731  -22.1536   22.6462 H   0  0  0  0  0  0
  -29.2326  -20.4391   22.7289 H   0  0  0  0  0  0
  -28.0314  -24.1106   21.6322 H   0  0  0  0  0  0
  -26.8994  -23.9939   20.3570 H   0  0  0  0  0  0
  -29.5006  -18.3085   21.7954 H   0  0  0  0  0  0
  -30.8962  -18.3808   20.8108 H   0  0  0  0  0  0
  -26.5232  -21.6469   21.9634 H   0  0  0  0  0  0
  -26.8383  -19.9740   22.3577 H   0  0  0  0  0  0
  -28.6538  -16.4176   20.2753 H   0  0  0  0  0  0
  1 25  1  0  0  0
  1 30  2  0  0  0
  1 85  1  0  0  0
  2  3  1  0  0  0
  2 25  1  0  0  0
  2 86  1  0  0  0
  2 87  1  0  0  0
  3  4  1  0  0  0
  3 88  1  0  0  0
  3 89  1  0  0  0
  4  5  1  0  0  0
  4 90  1  0  0  0
  4 91  1  0  0  0
  5  6  1  0  0  0
  5 26  1  0  0  0
  5 92  1  0  0  0
  6 25  1  0  0  0
  6 93  1  0  0  0
  6 94  1  0  0  0
  7  8  2  0  0  0
  7 26  1  0  0  0
  7 29  1  0  0  0
  8  9  1  0  0  0
  8 22  1  0  0  0
  9 10  1  0  0  0
  9 27  2  0  0  0
 10 11  2  0  0  0
 10 15  1  0  0  0
 11 12  1  0  0  0
 11 95  1  0  0  0
 12 13  2  0  0  0
 12 96  1  0  0  0
 13 14  1  0  0  0
 13 31  1  0  0  0
 14 15  2  0  0  0
 14 97  1  0  0  0
 15 98  1  0  0  0
 16 17  2  0  0  0
 16 21  1  0  0  0
 16 31  1  0  0  0
 17 18  1  0  0  0
 17 99  1  0  0  0
 18 19  2  0  0  0
 18100  1  0  0  0
 19 20  1  0  0  0
 19 24  1  0  0  0
 20 21  2  0  0  0
 20101  1  0  0  0
 21 23  1  0  0  0
 22 28  1  0  0  0
 22 32  2  0  0  0
 26 27  1  0  0  0
 28102  1  0  0  0
 28103  1  0  0  0
 29104  1  0  0  0
 29105  1  0  0  0
 33 34  1  0  0  0
 33 66  1  0  0  0
 33 70  2  0  0  0
 34 36  1  0  0  0
 34 59  1  0  0  0
 34106  1  0  0  0
 35 44  2  0  0  0
 35 45  1  0  0  0
 35 68  1  0  0  0
 36 56  1  0  0  0
 36107  1  0  0  0
 37 39  1  0  0  0
 37 47  1  0  0  0
 37 66  1  0  0  0
 37108  1  0  0  0
 38 43  2  0  0  0
 38 46  1  0  0  0
 38 47  1  0  0  0
 39 64  1  0  0  0
 39 67  2  0  0  0
 40 52  1  0  0  0
 40 53  2  0  0  0
 40 58  1  0  0  0
 41109  1  0  0  0
 41110  1  0  0  0
 41111  1  0  0  0
 41 48  1  0  0  0
 42 43  1  0  0  0
 42 66  1  0  0  0
 42112  1  0  0  0
 42113  1  0  0  0
 43 44  1  0  0  0
 44114  1  0  0  0
 45 46  2  0  0  0
 45115  1  0  0  0
 46116  1  0  0  0
 47117  1  0  0  0
 47118  1  0  0  0
 48 56  1  0  0  0
 48 65  1  0  0  0
 48119  1  0  0  0
 49 50  1  0  0  0
 49 53  1  0  0  0
 49 64  1  0  0  0
 49120  1  0  0  0
 50 51  1  0  0  0
 50121  1  0  0  0
 50122  1  0  0  0
 51 52  1  0  0  0
 51123  1  0  0  0
 51124  1  0  0  0
 52125  1  0  0  0
 52126  1  0  0  0
 53 54  1  0  0  0
 54 55  2  0  0  0
 54127  1  0  0  0
 55 57  1  0  0  0
 55128  1  0  0  0
 56 69  2  0  0  0
 57 58  2  0  0  0
 57129  1  0  0  0
 58130  1  0  0  0
 59 60  1  0  0  0
 59 61  1  0  0  0
 59 62  1  0  0  0
 60131  1  0  0  0
 60132  1  0  0  0
 60133  1  0  0  0
 61134  1  0  0  0
 61135  1  0  0  0
 61136  1  0  0  0
 62137  1  0  0  0
 62138  1  0  0  0
 62139  1  0  0  0
 63 65  1  0  0  0
 63140  1  0  0  0
 63141  1  0  0  0
 63142  1  0  0  0
 64143  1  0  0  0
 65144  1  0  0  0
 68 81  1  0  0  0
 71 72  2  0  0  0
 71 74  1  0  0  0
 71145  1  0  0  0
 72 73  1  0  0  0
 72 81  1  0  0  0
 73 75  2  0  0  0
 73 80  1  0  0  0
 74 79  1  0  0  0
 74 84  2  0  0  0
 75 82  1  0  0  0
 75 84  1  0  0  0
 76 77  1  0  0  0
 76 78  1  0  0  0
 76146  1  0  0  0
 76147  1  0  0  0
 77 78  1  0  0  0
 77148  1  0  0  0
 77149  1  0  0  0
 78 83  1  0  0  0
 78150  1  0  0  0
 79151  1  0  0  0
 79152  1  0  0  0
 79153  1  0  0  0
 80 83  1  0  0  0
 80154  1  0  0  0
 80155  1  0  0  0
 81156  1  0  0  0
 81157  1  0  0  0
 82 85  1  0  0  0
 82158  1  0  0  0
 82159  1  0  0  0
 83160  1  0  0  0
 83161  1  0  0  0
 85162  1  0  0  0
M  ISO  4   1 100  68 101  81 101  85 100
M  END
> <chiral flag>
0

> <version>
0

> <s_m_source_file>
/data/baiqing/PycharmProjects/Reinvent-master-3.2/result/LINK_invent/BTK/process_docking_weight1_custom_sum_contain_oxygen_bond_distance_aromatic_linkinvent_7_9_3/rearranged_h_0142.sdf

> <i_m_source_file_index>
3

> <r_mmod_Potential_Energy-OPLS-2005>
1223.77282714844

> <r_mmod_Stretch_Energy-OPLS-2005>
644.851867675781

> <r_mmod_Bend_Energy-OPLS-2005>
456.87841796875

> <r_mmod_Torsional_Energy-OPLS-2005>
280.158813476562

> <r_mmod_Improper_Torsional_Energy-OPLS-2005>
6.01117563247681

> <r_mmod_Van_der_Waal_Energy-OPLS-2005>
117.372833251953

> <r_mmod_Electrostatic_Energy-OPLS-2005>
-586.98193359375

> <r_mmod_Solvation_Energy-OPLS-2005>
-234.363143920898

> <b_mmod_Minimization_Converged-OPLS-2005>
0

> <r_mmod_RMS_Derivative-OPLS-2005>
1.24682462215424

$$$$
3
                    3D
 Structure written by MMmdl.
170179  0  0  1  0            999 V2000
  -30.6371  -14.6355   20.5181 C   0  0  0  0  0  0
  -30.4194  -12.3937   19.4522 C   0  0  0  0  0  0
  -29.4986  -12.5158   18.2186 C   0  0  0  0  0  0
  -28.0233  -12.3452   18.6309 C   0  0  0  0  0  0
  -27.6450  -13.2196   19.8560 C   0  0  2  0  0  0
  -28.6867  -13.0946   20.9888 C   0  0  0  0  0  0
  -25.2546  -13.8180   20.5723 C   0  0  0  0  0  0
  -24.1817  -13.0437   20.9199 C   0  0  0  0  0  0
  -24.6385  -11.6910   20.8735 C   0  0  0  0  0  0
  -23.9071  -10.4286   21.0392 C   0  0  0  0  0  0
  -24.3622   -9.4207   21.9178 C   0  0  0  0  0  0
  -23.6299   -8.2244   22.0753 C   0  0  0  0  0  0
  -22.4282   -8.0274   21.3539 C   0  0  0  0  0  0
  -21.9932   -9.0247   20.4641 C   0  0  0  0  0  0
  -22.7249  -10.2123   20.3042 C   0  0  0  0  0  0
  -21.6871   -6.0734   22.5285 C   0  0  0  0  0  0
  -21.4022   -6.5643   23.8207 C   0  0  0  0  0  0
  -21.3658   -5.6795   24.9174 C   0  0  0  0  0  0
  -21.6038   -4.3063   24.7225 C   0  0  0  0  0  0
  -21.8820   -3.8146   23.4357 C   0  0  0  0  0  0
  -21.9197   -4.6966   22.3410 C   0  0  0  0  0  0
  -22.7840  -13.5226   21.1851 C   0  0  0  0  0  0
  -22.1662   -4.2146   21.0986 F   0  0  0  0  0  0
  -21.5623   -3.4552   25.7746 F   0  0  0  0  0  0
  -29.9976  -13.4275   20.4177 N   0  0  0  0  0  0
  -26.2942  -12.9360   20.3296 N   0  0  0  0  0  0
  -25.9304  -11.6506   20.5729 N   0  0  0  0  0  0
  -22.0490  -12.8192   22.0394 N   0  0  0  0  0  0
  -25.4302  -15.1901   20.4174 N   0  0  0  0  0  0
  -31.7999  -14.7638   20.1372 O   0  0  0  0  0  0
  -21.6640   -6.8878   21.4245 O   0  0  0  0  0  0
  -22.3524  -14.5528   20.6696 O   0  0  0  0  0  0
  -24.6247  -31.8598   23.2042 C   0  0  0  0  0  0
  -25.9099  -32.4788   23.8364 C   0  0  1  0  0  0
  -27.2206  -27.3310   20.1195 C   0  0  0  0  0  0
  -25.5927  -33.8590   24.2302 N   0  0  0  0  0  0
  -23.4189  -30.4828   21.5444 C   0  0  2  0  0  0
  -24.8651  -28.9325   20.1145 C   0  0  0  0  0  0
  -22.7474  -29.4625   22.4930 C   0  0  0  0  0  0
  -18.0290  -28.1416   22.8466 C   0  0  0  0  0  0
  -24.1494  -36.7299   23.2640 C   0  0  0  0  0  0
  -25.9577  -30.7917   21.3747 C   0  0  0  0  0  0
  -26.0302  -29.4185   20.7195 C   0  0  0  0  0  0
  -27.2130  -28.6269   20.7130 C   0  0  0  0  0  0
  -26.0375  -26.8873   19.4928 C   0  0  0  0  0  0
  -24.8676  -27.6715   19.4954 C   0  0  0  0  0  0
  -23.6355  -29.8150   20.1597 C   0  0  0  0  0  0
  -25.4121  -36.3105   24.0342 C   0  0  1  0  0  0
  -20.5890  -28.3717   23.1279 C   0  0  2  0  0  0
  -20.6793  -26.9444   22.5415 C   0  0  0  0  0  0
  -19.5777  -26.6399   21.5218 C   0  0  0  0  0  0
  -18.1941  -26.7955   22.1607 C   0  0  0  0  0  0
  -19.1545  -28.8876   23.2860 C   0  0  0  0  0  0
  -18.9472  -30.1457   23.8909 C   0  0  0  0  0  0
  -17.6484  -30.6607   24.0575 C   0  0  0  0  0  0
  -25.9059  -34.9463   23.5126 C   0  0  0  0  0  0
  -16.5370  -29.9120   23.6347 C   0  0  0  0  0  0
  -16.7278  -28.6542   23.0353 C   0  0  0  0  0  0
  -26.4486  -31.6605   25.0742 C   0  0  0  0  0  0
  -25.3706  -31.3718   26.1464 C   0  0  0  0  0  0
  -27.0371  -30.3064   24.6170 C   0  0  0  0  0  0
  -27.6072  -32.4325   25.7494 C   0  0  0  0  0  0
  -27.5591  -37.1793   24.8463 C   0  0  0  0  0  0
  -21.4189  -29.3060   22.3659 N   0  0  0  0  0  0
  -26.4306  -37.3793   23.9414 N   0  0  0  0  0  0
  -24.6859  -31.0611   22.0984 N   0  0  0  0  0  0
  -23.4192  -28.8151   23.3006 O   0  0  0  0  0  0
  -28.3495  -26.5127   20.1213 O   0  0  0  0  0  0
  -26.5616  -34.8907   22.4687 O   0  0  0  0  0  0
  -23.5406  -32.1398   23.7363 O   0  0  0  0  0  0
  -28.5035  -21.4578   19.1129 C   0  0  0  0  0  0
  -29.7343  -22.1174   21.0491 C   0  0  0  0  0  0
  -29.7635  -19.7020   20.3766 C   0  0  0  0  0  0
  -28.9744  -22.5141   19.9297 C   0  0  0  0  0  0
  -28.8730  -20.0937   19.3256 C   0  0  0  0  0  0
  -30.1000  -20.7546   21.3022 C   0  0  0  0  0  0
  -31.4759  -17.0900   22.2484 C   0  0  0  0  0  0
  -32.5547  -17.6032   21.3001 C   0  0  0  0  0  0
  -30.4890  -18.2744   20.3444 C   0  0  2  0  0  0
  -30.2074  -17.1125   21.4004 C   0  0  1  0  0  0
  -29.0934  -19.0679   17.0212 C   0  0  0  0  0  0
  -30.9194  -21.5645   23.6370 C   0  0  0  0  0  0
  -28.8030  -24.0226   19.5164 C   0  0  0  0  0  0
  -28.3136  -19.0794   18.3411 C   0  0  0  0  0  0
  -30.8765  -20.4478   22.5811 C   0  0  0  0  0  0
  -28.1997  -25.0941   20.5099 C   0  0  0  0  0  0
  -29.8814  -15.7041   20.9322 N   0  0  0  0  0  0
  -31.8994  -18.5038   20.4170 O   0  0  0  0  0  0
  -31.4655  -12.4974   19.1623 H   0  0  0  0  0  0
  -30.3273  -11.4020   19.8983 H   0  0  0  0  0  0
  -29.7669  -11.7731   17.4657 H   0  0  0  0  0  0
  -29.6354  -13.4928   17.7498 H   0  0  0  0  0  0
  -27.8687  -11.2915   18.8658 H   0  0  0  0  0  0
  -27.3664  -12.5675   17.7888 H   0  0  0  0  0  0
  -27.6572  -14.2520   19.5052 H   0  0  0  0  0  0
  -28.6970  -12.0815   21.3934 H   0  0  0  0  0  0
  -28.4309  -13.7487   21.8228 H   0  0  0  0  0  0
  -25.2762   -9.5704   22.4760 H   0  0  0  0  0  0
  -24.0020   -7.4647   22.7486 H   0  0  0  0  0  0
  -21.0869   -8.8753   19.8942 H   0  0  0  0  0  0
  -22.3704  -10.9659   19.6149 H   0  0  0  0  0  0
  -21.2005   -7.6151   23.9715 H   0  0  0  0  0  0
  -21.1481   -6.0524   25.9069 H   0  0  0  0  0  0
  -22.0596   -2.7614   23.2858 H   0  0  0  0  0  0
  -22.4133  -11.9864   22.4783 H   0  0  0  0  0  0
  -21.1090  -13.1178   22.2568 H   0  0  0  0  0  0
  -24.6752  -15.8551   20.5424 H   0  0  0  0  0  0
  -26.2856  -15.6259   20.0986 H   0  0  0  0  0  0
  -26.7152  -32.5461   23.1097 H   0  0  0  0  0  0
  -25.0095  -33.9745   25.0460 H   0  0  0  0  0  0
  -22.7150  -31.3047   21.3971 H   0  0  0  0  0  0
  -23.3774  -35.9611   23.3310 H   0  0  0  0  0  0
  -24.3570  -36.8933   22.2051 H   0  0  0  0  0  0
  -23.7215  -37.6487   23.6657 H   0  0  0  0  0  0
  -26.0868  -31.5505   20.6025 H   0  0  0  0  0  0
  -26.8389  -30.8460   22.0004 H   0  0  0  0  0  0
  -28.1103  -28.9875   21.1959 H   0  0  0  0  0  0
  -26.0152  -25.9261   18.9989 H   0  0  0  0  0  0
  -23.9727  -27.2989   19.0178 H   0  0  0  0  0  0
  -23.7592  -30.5917   19.4039 H   0  0  0  0  0  0
  -22.7556  -29.2466   19.8529 H   0  0  0  0  0  0
  -25.1287  -36.1987   25.0835 H   0  0  0  0  0  0
  -20.9958  -28.3320   24.1410 H   0  0  0  0  0  0
  -20.5749  -26.2322   23.3609 H   0  0  0  0  0  0
  -21.6657  -26.7509   22.1178 H   0  0  0  0  0  0
  -19.6967  -25.6305   21.1268 H   0  0  0  0  0  0
  -19.6755  -27.3189   20.6735 H   0  0  0  0  0  0
  -17.4223  -26.6704   21.3999 H   0  0  0  0  0  0
  -18.0329  -26.0102   22.9005 H   0  0  0  0  0  0
  -19.7950  -30.7248   24.2311 H   0  0  0  0  0  0
  -17.5052  -31.6298   24.5170 H   0  0  0  0  0  0
  -15.5376  -30.3040   23.7674 H   0  0  0  0  0  0
  -15.8663  -28.0866   22.7091 H   0  0  0  0  0  0
  -24.5886  -30.7092   25.7749 H   0  0  0  0  0  0
  -24.8873  -32.2872   26.4894 H   0  0  0  0  0  0
  -25.7995  -30.8863   27.0244 H   0  0  0  0  0  0
  -26.2957  -29.6776   24.1236 H   0  0  0  0  0  0
  -27.4188  -29.7358   25.4647 H   0  0  0  0  0  0
  -27.8761  -30.4430   23.9344 H   0  0  0  0  0  0
  -27.2743  -33.3631   26.2083 H   0  0  0  0  0  0
  -28.3860  -32.6869   25.0300 H   0  0  0  0  0  0
  -28.0766  -31.8442   26.5385 H   0  0  0  0  0  0
  -28.2592  -38.0098   24.7538 H   0  0  0  0  0  0
  -28.1100  -36.2638   24.6268 H   0  0  0  0  0  0
  -27.2301  -37.1432   25.8856 H   0  0  0  0  0  0
  -20.9374  -29.8767   21.6840 H   0  0  0  0  0  0
  -26.0217  -38.2883   24.1406 H   0  0  0  0  0  0
  -27.8963  -21.7012   18.2520 H   0  0  0  0  0  0
  -30.0792  -22.9105   21.6936 H   0  0  0  0  0  0
  -31.3809  -17.7539   23.1039 H   0  0  0  0  0  0
  -31.7149  -16.1150   22.6713 H   0  0  0  0  0  0
  -33.0034  -16.7995   20.7203 H   0  0  0  0  0  0
  -33.3708  -18.0950   21.8287 H   0  0  0  0  0  0
  -30.3559  -17.8335   19.3597 H   0  0  0  0  0  0
  -29.3626  -17.4128   22.0228 H   0  0  0  0  0  0
  -28.7015  -18.3075   16.3458 H   0  0  0  0  0  0
  -30.1534  -18.8665   17.1816 H   0  0  0  0  0  0
  -29.0110  -20.0302   16.5140 H   0  0  0  0  0  0
  -31.3604  -21.1985   24.5644 H   0  0  0  0  0  0
  -29.9156  -21.9195   23.8744 H   0  0  0  0  0  0
  -31.5194  -22.4152   23.3109 H   0  0  0  0  0  0
  -28.2294  -24.0621   18.5904 H   0  0  0  0  0  0
  -29.8011  -24.3698   19.2480 H   0  0  0  0  0  0
  -27.2721  -19.3350   18.1434 H   0  0  0  0  0  0
  -28.2691  -18.0829   18.7813 H   0  0  0  0  0  0
  -31.8955  -20.1549   22.3329 H   0  0  0  0  0  0
  -30.3822  -19.6029   23.0517 H   0  0  0  0  0  0
  -28.7294  -24.9996   21.4576 H   0  0  0  0  0  0
  -27.1656  -24.8364   20.7409 H   0  0  0  0  0  0
  -28.9185  -15.4504   21.0971 H   0  0  0  0  0  0
  1 25  1  0  0  0
  1 30  2  0  0  0
  1 87  1  0  0  0
  2  3  1  0  0  0
  2 25  1  0  0  0
  2 89  1  0  0  0
  2 90  1  0  0  0
  3  4  1  0  0  0
  3 91  1  0  0  0
  3 92  1  0  0  0
  4  5  1  0  0  0
  4 93  1  0  0  0
  4 94  1  0  0  0
  5  6  1  0  0  0
  5 26  1  0  0  0
  5 95  1  0  0  0
  6 25  1  0  0  0
  6 96  1  0  0  0
  6 97  1  0  0  0
  7  8  2  0  0  0
  7 26  1  0  0  0
  7 29  1  0  0  0
  8  9  1  0  0  0
  8 22  1  0  0  0
  9 10  1  0  0  0
  9 27  2  0  0  0
 10 11  2  0  0  0
 10 15  1  0  0  0
 11 12  1  0  0  0
 11 98  1  0  0  0
 12 13  2  0  0  0
 12 99  1  0  0  0
 13 14  1  0  0  0
 13 31  1  0  0  0
 14 15  2  0  0  0
 14100  1  0  0  0
 15101  1  0  0  0
 16 17  2  0  0  0
 16 21  1  0  0  0
 16 31  1  0  0  0
 17 18  1  0  0  0
 17102  1  0  0  0
 18 19  2  0  0  0
 18103  1  0  0  0
 19 20  1  0  0  0
 19 24  1  0  0  0
 20 21  2  0  0  0
 20104  1  0  0  0
 21 23  1  0  0  0
 22 28  1  0  0  0
 22 32  2  0  0  0
 26 27  1  0  0  0
 28105  1  0  0  0
 28106  1  0  0  0
 29107  1  0  0  0
 29108  1  0  0  0
 33 34  1  0  0  0
 33 66  1  0  0  0
 33 70  2  0  0  0
 34 36  1  0  0  0
 34 59  1  0  0  0
 34109  1  0  0  0
 35 44  2  0  0  0
 35 45  1  0  0  0
 35 68  1  0  0  0
 36 56  1  0  0  0
 36110  1  0  0  0
 37 39  1  0  0  0
 37 47  1  0  0  0
 37 66  1  0  0  0
 37111  1  0  0  0
 38 43  2  0  0  0
 38 46  1  0  0  0
 38 47  1  0  0  0
 39 64  1  0  0  0
 39 67  2  0  0  0
 40 52  1  0  0  0
 40 53  2  0  0  0
 40 58  1  0  0  0
 41112  1  0  0  0
 41113  1  0  0  0
 41114  1  0  0  0
 41 48  1  0  0  0
 42 43  1  0  0  0
 42 66  1  0  0  0
 42115  1  0  0  0
 42116  1  0  0  0
 43 44  1  0  0  0
 44117  1  0  0  0
 45 46  2  0  0  0
 45118  1  0  0  0
 46119  1  0  0  0
 47120  1  0  0  0
 47121  1  0  0  0
 48 56  1  0  0  0
 48 65  1  0  0  0
 48122  1  0  0  0
 49 50  1  0  0  0
 49 53  1  0  0  0
 49 64  1  0  0  0
 49123  1  0  0  0
 50 51  1  0  0  0
 50124  1  0  0  0
 50125  1  0  0  0
 51 52  1  0  0  0
 51126  1  0  0  0
 51127  1  0  0  0
 52128  1  0  0  0
 52129  1  0  0  0
 53 54  1  0  0  0
 54 55  2  0  0  0
 54130  1  0  0  0
 55 57  1  0  0  0
 55131  1  0  0  0
 56 69  2  0  0  0
 57 58  2  0  0  0
 57132  1  0  0  0
 58133  1  0  0  0
 59 60  1  0  0  0
 59 61  1  0  0  0
 59 62  1  0  0  0
 60134  1  0  0  0
 60135  1  0  0  0
 60136  1  0  0  0
 61137  1  0  0  0
 61138  1  0  0  0
 61139  1  0  0  0
 62140  1  0  0  0
 62141  1  0  0  0
 62142  1  0  0  0
 63 65  1  0  0  0
 63143  1  0  0  0
 63144  1  0  0  0
 63145  1  0  0  0
 64146  1  0  0  0
 65147  1  0  0  0
 68 86  1  0  0  0
 71 74  2  0  0  0
 71 75  1  0  0  0
 71148  1  0  0  0
 72 74  1  0  0  0
 72 76  2  0  0  0
 72149  1  0  0  0
 73 75  2  0  0  0
 73 76  1  0  0  0
 73 79  1  0  0  0
 74 83  1  0  0  0
 75 84  1  0  0  0
 76 85  1  0  0  0
 77 78  1  0  0  0
 77 80  1  0  0  0
 77150  1  0  0  0
 77151  1  0  0  0
 78 88  1  0  0  0
 78152  1  0  0  0
 78153  1  0  0  0
 79 80  1  0  0  0
 79 88  1  0  0  0
 79154  1  0  0  0
 80 87  1  0  0  0
 80155  1  0  0  0
 81 84  1  0  0  0
 81156  1  0  0  0
 81157  1  0  0  0
 81158  1  0  0  0
 82 85  1  0  0  0
 82159  1  0  0  0
 82160  1  0  0  0
 82161  1  0  0  0
 83 86  1  0  0  0
 83162  1  0  0  0
 83163  1  0  0  0
 84164  1  0  0  0
 84165  1  0  0  0
 85166  1  0  0  0
 85167  1  0  0  0
 86168  1  0  0  0
 86169  1  0  0  0
 87170  1  0  0  0
M  ISO  4   1 100  68 101  86 101  87 100
M  END
> <chiral flag>
0

> <version>
0

> <s_m_source_file>
/data/baiqing/PycharmProjects/Reinvent-master-3.2/result/LINK_invent/BTK/process_docking_weight1_custom_sum_contain_oxygen_bond_distance_aromatic_linkinvent_7_9_3/rearranged_h_0142.sdf

> <i_m_source_file_index>
4

> <r_mmod_Potential_Energy-OPLS-2005>
142.445648193359

> <r_mmod_Stretch_Energy-OPLS-2005>
86.6189651489258

> <r_mmod_Bend_Energy-OPLS-2005>
172.264343261719

> <r_mmod_Torsional_Energy-OPLS-2005>
288.524078369141

> <r_mmod_Improper_Torsional_Energy-OPLS-2005>
4.90794992446899

> <r_mmod_Van_der_Waal_Energy-OPLS-2005>
144.862396240234

> <r_mmod_Electrostatic_Energy-OPLS-2005>
-389.730102539062

> <r_mmod_Solvation_Energy-OPLS-2005>
-209.123596191406

> <b_mmod_Minimization_Converged-OPLS-2005>
0

> <r_mmod_RMS_Derivative-OPLS-2005>
3.01179575920105

$$$$
4
                    3D
 Structure written by MMmdl.
184194  0  0  1  0            999 V2000
  -30.7457  -14.3957   20.6086 C   0  0  0  0  0  0
  -30.3993  -12.2735   19.4074 C   0  0  0  0  0  0
  -29.4763  -12.5033   18.1951 C   0  0  0  0  0  0
  -27.9991  -12.3688   18.6099 C   0  0  0  0  0  0
  -27.6573  -13.2032   19.8728 C   0  0  2  0  0  0
  -28.6967  -12.9690   20.9914 C   0  0  0  0  0  0
  -25.2565  -13.8165   20.5669 C   0  0  0  0  0  0
  -24.1812  -13.0435   20.9161 C   0  0  0  0  0  0
  -24.6360  -11.6907   20.8723 C   0  0  0  0  0  0
  -23.9037  -10.4289   21.0403 C   0  0  0  0  0  0
  -24.3591   -9.4221   21.9192 C   0  0  0  0  0  0
  -23.6283   -8.2251   22.0761 C   0  0  0  0  0  0
  -22.4279   -8.0276   21.3536 C   0  0  0  0  0  0
  -21.9903   -9.0234   20.4637 C   0  0  0  0  0  0
  -22.7210  -10.2126   20.3049 C   0  0  0  0  0  0
  -21.6849   -6.0741   22.5281 C   0  0  0  0  0  0
  -21.4009   -6.5648   23.8216 C   0  0  0  0  0  0
  -21.3653   -5.6799   24.9176 C   0  0  0  0  0  0
  -21.6044   -4.3062   24.7227 C   0  0  0  0  0  0
  -21.8819   -3.8150   23.4347 C   0  0  0  0  0  0
  -21.9189   -4.6969   22.3406 C   0  0  0  0  0  0
  -22.7843  -13.5243   21.1844 C   0  0  0  0  0  0
  -22.1660   -4.2153   21.0979 F   0  0  0  0  0  0
  -21.5632   -3.4547   25.7739 F   0  0  0  0  0  0
  -30.0334  -13.2519   20.4402 N   0  0  0  0  0  0
  -26.2987  -12.9325   20.3357 N   0  0  0  0  0  0
  -25.9284  -11.6485   20.5754 N   0  0  0  0  0  0
  -22.0498  -12.8206   22.0397 N   0  0  0  0  0  0
  -25.4308  -15.1870   20.4065 N   0  0  0  0  0  0
  -31.8472  -14.5845   20.0834 O   0  0  0  0  0  0
  -21.6639   -6.8879   21.4249 O   0  0  0  0  0  0
  -22.3527  -14.5549   20.6714 O   0  0  0  0  0  0
  -24.6073  -31.8718   23.2144 C   0  0  0  0  0  0
  -25.8981  -32.4868   23.8439 C   0  0  1  0  0  0
  -27.2403  -27.4642   20.1123 C   0  0  0  0  0  0
  -25.5864  -33.8662   24.2380 N   0  0  0  0  0  0
  -23.3954  -30.4891   21.5574 C   0  0  2  0  0  0
  -24.8461  -28.9579   20.1212 C   0  0  0  0  0  0
  -22.7399  -29.4626   22.5064 C   0  0  0  0  0  0
  -18.0272  -28.1361   22.8531 C   0  0  0  0  0  0
  -24.1467  -36.7304   23.2642 C   0  0  0  0  0  0
  -25.9160  -30.8483   21.3612 C   0  0  0  0  0  0
  -25.9989  -29.4805   20.7196 C   0  0  0  0  0  0
  -27.1987  -28.7383   20.7208 C   0  0  0  0  0  0
  -26.0808  -26.9578   19.4904 C   0  0  0  0  0  0
  -24.8790  -27.6939   19.5057 C   0  0  0  0  0  0
  -23.6013  -29.8141   20.1738 C   0  0  0  0  0  0
  -25.4103  -36.3144   24.0335 C   0  0  1  0  0  0
  -20.5851  -28.3620   23.1377 C   0  0  2  0  0  0
  -20.6759  -26.9371   22.5433 C   0  0  0  0  0  0
  -19.5715  -26.6360   21.5247 C   0  0  0  0  0  0
  -18.1892  -26.7919   22.1651 C   0  0  0  0  0  0
  -19.1519  -28.8818   23.2937 C   0  0  0  0  0  0
  -18.9444  -30.1445   23.8914 C   0  0  0  0  0  0
  -17.6442  -30.6582   24.0571 C   0  0  0  0  0  0
  -25.9015  -34.9497   23.5154 C   0  0  0  0  0  0
  -16.5336  -29.9065   23.6355 C   0  0  0  0  0  0
  -16.7263  -28.6476   23.0391 C   0  0  0  0  0  0
  -26.4429  -31.6638   25.0752 C   0  0  0  0  0  0
  -25.3670  -31.3616   26.1450 C   0  0  0  0  0  0
  -27.0348  -30.3153   24.6060 C   0  0  0  0  0  0
  -27.6003  -32.4356   25.7535 C   0  0  0  0  0  0
  -27.5579  -37.1819   24.8483 C   0  0  0  0  0  0
  -21.4131  -29.2985   22.3803 N   0  0  0  0  0  0
  -26.4303  -37.3824   23.9404 N   0  0  0  0  0  0
  -24.6580  -31.0822   22.1048 N   0  0  0  0  0  0
  -23.4193  -28.8188   23.3106 O   0  0  0  0  0  0
  -28.3862  -26.7065   20.0842 O   0  0  0  0  0  0
  -26.5576  -34.8938   22.4711 O   0  0  0  0  0  0
  -23.5274  -32.1471   23.7542 O   0  0  0  0  0  0
  -29.5578  -24.0875   22.2688 C   0  0  0  0  0  0
  -27.2185  -24.6171   21.9332 C   0  0  0  0  0  0
  -27.8470  -22.4468   22.8890 C   0  0  0  0  0  0
  -28.5684  -25.0012   21.8602 C   0  0  0  0  0  0
  -29.2204  -22.8011   22.7609 C   0  0  0  0  0  0
  -26.8527  -23.3410   22.4168 C   0  0  0  0  0  0
  -30.7031  -20.9602   21.8403 C   0  0  0  0  0  0
  -26.2799  -20.9957   24.4592 C   0  0  0  0  0  0
  -27.6903  -20.7802   24.9275 C   0  0  0  0  0  0
  -30.0301  -17.3953   22.7537 C   0  0  0  0  0  0
  -30.7916  -17.5921   20.3915 C   0  0  0  0  0  0
  -30.7195  -18.7393   23.0773 C   0  0  0  0  0  0
  -31.5041  -18.9065   20.7477 C   0  0  0  0  0  0
  -27.4278  -21.1157   23.4715 C   0  0  0  0  0  0
  -30.7556  -16.6649   21.6171 C   0  0  0  0  0  0
  -22.5757  -22.6655   20.1309 C   0  0  0  0  0  0
  -31.6069  -22.4690   23.6635 C   0  0  0  0  0  0
  -28.9578  -26.3879   21.3585 C   0  0  0  0  0  0
  -23.4450  -22.4811   21.3806 C   0  0  0  0  0  0
  -24.7143  -23.3429   21.3579 C   0  0  0  0  0  0
  -30.3401  -21.7947   23.0985 C   0  0  1  0  0  0
  -30.8640  -19.6049   21.8842 N   0  0  0  0  0  0
  -30.1525  -15.3599   21.3269 N   0  0  0  0  0  0
  -30.8887  -21.5888   20.7912 O   0  0  0  0  0  0
  -25.5404  -22.9289   22.4388 O   0  0  0  0  0  0
  -31.4463  -12.3430   19.1078 H   0  0  0  0  0  0
  -30.2697  -11.2619   19.7950 H   0  0  0  0  0  0
  -29.7063  -11.7906   17.4013 H   0  0  0  0  0  0
  -29.6495  -13.4959   17.7755 H   0  0  0  0  0  0
  -27.8005  -11.3122   18.7968 H   0  0  0  0  0  0
  -27.3475  -12.6539   17.7823 H   0  0  0  0  0  0
  -27.7088  -14.2519   19.5818 H   0  0  0  0  0  0
  -28.6579  -11.9317   21.3273 H   0  0  0  0  0  0
  -28.4606  -13.5659   21.8730 H   0  0  0  0  0  0
  -25.2733   -9.5719   22.4768 H   0  0  0  0  0  0
  -24.0002   -7.4650   22.7482 H   0  0  0  0  0  0
  -21.0851   -8.8728   19.8921 H   0  0  0  0  0  0
  -22.3661  -10.9663   19.6147 H   0  0  0  0  0  0
  -21.2004   -7.6154   23.9715 H   0  0  0  0  0  0
  -21.1477   -6.0534   25.9079 H   0  0  0  0  0  0
  -22.0603   -2.7616   23.2849 H   0  0  0  0  0  0
  -22.4135  -11.9846   22.4718 H   0  0  0  0  0  0
  -21.1121  -13.1227   22.2637 H   0  0  0  0  0  0
  -24.6663  -15.8462   20.5029 H   0  0  0  0  0  0
  -26.2921  -15.6202   20.0975 H   0  0  0  0  0  0
  -26.7063  -32.5625   23.1229 H   0  0  0  0  0  0
  -25.0067  -33.9857   25.0559 H   0  0  0  0  0  0
  -22.6805  -31.3025   21.4210 H   0  0  0  0  0  0
  -23.3764  -35.9604   23.3327 H   0  0  0  0  0  0
  -24.3552  -36.8912   22.2059 H   0  0  0  0  0  0
  -23.7178  -37.6481   23.6664 H   0  0  0  0  0  0
  -26.0065  -31.6106   20.5863 H   0  0  0  0  0  0
  -26.8083  -30.9194   21.9688 H   0  0  0  0  0  0
  -28.0874  -29.1441   21.1851 H   0  0  0  0  0  0
  -26.1066  -25.9872   19.0143 H   0  0  0  0  0  0
  -23.9915  -27.2881   19.0407 H   0  0  0  0  0  0
  -23.6939  -30.5839   19.4083 H   0  0  0  0  0  0
  -22.7321  -29.2189   19.8901 H   0  0  0  0  0  0
  -25.1280  -36.2019   25.0830 H   0  0  0  0  0  0
  -20.9942  -28.3165   24.1501 H   0  0  0  0  0  0
  -20.5730  -26.2201   23.3588 H   0  0  0  0  0  0
  -21.6616  -26.7446   22.1183 H   0  0  0  0  0  0
  -19.6856  -25.6273   21.1263 H   0  0  0  0  0  0
  -19.6648  -27.3179   20.6778 H   0  0  0  0  0  0
  -17.4181  -26.6743   21.4034 H   0  0  0  0  0  0
  -18.0221  -26.0045   22.9013 H   0  0  0  0  0  0
  -19.7915  -30.7273   24.2272 H   0  0  0  0  0  0
  -17.4988  -31.6271   24.5150 H   0  0  0  0  0  0
  -15.5329  -30.2960   23.7671 H   0  0  0  0  0  0
  -15.8666  -28.0784   22.7115 H   0  0  0  0  0  0
  -24.5921  -30.6925   25.7691 H   0  0  0  0  0  0
  -24.8734  -32.2697   26.4928 H   0  0  0  0  0  0
  -25.7975  -30.8745   27.0207 H   0  0  0  0  0  0
  -26.2916  -29.6852   24.1168 H   0  0  0  0  0  0
  -27.4287  -29.7436   25.4471 H   0  0  0  0  0  0
  -27.8639  -30.4620   23.9129 H   0  0  0  0  0  0
  -27.2664  -33.3681   26.2100 H   0  0  0  0  0  0
  -28.3821  -32.6869   25.0353 H   0  0  0  0  0  0
  -28.0662  -31.8484   26.5461 H   0  0  0  0  0  0
  -28.2596  -38.0133   24.7601 H   0  0  0  0  0  0
  -28.1094  -36.2660   24.6279 H   0  0  0  0  0  0
  -27.2278  -37.1423   25.8885 H   0  0  0  0  0  0
  -20.9271  -29.8723   21.7054 H   0  0  0  0  0  0
  -26.0201  -38.2894   24.1462 H   0  0  0  0  0  0
  -30.5923  -24.3853   22.1826 H   0  0  0  0  0  0
  -26.4640  -25.3212   21.6225 H   0  0  0  0  0  0
  -25.7967  -21.9046   24.8122 H   0  0  0  0  0  0
  -25.6389  -20.1194   24.3955 H   0  0  0  0  0  0
  -27.9720  -19.7604   25.1794 H   0  0  0  0  0  0
  -28.1239  -21.5574   25.5549 H   0  0  0  0  0  0
  -28.9874  -17.5759   22.4847 H   0  0  0  0  0  0
  -30.0183  -16.7704   23.6475 H   0  0  0  0  0  0
  -31.3261  -17.1183   19.5664 H   0  0  0  0  0  0
  -29.7825  -17.7999   20.0298 H   0  0  0  0  0  0
  -31.7141  -18.5529   23.4844 H   0  0  0  0  0  0
  -30.1426  -19.1799   23.8832 H   0  0  0  0  0  0
  -31.5582  -19.5103   19.8407 H   0  0  0  0  0  0
  -32.5402  -18.6993   21.0180 H   0  0  0  0  0  0
  -27.5548  -20.3176   22.7414 H   0  0  0  0  0  0
  -31.7819  -16.4804   21.9433 H   0  0  0  0  0  0
  -21.6564  -22.0852   20.2086 H   0  0  0  0  0  0
  -23.0975  -22.3274   19.2349 H   0  0  0  0  0  0
  -22.2993  -23.7100   19.9881 H   0  0  0  0  0  0
  -31.3538  -23.1439   24.4799 H   0  0  0  0  0  0
  -32.1499  -23.0373   22.9074 H   0  0  0  0  0  0
  -32.3022  -21.7296   24.0598 H   0  0  0  0  0  0
  -30.0426  -26.4453   21.2625 H   0  0  0  0  0  0
  -28.6928  -27.1092   22.1326 H   0  0  0  0  0  0
  -23.7232  -21.4293   21.4623 H   0  0  0  0  0  0
  -22.8621  -22.7151   22.2726 H   0  0  0  0  0  0
  -24.4548  -24.3985   21.4487 H   0  0  0  0  0  0
  -25.2380  -23.2100   20.4080 H   0  0  0  0  0  0
  -29.9772  -21.1745   23.9014 H   0  0  0  0  0  0
  -29.2387  -15.1592   21.7069 H   0  0  0  0  0  0
  1 25  1  0  0  0
  1 30  2  0  0  0
  1 93  1  0  0  0
  2  3  1  0  0  0
  2 25  1  0  0  0
  2 96  1  0  0  0
  2 97  1  0  0  0
  3  4  1  0  0  0
  3 98  1  0  0  0
  3 99  1  0  0  0
  4  5  1  0  0  0
  4100  1  0  0  0
  4101  1  0  0  0
  5  6  1  0  0  0
  5 26  1  0  0  0
  5102  1  0  0  0
  6 25  1  0  0  0
  6103  1  0  0  0
  6104  1  0  0  0
  7  8  2  0  0  0
  7 26  1  0  0  0
  7 29  1  0  0  0
  8  9  1  0  0  0
  8 22  1  0  0  0
  9 10  1  0  0  0
  9 27  2  0  0  0
 10 11  2  0  0  0
 10 15  1  0  0  0
 11 12  1  0  0  0
 11105  1  0  0  0
 12 13  2  0  0  0
 12106  1  0  0  0
 13 14  1  0  0  0
 13 31  1  0  0  0
 14 15  2  0  0  0
 14107  1  0  0  0
 15108  1  0  0  0
 16 17  2  0  0  0
 16 21  1  0  0  0
 16 31  1  0  0  0
 17 18  1  0  0  0
 17109  1  0  0  0
 18 19  2  0  0  0
 18110  1  0  0  0
 19 20  1  0  0  0
 19 24  1  0  0  0
 20 21  2  0  0  0
 20111  1  0  0  0
 21 23  1  0  0  0
 22 28  1  0  0  0
 22 32  2  0  0  0
 26 27  1  0  0  0
 28112  1  0  0  0
 28113  1  0  0  0
 29114  1  0  0  0
 29115  1  0  0  0
 33 34  1  0  0  0
 33 66  1  0  0  0
 33 70  2  0  0  0
 34 36  1  0  0  0
 34 59  1  0  0  0
 34116  1  0  0  0
 35 44  2  0  0  0
 35 45  1  0  0  0
 35 68  1  0  0  0
 36 56  1  0  0  0
 36117  1  0  0  0
 37 39  1  0  0  0
 37 47  1  0  0  0
 37 66  1  0  0  0
 37118  1  0  0  0
 38 43  2  0  0  0
 38 46  1  0  0  0
 38 47  1  0  0  0
 39 64  1  0  0  0
 39 67  2  0  0  0
 40 52  1  0  0  0
 40 53  2  0  0  0
 40 58  1  0  0  0
 41119  1  0  0  0
 41120  1  0  0  0
 41121  1  0  0  0
 41 48  1  0  0  0
 42 43  1  0  0  0
 42 66  1  0  0  0
 42122  1  0  0  0
 42123  1  0  0  0
 43 44  1  0  0  0
 44124  1  0  0  0
 45 46  2  0  0  0
 45125  1  0  0  0
 46126  1  0  0  0
 47127  1  0  0  0
 47128  1  0  0  0
 48 56  1  0  0  0
 48 65  1  0  0  0
 48129  1  0  0  0
 49 50  1  0  0  0
 49 53  1  0  0  0
 49 64  1  0  0  0
 49130  1  0  0  0
 50 51  1  0  0  0
 50131  1  0  0  0
 50132  1  0  0  0
 51 52  1  0  0  0
 51133  1  0  0  0
 51134  1  0  0  0
 52135  1  0  0  0
 52136  1  0  0  0
 53 54  1  0  0  0
 54 55  2  0  0  0
 54137  1  0  0  0
 55 57  1  0  0  0
 55138  1  0  0  0
 56 69  2  0  0  0
 57 58  2  0  0  0
 57139  1  0  0  0
 58140  1  0  0  0
 59 60  1  0  0  0
 59 61  1  0  0  0
 59 62  1  0  0  0
 60141  1  0  0  0
 60142  1  0  0  0
 60143  1  0  0  0
 61144  1  0  0  0
 61145  1  0  0  0
 61146  1  0  0  0
 62147  1  0  0  0
 62148  1  0  0  0
 62149  1  0  0  0
 63 65  1  0  0  0
 63150  1  0  0  0
 63151  1  0  0  0
 63152  1  0  0  0
 64153  1  0  0  0
 65154  1  0  0  0
 68 88  1  0  0  0
 71 74  2  0  0  0
 71 75  1  0  0  0
 71155  1  0  0  0
 72 74  1  0  0  0
 72 76  2  0  0  0
 72156  1  0  0  0
 73 75  2  0  0  0
 73 76  1  0  0  0
 73 84  1  0  0  0
 74 88  1  0  0  0
 75 91  1  0  0  0
 76 95  1  0  0  0
 77 91  1  0  0  0
 77 92  1  0  0  0
 77 94  2  0  0  0
 78 79  1  0  0  0
 78 84  1  0  0  0
 78157  1  0  0  0
 78158  1  0  0  0
 79 84  1  0  0  0
 79159  1  0  0  0
 79160  1  0  0  0
 80 82  1  0  0  0
 80 85  1  0  0  0
 80161  1  0  0  0
 80162  1  0  0  0
 81 83  1  0  0  0
 81 85  1  0  0  0
 81163  1  0  0  0
 81164  1  0  0  0
 82 92  1  0  0  0
 82165  1  0  0  0
 82166  1  0  0  0
 83 92  1  0  0  0
 83167  1  0  0  0
 83168  1  0  0  0
 84169  1  0  0  0
 85 93  1  0  0  0
 85170  1  0  0  0
 86 89  1  0  0  0
 86171  1  0  0  0
 86172  1  0  0  0
 86173  1  0  0  0
 87174  1  0  0  0
 87175  1  0  0  0
 87176  1  0  0  0
 87 91  1  0  0  0
 88177  1  0  0  0
 88178  1  0  0  0
 89 90  1  0  0  0
 89179  1  0  0  0
 89180  1  0  0  0
 90 95  1  0  0  0
 90181  1  0  0  0
 90182  1  0  0  0
 91183  1  0  0  0
 93184  1  0  0  0
M  ISO  4   1 100  68 101  88 101  93 100
M  END
> <chiral flag>
0

> <version>
0

> <s_m_source_file>
/data/baiqing/PycharmProjects/Reinvent-master-3.2/result/LINK_invent/BTK/process_docking_weight1_custom_sum_contain_oxygen_bond_distance_aromatic_linkinvent_7_9_3/rearranged_h_0142.sdf

> <i_m_source_file_index>
5

> <r_mmod_Potential_Energy-OPLS-2005>
97.3583068847656

> <r_mmod_Stretch_Energy-OPLS-2005>
42.2092056274414

> <r_mmod_Bend_Energy-OPLS-2005>
108.43620300293

> <r_mmod_Torsional_Energy-OPLS-2005>
331.733428955078

> <r_mmod_Improper_Torsional_Energy-OPLS-2005>
2.77435255050659

> <r_mmod_Van_der_Waal_Energy-OPLS-2005>
167.753662109375

> <r_mmod_Electrostatic_Energy-OPLS-2005>
-334.049011230469

> <r_mmod_Solvation_Energy-OPLS-2005>
-229.831024169922

> <b_mmod_Minimization_Converged-OPLS-2005>
0

> <r_mmod_RMS_Derivative-OPLS-2005>
2.56201338768005

$$$$
5
                    3D
 Structure written by MMmdl.
168178  0  0  1  0            999 V2000
  -30.7229  -14.4886   20.6288 C   0  0  0  0  0  0
  -30.4236  -12.3398   19.4261 C   0  0  0  0  0  0
  -29.4921  -12.5085   18.2084 C   0  0  0  0  0  0
  -28.0180  -12.3304   18.6212 C   0  0  0  0  0  0
  -27.6577  -13.1775   19.8659 C   0  0  2  0  0  0
  -28.7021  -12.9555   20.9912 C   0  0  0  0  0  0
  -25.2595  -13.8092   20.5634 C   0  0  0  0  0  0
  -24.1832  -13.0414   20.9176 C   0  0  0  0  0  0
  -24.6356  -11.6871   20.8754 C   0  0  0  0  0  0
  -23.9022  -10.4273   21.0426 C   0  0  0  0  0  0
  -24.3591   -9.4189   21.9195 C   0  0  0  0  0  0
  -23.6272   -8.2223   22.0756 C   0  0  0  0  0  0
  -22.4253   -8.0267   21.3546 C   0  0  0  0  0  0
  -21.9885   -9.0234   20.4642 C   0  0  0  0  0  0
  -22.7208  -10.2117   20.3056 C   0  0  0  0  0  0
  -21.6837   -6.0730   22.5284 C   0  0  0  0  0  0
  -21.3998   -6.5632   23.8218 C   0  0  0  0  0  0
  -21.3656   -5.6783   24.9179 C   0  0  0  0  0  0
  -21.6048   -4.3048   24.7223 C   0  0  0  0  0  0
  -21.8819   -3.8143   23.4343 C   0  0  0  0  0  0
  -21.9187   -4.6961   22.3402 C   0  0  0  0  0  0
  -22.7863  -13.5243   21.1847 C   0  0  0  0  0  0
  -22.1654   -4.2155   21.0976 F   0  0  0  0  0  0
  -21.5637   -3.4528   25.7735 F   0  0  0  0  0  0
  -30.0235  -13.3215   20.4572 N   0  0  0  0  0  0
  -26.2989  -12.9196   20.3301 N   0  0  0  0  0  0
  -25.9264  -11.6399   20.5767 N   0  0  0  0  0  0
  -22.0486  -12.8247   22.0402 N   0  0  0  0  0  0
  -25.4330  -15.1803   20.3999 N   0  0  0  0  0  0
  -31.8071  -14.6536   20.0569 O   0  0  0  0  0  0
  -21.6619   -6.8866   21.4243 O   0  0  0  0  0  0
  -22.3568  -14.5561   20.6701 O   0  0  0  0  0  0
  -24.6129  -31.8684   23.2094 C   0  0  0  0  0  0
  -25.9030  -32.4824   23.8386 C   0  0  1  0  0  0
  -27.2440  -27.4407   20.0849 C   0  0  0  0  0  0
  -25.5892  -33.8624   24.2319 N   0  0  0  0  0  0
  -23.4007  -30.4912   21.5489 C   0  0  2  0  0  0
  -24.8474  -28.9547   20.1145 C   0  0  0  0  0  0
  -22.7403  -29.4665   22.4987 C   0  0  0  0  0  0
  -18.0274  -28.1379   22.8495 C   0  0  0  0  0  0
  -24.1479  -36.7301   23.2635 C   0  0  0  0  0  0
  -25.9283  -30.8322   21.3635 C   0  0  0  0  0  0
  -26.0044  -29.4657   20.7137 C   0  0  0  0  0  0
  -27.1987  -28.7115   20.7037 C   0  0  0  0  0  0
  -26.0625  -26.9372   19.4906 C   0  0  0  0  0  0
  -24.8706  -27.6881   19.5043 C   0  0  0  0  0  0
  -23.6086  -29.8204   20.1640 C   0  0  0  0  0  0
  -25.4102  -36.3111   24.0342 C   0  0  1  0  0  0
  -20.5865  -28.3665   23.1316 C   0  0  2  0  0  0
  -20.6764  -26.9400   22.5423 C   0  0  0  0  0  0
  -19.5750  -26.6383   21.5215 C   0  0  0  0  0  0
  -18.1919  -26.7933   22.1606 C   0  0  0  0  0  0
  -19.1523  -28.8837   23.2908 C   0  0  0  0  0  0
  -18.9453  -30.1439   23.8924 C   0  0  0  0  0  0
  -17.6459  -30.6587   24.0567 C   0  0  0  0  0  0
  -25.9038  -34.9481   23.5131 C   0  0  0  0  0  0
  -16.5348  -29.9093   23.6326 C   0  0  0  0  0  0
  -16.7262  -28.6504   23.0354 C   0  0  0  0  0  0
  -26.4459  -31.6606   25.0715 C   0  0  0  0  0  0
  -25.3726  -31.3724   26.1468 C   0  0  0  0  0  0
  -27.0273  -30.3047   24.6082 C   0  0  0  0  0  0
  -27.6044  -32.4322   25.7466 C   0  0  0  0  0  0
  -27.5597  -37.1785   24.8448 C   0  0  0  0  0  0
  -21.4134  -29.3031   22.3718 N   0  0  0  0  0  0
  -26.4277  -37.3813   23.9438 N   0  0  0  0  0  0
  -24.6654  -31.0789   22.0991 N   0  0  0  0  0  0
  -23.4179  -28.8215   23.3033 O   0  0  0  0  0  0
  -28.4430  -26.7529   20.1006 O   0  0  0  0  0  0
  -26.5605  -34.8937   22.4694 O   0  0  0  0  0  0
  -23.5325  -32.1439   23.7494 O   0  0  0  0  0  0
  -29.1603  -22.0939   22.5934 C   0  0  0  0  0  0
  -29.7454  -20.3563   20.5636 C   0  0  0  0  0  0
  -29.2967  -20.7257   22.9120 C   0  0  0  0  0  0
  -29.6171  -19.8220   21.8646 C   0  0  0  0  0  0
  -29.2971  -22.5238   21.2665 C   0  0  0  0  0  0
  -27.8788  -19.4617   24.7161 C   0  0  0  0  0  0
  -28.0052  -20.8824   25.2064 C   0  0  0  0  0  0
  -28.8050  -17.4521   21.3113 C   0  0  0  0  0  0
  -31.2048  -17.7629   21.8733 C   0  0  0  0  0  0
  -28.9279  -15.9638   21.6964 C   0  0  0  0  0  0
  -31.2793  -16.2630   22.2651 C   0  0  0  0  0  0
  -29.0893  -20.2850   24.3343 C   0  0  0  0  0  0
  -29.7876  -18.3106   22.1141 C   0  0  0  0  0  0
  -28.2625  -24.2712   19.8828 C   0  0  0  0  0  0
  -28.6465  -25.6240   19.2413 C   0  0  0  0  0  0
  -29.5792  -21.6676   20.2653 N   0  0  0  0  0  0
  -30.2978  -15.4237   21.5383 N   0  0  0  0  0  0
  -29.1705  -23.8860   20.9641 N   0  0  0  0  0  0
  -31.4651  -12.4445   19.1174 H   0  0  0  0  0  0
  -30.3481  -11.3271   19.8255 H   0  0  0  0  0  0
  -29.7525  -11.7859   17.4340 H   0  0  0  0  0  0
  -29.6356  -13.4959   17.7669 H   0  0  0  0  0  0
  -27.8539  -11.2732   18.8341 H   0  0  0  0  0  0
  -27.3588  -12.5785   17.7890 H   0  0  0  0  0  0
  -27.6922  -14.2066   19.5157 H   0  0  0  0  0  0
  -28.7080  -11.9038   21.2813 H   0  0  0  0  0  0
  -28.4483  -13.4729   21.9136 H   0  0  0  0  0  0
  -25.2739   -9.5665   22.4761 H   0  0  0  0  0  0
  -23.9986   -7.4608   22.7468 H   0  0  0  0  0  0
  -21.0823   -8.8744   19.8940 H   0  0  0  0  0  0
  -22.3679  -10.9651   19.6156 H   0  0  0  0  0  0
  -21.1972   -7.6141   23.9726 H   0  0  0  0  0  0
  -21.1480   -6.0507   25.9084 H   0  0  0  0  0  0
  -22.0600   -2.7605   23.2835 H   0  0  0  0  0  0
  -22.4080  -11.9893   22.4781 H   0  0  0  0  0  0
  -21.1111  -13.1287   22.2607 H   0  0  0  0  0  0
  -24.6660  -15.8347   20.5108 H   0  0  0  0  0  0
  -26.2801  -15.6176   20.0618 H   0  0  0  0  0  0
  -26.7096  -32.5531   23.1147 H   0  0  0  0  0  0
  -25.0054  -33.9788   25.0471 H   0  0  0  0  0  0
  -22.6900  -31.3084   21.4088 H   0  0  0  0  0  0
  -23.3782  -35.9587   23.3234 H   0  0  0  0  0  0
  -24.3598  -36.8986   22.2065 H   0  0  0  0  0  0
  -23.7165  -37.6458   23.6690 H   0  0  0  0  0  0
  -26.0414  -31.5969   20.5941 H   0  0  0  0  0  0
  -26.8165  -30.8862   21.9813 H   0  0  0  0  0  0
  -28.0929  -29.1057   21.1668 H   0  0  0  0  0  0
  -26.0374  -25.9665   19.0188 H   0  0  0  0  0  0
  -23.9790  -27.2871   19.0422 H   0  0  0  0  0  0
  -23.7136  -30.5933   19.4018 H   0  0  0  0  0  0
  -22.7334  -29.2376   19.8703 H   0  0  0  0  0  0
  -25.1271  -36.1962   25.0834 H   0  0  0  0  0  0
  -20.9964  -28.3228   24.1433 H   0  0  0  0  0  0
  -20.5657  -26.2275   23.3613 H   0  0  0  0  0  0
  -21.6636  -26.7439   22.1215 H   0  0  0  0  0  0
  -19.6909  -25.6295   21.1236 H   0  0  0  0  0  0
  -19.6702  -27.3201   20.6753 H   0  0  0  0  0  0
  -17.4204  -26.6714   21.3988 H   0  0  0  0  0  0
  -18.0294  -26.0056   22.8977 H   0  0  0  0  0  0
  -19.7933  -30.7241   24.2311 H   0  0  0  0  0  0
  -17.5020  -31.6274   24.5157 H   0  0  0  0  0  0
  -15.5353  -30.3007   23.7641 H   0  0  0  0  0  0
  -15.8660  -28.0830   22.7069 H   0  0  0  0  0  0
  -24.5891  -30.7080   25.7805 H   0  0  0  0  0  0
  -24.8923  -32.2883   26.4923 H   0  0  0  0  0  0
  -25.8073  -30.8882   27.0219 H   0  0  0  0  0  0
  -26.2797  -29.6819   24.1152 H   0  0  0  0  0  0
  -27.4060  -29.7278   25.4526 H   0  0  0  0  0  0
  -27.8631  -30.4362   23.9208 H   0  0  0  0  0  0
  -27.2680  -33.3634   26.2039 H   0  0  0  0  0  0
  -28.3855  -32.6861   25.0288 H   0  0  0  0  0  0
  -28.0704  -31.8444   26.5384 H   0  0  0  0  0  0
  -28.2546  -38.0153   24.7619 H   0  0  0  0  0  0
  -28.1163  -36.2700   24.6102 H   0  0  0  0  0  0
  -27.2345  -37.1217   25.8852 H   0  0  0  0  0  0
  -20.9295  -29.8734   21.6925 H   0  0  0  0  0  0
  -26.0162  -38.2869   24.1530 H   0  0  0  0  0  0
  -28.9347  -22.8048   23.3772 H   0  0  0  0  0  0
  -29.9792  -19.7117   19.7293 H   0  0  0  0  0  0
  -27.1382  -19.2630   23.9433 H   0  0  0  0  0  0
  -28.0203  -18.6666   25.4450 H   0  0  0  0  0  0
  -28.2201  -21.0161   26.2646 H   0  0  0  0  0  0
  -27.3305  -21.6151   24.7689 H   0  0  0  0  0  0
  -27.7836  -17.7863   21.4995 H   0  0  0  0  0  0
  -28.9766  -17.5705   20.2406 H   0  0  0  0  0  0
  -31.4941  -17.8899   20.8288 H   0  0  0  0  0  0
  -31.9254  -18.3284   22.4658 H   0  0  0  0  0  0
  -28.1977  -15.4561   21.0882 H   0  0  0  0  0  0
  -28.6156  -15.8200   22.7313 H   0  0  0  0  0  0
  -31.0823  -16.1566   23.3324 H   0  0  0  0  0  0
  -32.3020  -15.9056   22.1322 H   0  0  0  0  0  0
  -30.0383  -20.0437   24.8102 H   0  0  0  0  0  0
  -29.5729  -18.1130   23.1620 H   0  0  0  0  0  0
  -28.2674  -23.5091   19.1027 H   0  0  0  0  0  0
  -27.2434  -24.3073   20.2688 H   0  0  0  0  0  0
  -28.1292  -25.7599   18.2909 H   0  0  0  0  0  0
  -29.7044  -25.6007   18.9770 H   0  0  0  0  0  0
  -29.0893  -24.4901   21.7748 H   0  0  0  0  0  0
  1 25  1  0  0  0
  1 30  2  0  0  0
  1 87  1  0  0  0
  2  3  1  0  0  0
  2 25  1  0  0  0
  2 89  1  0  0  0
  2 90  1  0  0  0
  3  4  1  0  0  0
  3 91  1  0  0  0
  3 92  1  0  0  0
  4  5  1  0  0  0
  4 93  1  0  0  0
  4 94  1  0  0  0
  5  6  1  0  0  0
  5 26  1  0  0  0
  5 95  1  0  0  0
  6 25  1  0  0  0
  6 96  1  0  0  0
  6 97  1  0  0  0
  7  8  2  0  0  0
  7 26  1  0  0  0
  7 29  1  0  0  0
  8  9  1  0  0  0
  8 22  1  0  0  0
  9 10  1  0  0  0
  9 27  2  0  0  0
 10 11  2  0  0  0
 10 15  1  0  0  0
 11 12  1  0  0  0
 11 98  1  0  0  0
 12 13  2  0  0  0
 12 99  1  0  0  0
 13 14  1  0  0  0
 13 31  1  0  0  0
 14 15  2  0  0  0
 14100  1  0  0  0
 15101  1  0  0  0
 16 17  2  0  0  0
 16 21  1  0  0  0
 16 31  1  0  0  0
 17 18  1  0  0  0
 17102  1  0  0  0
 18 19  2  0  0  0
 18103  1  0  0  0
 19 20  1  0  0  0
 19 24  1  0  0  0
 20 21  2  0  0  0
 20104  1  0  0  0
 21 23  1  0  0  0
 22 28  1  0  0  0
 22 32  2  0  0  0
 26 27  1  0  0  0
 28105  1  0  0  0
 28106  1  0  0  0
 29107  1  0  0  0
 29108  1  0  0  0
 33 34  1  0  0  0
 33 66  1  0  0  0
 33 70  2  0  0  0
 34 36  1  0  0  0
 34 59  1  0  0  0
 34109  1  0  0  0
 35 44  2  0  0  0
 35 45  1  0  0  0
 35 68  1  0  0  0
 36 56  1  0  0  0
 36110  1  0  0  0
 37 39  1  0  0  0
 37 47  1  0  0  0
 37 66  1  0  0  0
 37111  1  0  0  0
 38 43  2  0  0  0
 38 46  1  0  0  0
 38 47  1  0  0  0
 39 64  1  0  0  0
 39 67  2  0  0  0
 40 52  1  0  0  0
 40 53  2  0  0  0
 40 58  1  0  0  0
 41112  1  0  0  0
 41113  1  0  0  0
 41114  1  0  0  0
 41 48  1  0  0  0
 42 43  1  0  0  0
 42 66  1  0  0  0
 42115  1  0  0  0
 42116  1  0  0  0
 43 44  1  0  0  0
 44117  1  0  0  0
 45 46  2  0  0  0
 45118  1  0  0  0
 46119  1  0  0  0
 47120  1  0  0  0
 47121  1  0  0  0
 48 56  1  0  0  0
 48 65  1  0  0  0
 48122  1  0  0  0
 49 50  1  0  0  0
 49 53  1  0  0  0
 49 64  1  0  0  0
 49123  1  0  0  0
 50 51  1  0  0  0
 50124  1  0  0  0
 50125  1  0  0  0
 51 52  1  0  0  0
 51126  1  0  0  0
 51127  1  0  0  0
 52128  1  0  0  0
 52129  1  0  0  0
 53 54  1  0  0  0
 54 55  2  0  0  0
 54130  1  0  0  0
 55 57  1  0  0  0
 55131  1  0  0  0
 56 69  2  0  0  0
 57 58  2  0  0  0
 57132  1  0  0  0
 58133  1  0  0  0
 59 60  1  0  0  0
 59 61  1  0  0  0
 59 62  1  0  0  0
 60134  1  0  0  0
 60135  1  0  0  0
 60136  1  0  0  0
 61137  1  0  0  0
 61138  1  0  0  0
 61139  1  0  0  0
 62140  1  0  0  0
 62141  1  0  0  0
 62142  1  0  0  0
 63 65  1  0  0  0
 63143  1  0  0  0
 63144  1  0  0  0
 63145  1  0  0  0
 64146  1  0  0  0
 65147  1  0  0  0
 68 85  1  0  0  0
 71 73  2  0  0  0
 71 75  1  0  0  0
 71148  1  0  0  0
 72 74  2  0  0  0
 72 86  1  0  0  0
 72149  1  0  0  0
 73 74  1  0  0  0
 73 82  1  0  0  0
 74 83  1  0  0  0
 75 86  2  0  0  0
 75 88  1  0  0  0
 76 77  1  0  0  0
 76 82  1  0  0  0
 76150  1  0  0  0
 76151  1  0  0  0
 77 82  1  0  0  0
 77152  1  0  0  0
 77153  1  0  0  0
 78 80  1  0  0  0
 78 83  1  0  0  0
 78154  1  0  0  0
 78155  1  0  0  0
 79 81  1  0  0  0
 79 83  1  0  0  0
 79156  1  0  0  0
 79157  1  0  0  0
 80 87  1  0  0  0
 80158  1  0  0  0
 80159  1  0  0  0
 81 87  1  0  0  0
 81160  1  0  0  0
 81161  1  0  0  0
 82162  1  0  0  0
 83163  1  0  0  0
 84 85  1  0  0  0
 84 88  1  0  0  0
 84164  1  0  0  0
 84165  1  0  0  0
 85166  1  0  0  0
 85167  1  0  0  0
 88168  1  0  0  0
M  ISO  4   1 100  68 101  85 101  87 100
M  END
> <chiral flag>
0

> <version>
0

> <s_m_source_file>
/data/baiqing/PycharmProjects/Reinvent-master-3.2/result/LINK_invent/BTK/process_docking_weight1_custom_sum_contain_oxygen_bond_distance_aromatic_linkinvent_7_9_3/rearranged_h_0142.sdf

> <i_m_source_file_index>
6

> <r_mmod_Potential_Energy-OPLS-2005>
-56.2639503479004

> <r_mmod_Stretch_Energy-OPLS-2005>
43.6307678222656

> <r_mmod_Bend_Energy-OPLS-2005>
127.017486572266

> <r_mmod_Torsional_Energy-OPLS-2005>
328.1953125

> <r_mmod_Improper_Torsional_Energy-OPLS-2005>
7.52986574172974

> <r_mmod_Van_der_Waal_Energy-OPLS-2005>
170.006271362305

> <r_mmod_Electrostatic_Energy-OPLS-2005>
-518.598327636719

> <r_mmod_Solvation_Energy-OPLS-2005>
-227.349624633789

> <b_mmod_Minimization_Converged-OPLS-2005>
0

> <r_mmod_RMS_Derivative-OPLS-2005>
0.994030654430389

$$$$
6
                    3D
 Structure written by MMmdl.
169178  0  0  1  0            999 V2000
  -30.7942  -14.3319   20.7065 C   0  0  0  0  0  0
  -30.4278  -12.2762   19.3890 C   0  0  0  0  0  0
  -29.4743  -12.4759   18.2010 C   0  0  0  0  0  0
  -28.0044  -12.3314   18.6422 C   0  0  0  0  0  0
  -27.6678  -13.1901   19.8823 C   0  0  2  0  0  0
  -28.7165  -12.9368   20.9882 C   0  0  0  0  0  0
  -25.2590  -13.8125   20.5691 C   0  0  0  0  0  0
  -24.1804  -13.0413   20.9212 C   0  0  0  0  0  0
  -24.6346  -11.6857   20.8817 C   0  0  0  0  0  0
  -23.8964  -10.4274   21.0461 C   0  0  0  0  0  0
  -24.3584   -9.4128   21.9128 C   0  0  0  0  0  0
  -23.6301   -8.2132   22.0661 C   0  0  0  0  0  0
  -22.4218   -8.0211   21.3561 C   0  0  0  0  0  0
  -21.9776   -9.0217   20.4757 C   0  0  0  0  0  0
  -22.7069  -10.2147   20.3226 C   0  0  0  0  0  0
  -21.6832   -6.0647   22.5256 C   0  0  0  0  0  0
  -21.4071   -6.5565   23.8200 C   0  0  0  0  0  0
  -21.3712   -5.6734   24.9165 C   0  0  0  0  0  0
  -21.6107   -4.3004   24.7203 C   0  0  0  0  0  0
  -21.8805   -3.8042   23.4317 C   0  0  0  0  0  0
  -21.9174   -4.6863   22.3366 C   0  0  0  0  0  0
  -22.7840  -13.5310   21.1841 C   0  0  0  0  0  0
  -22.1658   -4.2058   21.0958 F   0  0  0  0  0  0
  -21.5664   -3.4528   25.7729 F   0  0  0  0  0  0
  -30.0526  -13.2283   20.4434 N   0  0  0  0  0  0
  -26.3050  -12.9251   20.3518 N   0  0  0  0  0  0
  -25.9281  -11.6422   20.5940 N   0  0  0  0  0  0
  -22.0300  -12.8495   22.0445 N   0  0  0  0  0  0
  -25.4286  -15.1809   20.4146 N   0  0  0  0  0  0
  -31.7868  -14.6685   20.0518 O   0  0  0  0  0  0
  -21.6616   -6.8773   21.4215 O   0  0  0  0  0  0
  -22.3556  -14.5561   20.6573 O   0  0  0  0  0  0
  -24.6136  -31.8703   23.2155 C   0  0  0  0  0  0
  -25.9026  -32.4836   23.8431 C   0  0  1  0  0  0
  -27.2024  -27.4122   20.0888 C   0  0  0  0  0  0
  -25.5884  -33.8632   24.2357 N   0  0  0  0  0  0
  -23.4022  -30.5035   21.5536 C   0  0  2  0  0  0
  -24.8423  -28.9814   20.1063 C   0  0  0  0  0  0
  -22.7410  -29.4682   22.4937 C   0  0  0  0  0  0
  -18.0273  -28.1380   22.8490 C   0  0  0  0  0  0
  -24.1480  -36.7331   23.2640 C   0  0  0  0  0  0
  -25.9380  -30.8283   21.3737 C   0  0  0  0  0  0
  -26.0090  -29.4663   20.7106 C   0  0  0  0  0  0
  -27.1943  -28.6880   20.7041 C   0  0  0  0  0  0
  -26.0215  -26.9760   19.4398 C   0  0  0  0  0  0
  -24.8426  -27.7349   19.4689 C   0  0  0  0  0  0
  -23.6113  -29.8545   20.1622 C   0  0  0  0  0  0
  -25.4099  -36.3125   24.0338 C   0  0  1  0  0  0
  -20.5872  -28.3676   23.1300 C   0  0  2  0  0  0
  -20.6758  -26.9408   22.5415 C   0  0  0  0  0  0
  -19.5734  -26.6381   21.5210 C   0  0  0  0  0  0
  -18.1919  -26.7921   22.1632 C   0  0  0  0  0  0
  -19.1530  -28.8839   23.2893 C   0  0  0  0  0  0
  -18.9455  -30.1441   23.8912 C   0  0  0  0  0  0
  -17.6462  -30.6591   24.0568 C   0  0  0  0  0  0
  -25.9021  -34.9482   23.5150 C   0  0  0  0  0  0
  -16.5351  -29.9098   23.6326 C   0  0  0  0  0  0
  -16.7261  -28.6512   23.0343 C   0  0  0  0  0  0
  -26.4457  -31.6608   25.0759 C   0  0  0  0  0  0
  -25.3736  -31.3706   26.1521 C   0  0  0  0  0  0
  -27.0286  -30.3046   24.6145 C   0  0  0  0  0  0
  -27.6041  -32.4328   25.7515 C   0  0  0  0  0  0
  -27.5580  -37.1823   24.8467 C   0  0  0  0  0  0
  -21.4131  -29.3054   22.3704 N   0  0  0  0  0  0
  -26.4297  -37.3805   23.9402 N   0  0  0  0  0  0
  -24.6704  -31.0796   22.1067 N   0  0  0  0  0  0
  -23.4202  -28.8174   23.2928 O   0  0  0  0  0  0
  -28.3053  -26.5745   20.1703 O   0  0  0  0  0  0
  -26.5594  -34.8935   22.4717 O   0  0  0  0  0  0
  -23.5327  -32.1448   23.7558 O   0  0  0  0  0  0
  -30.5760  -20.0074   21.4947 C   0  0  0  0  0  0
  -30.1152  -21.3134   21.2023 C   0  0  0  0  0  0
  -28.0907  -20.8450   22.4695 C   0  0  0  0  0  0
  -28.5307  -19.5362   22.7783 C   0  0  0  0  0  0
  -29.8052  -19.1336   22.2982 C   0  0  0  0  0  0
  -28.8680  -21.7448   21.7054 C   0  0  0  0  0  0
  -27.9883  -18.4449   23.5198 C   0  0  0  0  0  0
  -28.9554  -17.4692   23.6328 C   0  0  0  0  0  0
  -25.7486  -17.6136   24.2957 C   0  0  0  0  0  0
  -28.9280  -16.2657   24.5305 C   0  0  0  0  0  0
  -25.8659  -16.2232   23.6708 C   0  0  0  0  0  0
  -31.3444  -17.1840   22.6302 C   0  0  0  0  0  0
  -31.4093  -15.6482   22.7159 C   0  0  0  0  0  0
  -28.9984  -24.1892   20.9023 C   0  0  0  0  0  0
  -27.9261  -25.1963   20.4220 C   0  0  0  0  0  0
  -30.0506  -17.8539   22.8253 N   0  0  0  0  0  0
  -26.7267  -18.5301   24.1757 N   0  0  0  0  0  0
  -28.3243  -23.0239   21.4989 N   0  0  0  0  0  0
  -30.4654  -14.9396   21.8489 N   0  0  0  0  0  0
  -24.7234  -17.8885   24.9204 O   0  0  0  0  0  0
  -31.4699  -12.3777   19.0702 H   0  0  0  0  0  0
  -30.3481  -11.2602   19.7832 H   0  0  0  0  0  0
  -29.6908  -11.7530   17.4126 H   0  0  0  0  0  0
  -29.6447  -13.4627   17.7739 H   0  0  0  0  0  0
  -27.8366  -11.2805   18.8860 H   0  0  0  0  0  0
  -27.3365  -12.5656   17.8125 H   0  0  0  0  0  0
  -27.7339  -14.2387   19.5863 H   0  0  0  0  0  0
  -28.6913  -11.8972   21.3160 H   0  0  0  0  0  0
  -28.4574  -13.5049   21.8795 H   0  0  0  0  0  0
  -25.2784   -9.5504   22.4636 H   0  0  0  0  0  0
  -24.0106   -7.4461   22.7264 H   0  0  0  0  0  0
  -21.0644   -8.8742   19.9153 H   0  0  0  0  0  0
  -22.3423  -10.9741   19.6452 H   0  0  0  0  0  0
  -21.2142   -7.6096   23.9734 H   0  0  0  0  0  0
  -21.1624   -6.0425   25.9102 H   0  0  0  0  0  0
  -22.0568   -2.7488   23.2848 H   0  0  0  0  0  0
  -22.3560  -12.0205   22.5140 H   0  0  0  0  0  0
  -21.0998  -13.1883   22.2362 H   0  0  0  0  0  0
  -24.6821  -15.8290   20.6366 H   0  0  0  0  0  0
  -26.3092  -15.6372   20.2042 H   0  0  0  0  0  0
  -26.7095  -32.5554   23.1187 H   0  0  0  0  0  0
  -24.9998  -33.9802   25.0472 H   0  0  0  0  0  0
  -22.6895  -31.3212   21.4228 H   0  0  0  0  0  0
  -23.3740  -35.9674   23.3328 H   0  0  0  0  0  0
  -24.3568  -36.8923   22.2053 H   0  0  0  0  0  0
  -23.7238  -37.6545   23.6637 H   0  0  0  0  0  0
  -26.0574  -31.5994   20.6108 H   0  0  0  0  0  0
  -26.8240  -30.8759   21.9964 H   0  0  0  0  0  0
  -28.0834  -29.0420   21.2066 H   0  0  0  0  0  0
  -25.9770  -26.0396   18.9077 H   0  0  0  0  0  0
  -23.9431  -27.3663   18.9932 H   0  0  0  0  0  0
  -23.7362  -30.6413   19.4164 H   0  0  0  0  0  0
  -22.7303  -29.2892   19.8508 H   0  0  0  0  0  0
  -25.1275  -36.2008   25.0834 H   0  0  0  0  0  0
  -20.9966  -28.3240   24.1410 H   0  0  0  0  0  0
  -20.5643  -26.2276   23.3600 H   0  0  0  0  0  0
  -21.6623  -26.7422   22.1211 H   0  0  0  0  0  0
  -19.6891  -25.6285   21.1237 H   0  0  0  0  0  0
  -19.6674  -27.3189   20.6741 H   0  0  0  0  0  0
  -17.4171  -26.6645   21.4053 H   0  0  0  0  0  0
  -18.0345  -26.0071   22.9047 H   0  0  0  0  0  0
  -19.7933  -30.7253   24.2284 H   0  0  0  0  0  0
  -17.5021  -31.6271   24.5168 H   0  0  0  0  0  0
  -15.5352  -30.3013   23.7640 H   0  0  0  0  0  0
  -15.8653  -28.0847   22.7042 H   0  0  0  0  0  0
  -24.5890  -30.7070   25.7862 H   0  0  0  0  0  0
  -24.8959  -32.2862   26.5021 H   0  0  0  0  0  0
  -25.8114  -30.8837   27.0242 H   0  0  0  0  0  0
  -26.2825  -29.6806   24.1216 H   0  0  0  0  0  0
  -27.4049  -29.7297   25.4611 H   0  0  0  0  0  0
  -27.8668  -30.4354   23.9303 H   0  0  0  0  0  0
  -27.2649  -33.3603   26.2142 H   0  0  0  0  0  0
  -28.3824  -32.6923   25.0326 H   0  0  0  0  0  0
  -28.0727  -31.8418   26.5394 H   0  0  0  0  0  0
  -28.2617  -38.0108   24.7502 H   0  0  0  0  0  0
  -28.1064  -36.2634   24.6315 H   0  0  0  0  0  0
  -27.2298  -37.1500   25.8877 H   0  0  0  0  0  0
  -20.9260  -29.8856   21.7023 H   0  0  0  0  0  0
  -26.0197  -38.2890   24.1410 H   0  0  0  0  0  0
  -31.5449  -19.6981   21.1303 H   0  0  0  0  0  0
  -30.7342  -21.9754   20.6088 H   0  0  0  0  0  0
  -27.1343  -21.1556   22.8655 H   0  0  0  0  0  0
  -28.1199  -16.3559   25.2559 H   0  0  0  0  0  0
  -29.8281  -16.1951   25.1368 H   0  0  0  0  0  0
  -28.7879  -15.3372   23.9775 H   0  0  0  0  0  0
  -26.2137  -15.5029   24.4101 H   0  0  0  0  0  0
  -26.5356  -16.2101   22.8117 H   0  0  0  0  0  0
  -24.8854  -15.8916   23.3246 H   0  0  0  0  0  0
  -31.7303  -17.4669   21.6527 H   0  0  0  0  0  0
  -32.0377  -17.6012   23.3649 H   0  0  0  0  0  0
  -31.2754  -15.3081   23.7374 H   0  0  0  0  0  0
  -32.4314  -15.3366   22.4856 H   0  0  0  0  0  0
  -29.6324  -24.6526   21.6586 H   0  0  0  0  0  0
  -29.6375  -23.8985   20.0669 H   0  0  0  0  0  0
  -27.1429  -25.2183   21.1860 H   0  0  0  0  0  0
  -27.4762  -24.7542   19.5338 H   0  0  0  0  0  0
  -26.4838  -19.4481   24.5253 H   0  0  0  0  0  0
  -27.4028  -23.2012   21.8929 H   0  0  0  0  0  0
  -29.5968  -14.6390   22.2601 H   0  0  0  0  0  0
  1 25  1  0  0  0
  1 30  2  0  0  0
  1 89  1  0  0  0
  2  3  1  0  0  0
  2 25  1  0  0  0
  2 91  1  0  0  0
  2 92  1  0  0  0
  3  4  1  0  0  0
  3 93  1  0  0  0
  3 94  1  0  0  0
  4  5  1  0  0  0
  4 95  1  0  0  0
  4 96  1  0  0  0
  5  6  1  0  0  0
  5 26  1  0  0  0
  5 97  1  0  0  0
  6 25  1  0  0  0
  6 98  1  0  0  0
  6 99  1  0  0  0
  7  8  2  0  0  0
  7 26  1  0  0  0
  7 29  1  0  0  0
  8  9  1  0  0  0
  8 22  1  0  0  0
  9 10  1  0  0  0
  9 27  2  0  0  0
 10 11  2  0  0  0
 10 15  1  0  0  0
 11 12  1  0  0  0
 11100  1  0  0  0
 12 13  2  0  0  0
 12101  1  0  0  0
 13 14  1  0  0  0
 13 31  1  0  0  0
 14 15  2  0  0  0
 14102  1  0  0  0
 15103  1  0  0  0
 16 17  2  0  0  0
 16 21  1  0  0  0
 16 31  1  0  0  0
 17 18  1  0  0  0
 17104  1  0  0  0
 18 19  2  0  0  0
 18105  1  0  0  0
 19 20  1  0  0  0
 19 24  1  0  0  0
 20 21  2  0  0  0
 20106  1  0  0  0
 21 23  1  0  0  0
 22 28  1  0  0  0
 22 32  2  0  0  0
 26 27  1  0  0  0
 28107  1  0  0  0
 28108  1  0  0  0
 29109  1  0  0  0
 29110  1  0  0  0
 33 34  1  0  0  0
 33 66  1  0  0  0
 33 70  2  0  0  0
 34 36  1  0  0  0
 34 59  1  0  0  0
 34111  1  0  0  0
 35 44  2  0  0  0
 35 45  1  0  0  0
 35 68  1  0  0  0
 36 56  1  0  0  0
 36112  1  0  0  0
 37 39  1  0  0  0
 37 47  1  0  0  0
 37 66  1  0  0  0
 37113  1  0  0  0
 38 43  2  0  0  0
 38 46  1  0  0  0
 38 47  1  0  0  0
 39 64  1  0  0  0
 39 67  2  0  0  0
 40 52  1  0  0  0
 40 53  2  0  0  0
 40 58  1  0  0  0
 41114  1  0  0  0
 41115  1  0  0  0
 41116  1  0  0  0
 41 48  1  0  0  0
 42 43  1  0  0  0
 42 66  1  0  0  0
 42117  1  0  0  0
 42118  1  0  0  0
 43 44  1  0  0  0
 44119  1  0  0  0
 45 46  2  0  0  0
 45120  1  0  0  0
 46121  1  0  0  0
 47122  1  0  0  0
 47123  1  0  0  0
 48 56  1  0  0  0
 48 65  1  0  0  0
 48124  1  0  0  0
 49 50  1  0  0  0
 49 53  1  0  0  0
 49 64  1  0  0  0
 49125  1  0  0  0
 50 51  1  0  0  0
 50126  1  0  0  0
 50127  1  0  0  0
 51 52  1  0  0  0
 51128  1  0  0  0
 51129  1  0  0  0
 52130  1  0  0  0
 52131  1  0  0  0
 53 54  1  0  0  0
 54 55  2  0  0  0
 54132  1  0  0  0
 55 57  1  0  0  0
 55133  1  0  0  0
 56 69  2  0  0  0
 57 58  2  0  0  0
 57134  1  0  0  0
 58135  1  0  0  0
 59 60  1  0  0  0
 59 61  1  0  0  0
 59 62  1  0  0  0
 60136  1  0  0  0
 60137  1  0  0  0
 60138  1  0  0  0
 61139  1  0  0  0
 61140  1  0  0  0
 61141  1  0  0  0
 62142  1  0  0  0
 62143  1  0  0  0
 62144  1  0  0  0
 63 65  1  0  0  0
 63145  1  0  0  0
 63146  1  0  0  0
 63147  1  0  0  0
 64148  1  0  0  0
 65149  1  0  0  0
 68 85  1  0  0  0
 71 72  2  0  0  0
 71 75  1  0  0  0
 71150  1  0  0  0
 72 76  1  0  0  0
 72151  1  0  0  0
 73 74  1  0  0  0
 73 76  2  0  0  0
 73152  1  0  0  0
 74 75  2  0  0  0
 74 77  1  0  0  0
 75 86  1  0  0  0
 76 88  1  0  0  0
 77 78  2  0  0  0
 77 87  1  0  0  0
 78 80  1  0  0  0
 78 86  1  0  0  0
 79 81  1  0  0  0
 79 87  1  0  0  0
 79 90  2  0  0  0
 80153  1  0  0  0
 80154  1  0  0  0
 80155  1  0  0  0
 81156  1  0  0  0
 81157  1  0  0  0
 81158  1  0  0  0
 82 83  1  0  0  0
 82 86  1  0  0  0
 82159  1  0  0  0
 82160  1  0  0  0
 83 89  1  0  0  0
 83161  1  0  0  0
 83162  1  0  0  0
 84 85  1  0  0  0
 84 88  1  0  0  0
 84163  1  0  0  0
 84164  1  0  0  0
 85165  1  0  0  0
 85166  1  0  0  0
 87167  1  0  0  0
 88168  1  0  0  0
 89169  1  0  0  0
M  ISO  4   1 100  68 101  85 101  89 100
M  END
> <chiral flag>
0

> <version>
0

> <s_m_source_file>
/data/baiqing/PycharmProjects/Reinvent-master-3.2/result/LINK_invent/BTK/process_docking_weight1_custom_sum_contain_oxygen_bond_distance_aromatic_linkinvent_7_9_3/rearranged_h_0142.sdf

> <i_m_source_file_index>
7

> <r_mmod_Potential_Energy-OPLS-2005>
-123.555641174316

> <r_mmod_Stretch_Energy-OPLS-2005>
42.2489356994629

> <r_mmod_Bend_Energy-OPLS-2005>
151.711441040039

> <r_mmod_Torsional_Energy-OPLS-2005>
249.302093505859

> <r_mmod_Improper_Torsional_Energy-OPLS-2005>
6.73915529251099

> <r_mmod_Van_der_Waal_Energy-OPLS-2005>
152.549530029297

> <r_mmod_Electrostatic_Energy-OPLS-2005>
-498.745239257812

> <r_mmod_Solvation_Energy-OPLS-2005>
-245.399368286133

> <b_mmod_Minimization_Converged-OPLS-2005>
0

> <r_mmod_RMS_Derivative-OPLS-2005>
7.4203929901123

$$$$
7
                    3D
 Structure written by MMmdl.
172181  0  0  1  0            999 V2000
  -30.6892  -14.4887   20.5644 C   0  0  0  0  0  0
  -30.4261  -12.3112   19.4304 C   0  0  0  0  0  0
  -29.5008  -12.5087   18.2112 C   0  0  0  0  0  0
  -28.0203  -12.3683   18.6195 C   0  0  0  0  0  0
  -27.6632  -13.2086   19.8752 C   0  0  2  0  0  0
  -28.7030  -12.9886   20.9982 C   0  0  0  0  0  0
  -25.2576  -13.8151   20.5641 C   0  0  0  0  0  0
  -24.1840  -13.0434   20.9177 C   0  0  0  0  0  0
  -24.6398  -11.6904   20.8736 C   0  0  0  0  0  0
  -23.9061  -10.4291   21.0401 C   0  0  0  0  0  0
  -24.3614   -9.4211   21.9183 C   0  0  0  0  0  0
  -23.6292   -8.2247   22.0754 C   0  0  0  0  0  0
  -22.4272   -8.0283   21.3548 C   0  0  0  0  0  0
  -21.9906   -9.0253   20.4651 C   0  0  0  0  0  0
  -22.7232  -10.2133   20.3056 C   0  0  0  0  0  0
  -21.6850   -6.0739   22.5279 C   0  0  0  0  0  0
  -21.4012   -6.5639   23.8215 C   0  0  0  0  0  0
  -21.3663   -5.6792   24.9176 C   0  0  0  0  0  0
  -21.6040   -4.3053   24.7224 C   0  0  0  0  0  0
  -21.8818   -3.8149   23.4345 C   0  0  0  0  0  0
  -21.9194   -4.6968   22.3402 C   0  0  0  0  0  0
  -22.7863  -13.5242   21.1834 C   0  0  0  0  0  0
  -22.1666   -4.2154   21.0981 F   0  0  0  0  0  0
  -21.5629   -3.4536   25.7739 F   0  0  0  0  0  0
  -30.0367  -13.2974   20.4524 N   0  0  0  0  0  0
  -26.3030  -12.9335   20.3346 N   0  0  0  0  0  0
  -25.9325  -11.6493   20.5753 N   0  0  0  0  0  0
  -22.0494  -12.8250   22.0398 N   0  0  0  0  0  0
  -25.4241  -15.1859   20.3972 N   0  0  0  0  0  0
  -31.8191  -14.6619   20.0992 O   0  0  0  0  0  0
  -21.6637   -6.8882   21.4243 O   0  0  0  0  0  0
  -22.3552  -14.5549   20.6680 O   0  0  0  0  0  0
  -24.6151  -31.8677   23.2097 C   0  0  0  0  0  0
  -25.9037  -32.4818   23.8405 C   0  0  1  0  0  0
  -27.2370  -27.4270   20.1059 C   0  0  0  0  0  0
  -25.5889  -33.8617   24.2329 N   0  0  0  0  0  0
  -23.4050  -30.4889   21.5498 C   0  0  2  0  0  0
  -24.8545  -28.9487   20.1212 C   0  0  0  0  0  0
  -22.7419  -29.4655   22.4995 C   0  0  0  0  0  0
  -18.0277  -28.1391   22.8497 C   0  0  0  0  0  0
  -24.1486  -36.7322   23.2639 C   0  0  0  0  0  0
  -25.9334  -30.8287   21.3660 C   0  0  0  0  0  0
  -26.0123  -29.4580   20.7239 C   0  0  0  0  0  0
  -27.2090  -28.7027   20.7191 C   0  0  0  0  0  0
  -26.0688  -26.9346   19.4933 C   0  0  0  0  0  0
  -24.8767  -27.6847   19.5058 C   0  0  0  0  0  0
  -23.6163  -29.8171   20.1662 C   0  0  0  0  0  0
  -25.4102  -36.3111   24.0343 C   0  0  1  0  0  0
  -20.5866  -28.3672   23.1326 C   0  0  2  0  0  0
  -20.6763  -26.9407   22.5426 C   0  0  0  0  0  0
  -19.5742  -26.6396   21.5223 C   0  0  0  0  0  0
  -18.1920  -26.7938   22.1632 C   0  0  0  0  0  0
  -19.1526  -28.8851   23.2905 C   0  0  0  0  0  0
  -18.9450  -30.1461   23.8909 C   0  0  0  0  0  0
  -17.6450  -30.6591   24.0578 C   0  0  0  0  0  0
  -25.9031  -34.9474   23.5138 C   0  0  0  0  0  0
  -16.5343  -29.9095   23.6333 C   0  0  0  0  0  0
  -16.7265  -28.6518   23.0344 C   0  0  0  0  0  0
  -26.4465  -31.6598   25.0734 C   0  0  0  0  0  0
  -25.3731  -31.3707   26.1490 C   0  0  0  0  0  0
  -27.0296  -30.3037   24.6112 C   0  0  0  0  0  0
  -27.6056  -32.4313   25.7478 C   0  0  0  0  0  0
  -27.5586  -37.1807   24.8460 C   0  0  0  0  0  0
  -21.4146  -29.3031   22.3727 N   0  0  0  0  0  0
  -26.4288  -37.3792   23.9418 N   0  0  0  0  0  0
  -24.6689  -31.0779   22.0998 N   0  0  0  0  0  0
  -23.4191  -28.8200   23.3041 O   0  0  0  0  0  0
  -28.3830  -26.6654   20.0384 O   0  0  0  0  0  0
  -26.5597  -34.8924   22.4701 O   0  0  0  0  0  0
  -23.5339  -32.1432   23.7479 O   0  0  0  0  0  0
  -28.9171  -19.0986   21.2196 C   0  0  0  0  0  0
  -30.9688  -17.5555   20.1062 C   0  0  0  0  0  0
  -29.8719  -19.7447   20.3991 C   0  0  0  0  0  0
  -28.9785  -17.7064   21.4812 C   0  0  0  0  0  0
  -30.9153  -18.9471   19.8516 C   0  0  0  0  0  0
  -29.9992  -16.9044   20.9078 C   0  0  0  0  0  0
  -28.6213  -21.5939   19.1012 C   0  0  0  0  0  0
  -28.4690  -23.1212   19.2147 C   0  0  0  0  0  0
  -29.7474  -21.2582   20.0754 C   0  0  1  0  0  0
  -29.4788  -22.2720   21.2209 C   0  0  1  0  0  0
  -27.9281  -17.0851   22.3869 C   0  0  0  0  0  0
  -31.9998  -19.5453   18.9685 C   0  0  0  0  0  0
  -31.1103  -21.3441   23.0132 C   0  0  0  0  0  0
  -30.7014  -22.5342   22.1327 C   0  0  0  0  0  0
  -28.2402  -24.5006   21.3074 C   0  0  0  0  0  0
  -28.7493  -25.9695   21.2386 C   0  0  0  0  0  0
  -29.9741  -15.4821   21.1386 N   0  0  0  0  0  0
  -29.0622  -23.5264   20.5168 N   0  3  2  0  0  0
  -31.4714  -12.4078   19.1308 H   0  0  0  0  0  0
  -30.3246  -11.3002   19.8277 H   0  0  0  0  0  0
  -29.7432  -11.7845   17.4326 H   0  0  0  0  0  0
  -29.6713  -13.4945   17.7753 H   0  0  0  0  0  0
  -27.8301  -11.3122   18.8151 H   0  0  0  0  0  0
  -27.3733  -12.6441   17.7856 H   0  0  0  0  0  0
  -27.7076  -14.2565   19.5774 H   0  0  0  0  0  0
  -28.6802  -11.9513   21.3357 H   0  0  0  0  0  0
  -28.4582  -13.5828   21.8795 H   0  0  0  0  0  0
  -25.2756   -9.5689   22.4763 H   0  0  0  0  0  0
  -24.0001   -7.4638   22.7468 H   0  0  0  0  0  0
  -21.0838   -8.8765   19.8959 H   0  0  0  0  0  0
  -22.3680  -10.9672   19.6169 H   0  0  0  0  0  0
  -21.1999   -7.6145   23.9717 H   0  0  0  0  0  0
  -21.1486   -6.0522   25.9079 H   0  0  0  0  0  0
  -22.0594   -2.7612   23.2839 H   0  0  0  0  0  0
  -22.4087  -11.9909   22.4800 H   0  0  0  0  0  0
  -21.1116  -13.1296   22.2588 H   0  0  0  0  0  0
  -24.6499  -15.8334   20.4926 H   0  0  0  0  0  0
  -26.2641  -15.6241   20.0421 H   0  0  0  0  0  0
  -26.7114  -32.5536   23.1178 H   0  0  0  0  0  0
  -25.0020  -33.9777   25.0461 H   0  0  0  0  0  0
  -22.6944  -31.3052   21.4069 H   0  0  0  0  0  0
  -23.3736  -35.9668   23.3304 H   0  0  0  0  0  0
  -24.3581  -36.8931   22.2052 H   0  0  0  0  0  0
  -23.7251  -37.6534   23.6651 H   0  0  0  0  0  0
  -26.0462  -31.5873   20.5904 H   0  0  0  0  0  0
  -26.8212  -30.8880   21.9834 H   0  0  0  0  0  0
  -28.1064  -29.0988   21.1741 H   0  0  0  0  0  0
  -26.0816  -25.9689   19.0078 H   0  0  0  0  0  0
  -23.9880  -27.2880   19.0350 H   0  0  0  0  0  0
  -23.7275  -30.5887   19.4034 H   0  0  0  0  0  0
  -22.7403  -29.2362   19.8714 H   0  0  0  0  0  0
  -25.1271  -36.1979   25.0833 H   0  0  0  0  0  0
  -20.9963  -28.3237   24.1446 H   0  0  0  0  0  0
  -20.5686  -26.2273   23.3609 H   0  0  0  0  0  0
  -21.6634  -26.7463   22.1210 H   0  0  0  0  0  0
  -19.6900  -25.6310   21.1248 H   0  0  0  0  0  0
  -19.6685  -27.3211   20.6755 H   0  0  0  0  0  0
  -17.4196  -26.6703   21.4024 H   0  0  0  0  0  0
  -18.0304  -26.0074   22.9021 H   0  0  0  0  0  0
  -19.7920  -30.7283   24.2275 H   0  0  0  0  0  0
  -17.5002  -31.6269   24.5183 H   0  0  0  0  0  0
  -15.5342  -30.3003   23.7647 H   0  0  0  0  0  0
  -15.8666  -28.0851   22.7037 H   0  0  0  0  0  0
  -24.5890  -30.7068   25.7830 H   0  0  0  0  0  0
  -24.8936  -32.2864   26.4962 H   0  0  0  0  0  0
  -25.8085  -30.8862   27.0237 H   0  0  0  0  0  0
  -26.2841  -29.6795   24.1173 H   0  0  0  0  0  0
  -27.4066  -29.7281   25.4575 H   0  0  0  0  0  0
  -27.8679  -30.4355   23.9265 H   0  0  0  0  0  0
  -27.2695  -33.3603   26.2094 H   0  0  0  0  0  0
  -28.3833  -32.6886   25.0276 H   0  0  0  0  0  0
  -28.0763  -31.8414   26.5350 H   0  0  0  0  0  0
  -28.2597  -38.0109   24.7520 H   0  0  0  0  0  0
  -28.1084  -36.2643   24.6261 H   0  0  0  0  0  0
  -27.2318  -37.1442   25.8865 H   0  0  0  0  0  0
  -20.9313  -29.8748   21.6940 H   0  0  0  0  0  0
  -26.0179  -38.2875   24.1406 H   0  0  0  0  0  0
  -28.1106  -19.6753   21.6492 H   0  0  0  0  0  0
  -31.7715  -16.9945   19.6539 H   0  0  0  0  0  0
  -28.8279  -21.2623   18.0832 H   0  0  0  0  0  0
  -27.6959  -21.1144   19.4224 H   0  0  0  0  0  0
  -27.4217  -23.4071   19.1106 H   0  0  0  0  0  0
  -29.0162  -23.6232   18.4163 H   0  0  0  0  0  0
  -30.6719  -21.5899   19.6054 H   0  0  0  0  0  0
  -28.6332  -21.9278   21.8192 H   0  0  0  0  0  0
  -27.1196  -17.7843   22.6021 H   0  0  0  0  0  0
  -28.3771  -16.7888   23.3353 H   0  0  0  0  0  0
  -27.4841  -16.2025   21.9287 H   0  0  0  0  0  0
  -32.6869  -18.7829   18.5993 H   0  0  0  0  0  0
  -32.5906  -20.2707   19.5288 H   0  0  0  0  0  0
  -31.5651  -20.0388   18.0987 H   0  0  0  0  0  0
  -31.9021  -21.6299   23.7058 H   0  0  0  0  0  0
  -31.4912  -20.5133   22.4199 H   0  0  0  0  0  0
  -30.2704  -20.9782   23.6049 H   0  0  0  0  0  0
  -30.4821  -23.3729   22.7940 H   0  0  0  0  0  0
  -31.5581  -22.8437   21.5326 H   0  0  0  0  0  0
  -27.1818  -24.4472   21.0523 H   0  0  0  0  0  0
  -28.2872  -24.2080   22.3569 H   0  0  0  0  0  0
  -29.8353  -25.9935   21.3356 H   0  0  0  0  0  0
  -28.3728  -26.5137   22.1064 H   0  0  0  0  0  0
  -29.1467  -15.1506   21.6085 H   0  0  0  0  0  0
  -29.9209  -24.0007   20.2747 H   0  0  0  0  0  0
  1 25  1  0  0  0
  1 30  2  0  0  0
  1 87  1  0  0  0
  2  3  1  0  0  0
  2 25  1  0  0  0
  2 89  1  0  0  0
  2 90  1  0  0  0
  3  4  1  0  0  0
  3 91  1  0  0  0
  3 92  1  0  0  0
  4  5  1  0  0  0
  4 93  1  0  0  0
  4 94  1  0  0  0
  5  6  1  0  0  0
  5 26  1  0  0  0
  5 95  1  0  0  0
  6 25  1  0  0  0
  6 96  1  0  0  0
  6 97  1  0  0  0
  7  8  2  0  0  0
  7 26  1  0  0  0
  7 29  1  0  0  0
  8  9  1  0  0  0
  8 22  1  0  0  0
  9 10  1  0  0  0
  9 27  2  0  0  0
 10 11  2  0  0  0
 10 15  1  0  0  0
 11 12  1  0  0  0
 11 98  1  0  0  0
 12 13  2  0  0  0
 12 99  1  0  0  0
 13 14  1  0  0  0
 13 31  1  0  0  0
 14 15  2  0  0  0
 14100  1  0  0  0
 15101  1  0  0  0
 16 17  2  0  0  0
 16 21  1  0  0  0
 16 31  1  0  0  0
 17 18  1  0  0  0
 17102  1  0  0  0
 18 19  2  0  0  0
 18103  1  0  0  0
 19 20  1  0  0  0
 19 24  1  0  0  0
 20 21  2  0  0  0
 20104  1  0  0  0
 21 23  1  0  0  0
 22 28  1  0  0  0
 22 32  2  0  0  0
 26 27  1  0  0  0
 28105  1  0  0  0
 28106  1  0  0  0
 29107  1  0  0  0
 29108  1  0  0  0
 33 34  1  0  0  0
 33 66  1  0  0  0
 33 70  2  0  0  0
 34 36  1  0  0  0
 34 59  1  0  0  0
 34109  1  0  0  0
 35 44  2  0  0  0
 35 45  1  0  0  0
 35 68  1  0  0  0
 36 56  1  0  0  0
 36110  1  0  0  0
 37 39  1  0  0  0
 37 47  1  0  0  0
 37 66  1  0  0  0
 37111  1  0  0  0
 38 43  2  0  0  0
 38 46  1  0  0  0
 38 47  1  0  0  0
 39 64  1  0  0  0
 39 67  2  0  0  0
 40 52  1  0  0  0
 40 53  2  0  0  0
 40 58  1  0  0  0
 41112  1  0  0  0
 41113  1  0  0  0
 41114  1  0  0  0
 41 48  1  0  0  0
 42 43  1  0  0  0
 42 66  1  0  0  0
 42115  1  0  0  0
 42116  1  0  0  0
 43 44  1  0  0  0
 44117  1  0  0  0
 45 46  2  0  0  0
 45118  1  0  0  0
 46119  1  0  0  0
 47120  1  0  0  0
 47121  1  0  0  0
 48 56  1  0  0  0
 48 65  1  0  0  0
 48122  1  0  0  0
 49 50  1  0  0  0
 49 53  1  0  0  0
 49 64  1  0  0  0
 49123  1  0  0  0
 50 51  1  0  0  0
 50124  1  0  0  0
 50125  1  0  0  0
 51 52  1  0  0  0
 51126  1  0  0  0
 51127  1  0  0  0
 52128  1  0  0  0
 52129  1  0  0  0
 53 54  1  0  0  0
 54 55  2  0  0  0
 54130  1  0  0  0
 55 57  1  0  0  0
 55131  1  0  0  0
 56 69  2  0  0  0
 57 58  2  0  0  0
 57132  1  0  0  0
 58133  1  0  0  0
 59 60  1  0  0  0
 59 61  1  0  0  0
 59 62  1  0  0  0
 60134  1  0  0  0
 60135  1  0  0  0
 60136  1  0  0  0
 61137  1  0  0  0
 61138  1  0  0  0
 61139  1  0  0  0
 62140  1  0  0  0
 62141  1  0  0  0
 62142  1  0  0  0
 63 65  1  0  0  0
 63143  1  0  0  0
 63144  1  0  0  0
 63145  1  0  0  0
 64146  1  0  0  0
 65147  1  0  0  0
 68 86  1  0  0  0
 71 73  2  0  0  0
 71 74  1  0  0  0
 71148  1  0  0  0
 72 75  2  0  0  0
 72 76  1  0  0  0
 72149  1  0  0  0
 73 75  1  0  0  0
 73 79  1  0  0  0
 74 76  2  0  0  0
 74 81  1  0  0  0
 75 82  1  0  0  0
 76 87  1  0  0  0
 77 78  1  0  0  0
 77 79  1  0  0  0
 77150  1  0  0  0
 77151  1  0  0  0
 78 88  1  0  0  0
 78152  1  0  0  0
 78153  1  0  0  0
 79 80  1  0  0  0
 79154  1  0  0  0
 80 84  1  0  0  0
 80 88  1  0  0  0
 80155  1  0  0  0
 81156  1  0  0  0
 81157  1  0  0  0
 81158  1  0  0  0
 82159  1  0  0  0
 82160  1  0  0  0
 82161  1  0  0  0
 83 84  1  0  0  0
 83162  1  0  0  0
 83163  1  0  0  0
 83164  1  0  0  0
 84165  1  0  0  0
 84166  1  0  0  0
 85 86  1  0  0  0
 85167  1  0  0  0
 85168  1  0  0  0
 85 88  1  0  0  0
 86169  1  0  0  0
 86170  1  0  0  0
 87171  1  0  0  0
 88172  1  0  0  0
M  CHG  1  88   1
M  ISO  4   1 100  68 101  86 101  87 100
M  END
> <chiral flag>
0

> <version>
0

> <s_m_source_file>
/data/baiqing/PycharmProjects/Reinvent-master-3.2/result/LINK_invent/BTK/process_docking_weight1_custom_sum_contain_oxygen_bond_distance_aromatic_linkinvent_7_9_3/rearranged_h_0142.sdf

> <i_m_source_file_index>
8

> <r_mmod_Potential_Energy-OPLS-2005>
-33.2209167480469

> <r_mmod_Stretch_Energy-OPLS-2005>
44.8870582580566

> <r_mmod_Bend_Energy-OPLS-2005>
136.81721496582

> <r_mmod_Torsional_Energy-OPLS-2005>
312.790405273438

> <r_mmod_Improper_Torsional_Energy-OPLS-2005>
3.64118838310242

> <r_mmod_Van_der_Waal_Energy-OPLS-2005>
141.908447265625

> <r_mmod_Electrostatic_Energy-OPLS-2005>
-277.658721923828

> <r_mmod_Solvation_Energy-OPLS-2005>
-408.693969726562

> <b_mmod_Minimization_Converged-OPLS-2005>
0

> <r_mmod_RMS_Derivative-OPLS-2005>
1.07069075107574

$$$$
8
                    3D
 Structure written by MMmdl.
154163  0  0  1  0            999 V2000
  -30.6514  -14.6840   20.4068 C   0  0  0  0  0  0
  -30.4231  -12.3917   19.4863 C   0  0  0  0  0  0
  -29.5185  -12.4568   18.2372 C   0  0  0  0  0  0
  -28.0344  -12.3304   18.6365 C   0  0  0  0  0  0
  -27.6435  -13.2297   19.8408 C   0  0  2  0  0  0
  -28.6878  -13.1715   20.9780 C   0  0  0  0  0  0
  -25.2554  -13.8191   20.5678 C   0  0  0  0  0  0
  -24.1824  -13.0450   20.9183 C   0  0  0  0  0  0
  -24.6404  -11.6921   20.8730 C   0  0  0  0  0  0
  -23.9072  -10.4304   21.0393 C   0  0  0  0  0  0
  -24.3627   -9.4233   21.9176 C   0  0  0  0  0  0
  -23.6310   -8.2259   22.0746 C   0  0  0  0  0  0
  -22.4289   -8.0278   21.3534 C   0  0  0  0  0  0
  -21.9924   -9.0241   20.4620 C   0  0  0  0  0  0
  -22.7247  -10.2128   20.3034 C   0  0  0  0  0  0
  -21.6857   -6.0731   22.5275 C   0  0  0  0  0  0
  -21.4012   -6.5638   23.8206 C   0  0  0  0  0  0
  -21.3668   -5.6799   24.9176 C   0  0  0  0  0  0
  -21.6054   -4.3058   24.7225 C   0  0  0  0  0  0
  -21.8813   -3.8137   23.4348 C   0  0  0  0  0  0
  -21.9189   -4.6959   22.3402 C   0  0  0  0  0  0
  -22.7851  -13.5248   21.1843 C   0  0  0  0  0  0
  -22.1661   -4.2138   21.0981 F   0  0  0  0  0  0
  -21.5633   -3.4540   25.7735 F   0  0  0  0  0  0
  -29.9974  -13.4775   20.3929 N   0  0  0  0  0  0
  -26.2961  -12.9395   20.3228 N   0  0  0  0  0  0
  -25.9329  -11.6547   20.5707 N   0  0  0  0  0  0
  -22.0499  -12.8227   22.0398 N   0  0  0  0  0  0
  -25.4274  -15.1908   20.4127 N   0  0  0  0  0  0
  -31.8645  -14.7211   20.1922 O   0  0  0  0  0  0
  -21.6657   -6.8866   21.4227 O   0  0  0  0  0  0
  -22.3517  -14.5547   20.6679 O   0  0  0  0  0  0
  -24.6316  -31.8541   23.2002 C   0  0  0  0  0  0
  -25.9157  -32.4733   23.8357 C   0  0  1  0  0  0
  -27.2338  -27.3023   20.1239 C   0  0  0  0  0  0
  -25.5972  -33.8538   24.2299 N   0  0  0  0  0  0
  -23.4283  -30.4758   21.5389 C   0  0  2  0  0  0
  -24.8788  -28.9218   20.1118 C   0  0  0  0  0  0
  -22.7509  -29.4612   22.4906 C   0  0  0  0  0  0
  -18.0288  -28.1405   22.8471 C   0  0  0  0  0  0
  -24.1486  -36.7260   23.2646 C   0  0  0  0  0  0
  -25.9714  -30.7803   21.3727 C   0  0  0  0  0  0
  -26.0472  -29.4058   20.7152 C   0  0  0  0  0  0
  -27.2327  -28.6086   20.7068 C   0  0  0  0  0  0
  -26.0453  -26.8700   19.5015 C   0  0  0  0  0  0
  -24.8799  -27.6611   19.4935 C   0  0  0  0  0  0
  -23.6477  -29.8035   20.1559 C   0  0  0  0  0  0
  -25.4101  -36.3051   24.0351 C   0  0  1  0  0  0
  -20.5897  -28.3712   23.1258 C   0  0  2  0  0  0
  -20.6771  -26.9429   22.5393 C   0  0  0  0  0  0
  -19.5748  -26.6388   21.5206 C   0  0  0  0  0  0
  -18.1926  -26.7952   22.1606 C   0  0  0  0  0  0
  -19.1541  -28.8880   23.2858 C   0  0  0  0  0  0
  -18.9458  -30.1475   23.8885 C   0  0  0  0  0  0
  -17.6459  -30.6595   24.0563 C   0  0  0  0  0  0
  -25.9048  -34.9427   23.5115 C   0  0  0  0  0  0
  -16.5347  -29.9083   23.6345 C   0  0  0  0  0  0
  -16.7273  -28.6503   23.0352 C   0  0  0  0  0  0
  -26.4542  -31.6551   25.0728 C   0  0  0  0  0  0
  -25.3794  -31.3651   26.1459 C   0  0  0  0  0  0
  -27.0401  -30.2975   24.6203 C   0  0  0  0  0  0
  -27.6113  -32.4299   25.7482 C   0  0  0  0  0  0
  -27.5586  -37.1757   24.8456 C   0  0  0  0  0  0
  -21.4219  -29.3047   22.3645 N   0  0  0  0  0  0
  -26.4256  -37.3772   23.9463 N   0  0  0  0  0  0
  -24.6958  -31.0547   22.0936 N   0  0  0  0  0  0
  -23.4205  -28.8170   23.3019 O   0  0  0  0  0  0
  -28.3428  -26.4432   20.1201 O   0  0  0  0  0  0
  -26.5576  -34.8908   22.4646 O   0  0  0  0  0  0
  -23.5466  -32.1339   23.7317 O   0  0  0  0  0  0
  -29.1104  -18.8367   21.2309 C   0  0  0  0  0  0
  -28.7556  -20.1869   21.5418 C   0  0  0  0  0  0
  -29.7893  -19.6441   19.1112 C   0  0  0  0  0  0
  -29.6635  -18.5001   19.9692 C   0  0  0  0  0  0
  -28.9445  -21.2364   20.6091 C   0  0  0  0  0  0
  -29.7814  -16.7558   18.0177 C   0  0  0  0  0  0
  -31.2060  -17.0241   18.4025 C   0  0  0  0  0  0
  -30.1053  -17.0498   19.4761 C   0  0  0  0  0  0
  -28.1755  -25.0934   20.7238 C   0  0  0  0  0  0
  -28.6997  -23.7350   20.0448 C   0  0  0  0  0  0
  -29.4602  -20.9443   19.3973 N   0  0  0  0  0  0
  -29.8835  -15.8341   20.3304 N   0  0  0  0  0  0
  -28.5960  -22.5675   20.9402 O   0  0  0  0  0  0
  -31.4723  -12.4732   19.2002 H   0  0  0  0  0  0
  -30.3246  -11.4228   19.9795 H   0  0  0  0  0  0
  -29.7863  -11.6600   17.5415 H   0  0  0  0  0  0
  -29.6851  -13.3939   17.7043 H   0  0  0  0  0  0
  -27.8561  -11.2837   18.8843 H   0  0  0  0  0  0
  -27.3980  -12.5474   17.7781 H   0  0  0  0  0  0
  -27.6381  -14.2493   19.4581 H   0  0  0  0  0  0
  -28.7022  -12.1883   21.4488 H   0  0  0  0  0  0
  -28.4420  -13.8880   21.7655 H   0  0  0  0  0  0
  -25.2763   -9.5726   22.4768 H   0  0  0  0  0  0
  -24.0017   -7.4661   22.7488 H   0  0  0  0  0  0
  -21.0844   -8.8734   19.8946 H   0  0  0  0  0  0
  -22.3679  -10.9650   19.6136 H   0  0  0  0  0  0
  -21.2002   -7.6145   23.9700 H   0  0  0  0  0  0
  -21.1502   -6.0534   25.9078 H   0  0  0  0  0  0
  -22.0586   -2.7594   23.2850 H   0  0  0  0  0  0
  -22.4117  -11.9894   22.4801 H   0  0  0  0  0  0
  -21.1089  -13.1207   22.2561 H   0  0  0  0  0  0
  -24.6639  -15.8506   20.5176 H   0  0  0  0  0  0
  -26.2840  -15.6273   20.0994 H   0  0  0  0  0  0
  -26.7236  -32.5423   23.1125 H   0  0  0  0  0  0
  -25.0226  -33.9663   25.0519 H   0  0  0  0  0  0
  -22.7271  -31.2978   21.3865 H   0  0  0  0  0  0
  -23.3780  -35.9555   23.3226 H   0  0  0  0  0  0
  -24.3608  -36.8932   22.2073 H   0  0  0  0  0  0
  -23.7178  -37.6418   23.6703 H   0  0  0  0  0  0
  -26.1081  -31.5464   20.6086 H   0  0  0  0  0  0
  -26.8504  -30.8263   22.0038 H   0  0  0  0  0  0
  -28.1363  -28.9775   21.1729 H   0  0  0  0  0  0
  -26.0151  -25.9000   19.0244 H   0  0  0  0  0  0
  -23.9871  -27.2850   19.0146 H   0  0  0  0  0  0
  -23.7781  -30.5750   19.3969 H   0  0  0  0  0  0
  -22.7706  -29.2321   19.8483 H   0  0  0  0  0  0
  -25.1267  -36.1871   25.0837 H   0  0  0  0  0  0
  -20.9972  -28.3268   24.1393 H   0  0  0  0  0  0
  -20.5659  -26.2326   23.3593 H   0  0  0  0  0  0
  -21.6633  -26.7448   22.1187 H   0  0  0  0  0  0
  -19.6896  -25.6292   21.1246 H   0  0  0  0  0  0
  -19.6685  -27.3184   20.6722 H   0  0  0  0  0  0
  -17.4200  -26.6716   21.4005 H   0  0  0  0  0  0
  -18.0308  -26.0095   22.8987 H   0  0  0  0  0  0
  -19.7934  -30.7291   24.2245 H   0  0  0  0  0  0
  -17.5009  -31.6272   24.5165 H   0  0  0  0  0  0
  -15.5346  -30.2973   23.7698 H   0  0  0  0  0  0
  -15.8667  -28.0818   22.7086 H   0  0  0  0  0  0
  -24.6021  -30.6929   25.7802 H   0  0  0  0  0  0
  -24.8928  -32.2777   26.4914 H   0  0  0  0  0  0
  -25.8159  -30.8841   27.0219 H   0  0  0  0  0  0
  -26.2953  -29.6665   24.1328 H   0  0  0  0  0  0
  -27.4190  -29.7301   25.4716 H   0  0  0  0  0  0
  -27.8800  -30.4258   23.9369 H   0  0  0  0  0  0
  -27.2750  -33.3634   26.2015 H   0  0  0  0  0  0
  -28.3938  -32.6781   25.0296 H   0  0  0  0  0  0
  -28.0771  -31.8440   26.5417 H   0  0  0  0  0  0
  -28.2515  -38.0145   24.7632 H   0  0  0  0  0  0
  -28.1169  -36.2680   24.6108 H   0  0  0  0  0  0
  -27.2337  -37.1162   25.8859 H   0  0  0  0  0  0
  -20.9435  -29.8734   21.6800 H   0  0  0  0  0  0
  -26.0121  -38.2821   24.1545 H   0  0  0  0  0  0
  -28.9428  -18.0657   21.9666 H   0  0  0  0  0  0
  -28.3306  -20.4113   22.5111 H   0  0  0  0  0  0
  -30.1700  -19.5340   18.1078 H   0  0  0  0  0  0
  -29.5479  -15.7316   17.7364 H   0  0  0  0  0  0
  -29.2468  -17.5076   17.4397 H   0  0  0  0  0  0
  -31.6482  -17.9622   18.0742 H   0  0  0  0  0  0
  -31.8811  -16.1796   18.2935 H   0  0  0  0  0  0
  -28.7073  -25.1684   21.6727 H   0  0  0  0  0  0
  -27.1348  -24.9373   21.0136 H   0  0  0  0  0  0
  -29.7419  -23.8517   19.7421 H   0  0  0  0  0  0
  -28.1319  -23.5351   19.1351 H   0  0  0  0  0  0
  -28.9175  -15.6742   20.5725 H   0  0  0  0  0  0
  1 25  1  0  0  0
  1 30  2  0  0  0
  1 82  1  0  0  0
  2  3  1  0  0  0
  2 25  1  0  0  0
  2 84  1  0  0  0
  2 85  1  0  0  0
  3  4  1  0  0  0
  3 86  1  0  0  0
  3 87  1  0  0  0
  4  5  1  0  0  0
  4 88  1  0  0  0
  4 89  1  0  0  0
  5  6  1  0  0  0
  5 26  1  0  0  0
  5 90  1  0  0  0
  6 25  1  0  0  0
  6 91  1  0  0  0
  6 92  1  0  0  0
  7  8  2  0  0  0
  7 26  1  0  0  0
  7 29  1  0  0  0
  8  9  1  0  0  0
  8 22  1  0  0  0
  9 10  1  0  0  0
  9 27  2  0  0  0
 10 11  2  0  0  0
 10 15  1  0  0  0
 11 12  1  0  0  0
 11 93  1  0  0  0
 12 13  2  0  0  0
 12 94  1  0  0  0
 13 14  1  0  0  0
 13 31  1  0  0  0
 14 15  2  0  0  0
 14 95  1  0  0  0
 15 96  1  0  0  0
 16 17  2  0  0  0
 16 21  1  0  0  0
 16 31  1  0  0  0
 17 18  1  0  0  0
 17 97  1  0  0  0
 18 19  2  0  0  0
 18 98  1  0  0  0
 19 20  1  0  0  0
 19 24  1  0  0  0
 20 21  2  0  0  0
 20 99  1  0  0  0
 21 23  1  0  0  0
 22 28  1  0  0  0
 22 32  2  0  0  0
 26 27  1  0  0  0
 28100  1  0  0  0
 28101  1  0  0  0
 29102  1  0  0  0
 29103  1  0  0  0
 33 34  1  0  0  0
 33 66  1  0  0  0
 33 70  2  0  0  0
 34 36  1  0  0  0
 34 59  1  0  0  0
 34104  1  0  0  0
 35 44  2  0  0  0
 35 45  1  0  0  0
 35 68  1  0  0  0
 36 56  1  0  0  0
 36105  1  0  0  0
 37 39  1  0  0  0
 37 47  1  0  0  0
 37 66  1  0  0  0
 37106  1  0  0  0
 38 43  2  0  0  0
 38 46  1  0  0  0
 38 47  1  0  0  0
 39 64  1  0  0  0
 39 67  2  0  0  0
 40 52  1  0  0  0
 40 53  2  0  0  0
 40 58  1  0  0  0
 41107  1  0  0  0
 41108  1  0  0  0
 41109  1  0  0  0
 41 48  1  0  0  0
 42 43  1  0  0  0
 42 66  1  0  0  0
 42110  1  0  0  0
 42111  1  0  0  0
 43 44  1  0  0  0
 44112  1  0  0  0
 45 46  2  0  0  0
 45113  1  0  0  0
 46114  1  0  0  0
 47115  1  0  0  0
 47116  1  0  0  0
 48 56  1  0  0  0
 48 65  1  0  0  0
 48117  1  0  0  0
 49 50  1  0  0  0
 49 53  1  0  0  0
 49 64  1  0  0  0
 49118  1  0  0  0
 50 51  1  0  0  0
 50119  1  0  0  0
 50120  1  0  0  0
 51 52  1  0  0  0
 51121  1  0  0  0
 51122  1  0  0  0
 52123  1  0  0  0
 52124  1  0  0  0
 53 54  1  0  0  0
 54 55  2  0  0  0
 54125  1  0  0  0
 55 57  1  0  0  0
 55126  1  0  0  0
 56 69  2  0  0  0
 57 58  2  0  0  0
 57127  1  0  0  0
 58128  1  0  0  0
 59 60  1  0  0  0
 59 61  1  0  0  0
 59 62  1  0  0  0
 60129  1  0  0  0
 60130  1  0  0  0
 60131  1  0  0  0
 61132  1  0  0  0
 61133  1  0  0  0
 61134  1  0  0  0
 62135  1  0  0  0
 62136  1  0  0  0
 62137  1  0  0  0
 63 65  1  0  0  0
 63138  1  0  0  0
 63139  1  0  0  0
 63140  1  0  0  0
 64141  1  0  0  0
 65142  1  0  0  0
 68 79  1  0  0  0
 71 72  2  0  0  0
 71 74  1  0  0  0
 71143  1  0  0  0
 72 75  1  0  0  0
 72144  1  0  0  0
 73 74  2  0  0  0
 73 81  1  0  0  0
 73145  1  0  0  0
 74 78  1  0  0  0
 75 81  2  0  0  0
 75 83  1  0  0  0
 76 77  1  0  0  0
 76 78  1  0  0  0
 76146  1  0  0  0
 76147  1  0  0  0
 77 78  1  0  0  0
 77148  1  0  0  0
 77149  1  0  0  0
 78 82  1  0  0  0
 79 80  1  0  0  0
 79150  1  0  0  0
 79151  1  0  0  0
 80 83  1  0  0  0
 80152  1  0  0  0
 80153  1  0  0  0
 82154  1  0  0  0
M  ISO  4   1 100  68 101  79 101  82 100
M  END
> <chiral flag>
0

> <version>
0

> <s_m_source_file>
/data/baiqing/PycharmProjects/Reinvent-master-3.2/result/LINK_invent/BTK/process_docking_weight1_custom_sum_contain_oxygen_bond_distance_aromatic_linkinvent_7_9_3/rearranged_h_0142.sdf

> <i_m_source_file_index>
9

> <r_mmod_Potential_Energy-OPLS-2005>
84.6954345703125

> <r_mmod_Stretch_Energy-OPLS-2005>
100.32194519043

> <r_mmod_Bend_Energy-OPLS-2005>
168.797927856445

> <r_mmod_Torsional_Energy-OPLS-2005>
298.859558105469

> <r_mmod_Improper_Torsional_Energy-OPLS-2005>
10.0174961090088

> <r_mmod_Van_der_Waal_Energy-OPLS-2005>
146.536636352539

> <r_mmod_Electrostatic_Energy-OPLS-2005>
-488.986114501953

> <r_mmod_Solvation_Energy-OPLS-2005>
-217.587387084961

> <b_mmod_Minimization_Converged-OPLS-2005>
0

> <r_mmod_RMS_Derivative-OPLS-2005>
3.45890378952026

$$$$
9
                    3D
 Structure written by MMmdl.
153162  0  0  1  0            999 V2000
  -30.5834  -14.6570   20.4493 C   0  0  0  0  0  0
  -30.4488  -12.3903   19.4478 C   0  0  0  0  0  0
  -29.5109  -12.5001   18.2224 C   0  0  0  0  0  0
  -28.0329  -12.3298   18.6331 C   0  0  0  0  0  0
  -27.6529  -13.1950   19.8622 C   0  0  2  0  0  0
  -28.7045  -13.0602   20.9849 C   0  0  0  0  0  0
  -25.2590  -13.8098   20.5693 C   0  0  0  0  0  0
  -24.1830  -13.0398   20.9181 C   0  0  0  0  0  0
  -24.6374  -11.6866   20.8738 C   0  0  0  0  0  0
  -23.9036  -10.4269   21.0413 C   0  0  0  0  0  0
  -24.3597   -9.4190   21.9191 C   0  0  0  0  0  0
  -23.6280   -8.2225   22.0758 C   0  0  0  0  0  0
  -22.4265   -8.0264   21.3544 C   0  0  0  0  0  0
  -21.9891   -9.0237   20.4650 C   0  0  0  0  0  0
  -22.7210  -10.2120   20.3061 C   0  0  0  0  0  0
  -21.6851   -6.0724   22.5279 C   0  0  0  0  0  0
  -21.4009   -6.5634   23.8208 C   0  0  0  0  0  0
  -21.3656   -5.6790   24.9174 C   0  0  0  0  0  0
  -21.6040   -4.3052   24.7226 C   0  0  0  0  0  0
  -21.8824   -3.8142   23.4350 C   0  0  0  0  0  0
  -21.9194   -4.6955   22.3403 C   0  0  0  0  0  0
  -22.7862  -13.5221   21.1846 C   0  0  0  0  0  0
  -22.1664   -4.2141   21.0980 F   0  0  0  0  0  0
  -21.5631   -3.4536   25.7740 F   0  0  0  0  0  0
  -30.0205  -13.4071   20.4272 N   0  0  0  0  0  0
  -26.2996  -12.9231   20.3333 N   0  0  0  0  0  0
  -25.9301  -11.6412   20.5765 N   0  0  0  0  0  0
  -22.0495  -12.8230   22.0410 N   0  0  0  0  0  0
  -25.4305  -15.1821   20.4149 N   0  0  0  0  0  0
  -31.7707  -14.8168   20.1432 O   0  0  0  0  0  0
  -21.6631   -6.8865   21.4240 O   0  0  0  0  0  0
  -22.3566  -14.5533   20.6694 O   0  0  0  0  0  0
  -24.6247  -31.8599   23.2002 C   0  0  0  0  0  0
  -25.9093  -32.4786   23.8340 C   0  0  1  0  0  0
  -27.2410  -27.3434   20.1219 C   0  0  0  0  0  0
  -25.5904  -33.8583   24.2266 N   0  0  0  0  0  0
  -23.4192  -30.4805   21.5414 C   0  0  2  0  0  0
  -24.8688  -28.9278   20.1177 C   0  0  0  0  0  0
  -22.7468  -29.4637   22.4939 C   0  0  0  0  0  0
  -18.0287  -28.1406   22.8497 C   0  0  0  0  0  0
  -24.1484  -36.7291   23.2644 C   0  0  0  0  0  0
  -25.9562  -30.7984   21.3663 C   0  0  0  0  0  0
  -26.0346  -29.4244   20.7150 C   0  0  0  0  0  0
  -27.2253  -28.6449   20.7027 C   0  0  0  0  0  0
  -26.0542  -26.8831   19.5122 C   0  0  0  0  0  0
  -24.8779  -27.6607   19.5088 C   0  0  0  0  0  0
  -23.6344  -29.8054   20.1600 C   0  0  0  0  0  0
  -25.4112  -36.3086   24.0331 C   0  0  1  0  0  0
  -20.5887  -28.3701   23.1288 C   0  0  2  0  0  0
  -20.6773  -26.9424   22.5417 C   0  0  0  0  0  0
  -19.5744  -26.6402   21.5223 C   0  0  0  0  0  0
  -18.1925  -26.7948   22.1635 C   0  0  0  0  0  0
  -19.1542  -28.8871   23.2888 C   0  0  0  0  0  0
  -18.9468  -30.1472   23.8908 C   0  0  0  0  0  0
  -17.6467  -30.6605   24.0575 C   0  0  0  0  0  0
  -25.9048  -34.9457   23.5104 C   0  0  0  0  0  0
  -16.5356  -29.9107   23.6338 C   0  0  0  0  0  0
  -16.7274  -28.6527   23.0355 C   0  0  0  0  0  0
  -26.4476  -31.6601   25.0711 C   0  0  0  0  0  0
  -25.3725  -31.3739   26.1450 C   0  0  0  0  0  0
  -27.0304  -30.3026   24.6151 C   0  0  0  0  0  0
  -27.6024  -32.4350   25.7487 C   0  0  0  0  0  0
  -27.5571  -37.1806   24.8471 C   0  0  0  0  0  0
  -21.4186  -29.3049   22.3674 N   0  0  0  0  0  0
  -26.4285  -37.3781   23.9410 N   0  0  0  0  0  0
  -24.6850  -31.0638   22.0929 N   0  0  0  0  0  0
  -23.4196  -28.8194   23.3028 O   0  0  0  0  0  0
  -28.3845  -26.5403   20.1071 O   0  0  0  0  0  0
  -26.5622  -34.8925   22.4672 O   0  0  0  0  0  0
  -23.5410  -32.1371   23.7345 O   0  0  0  0  0  0
  -30.4263  -18.3851   21.6757 C   0  0  0  0  0  0
  -30.2228  -19.7599   21.2906 C   0  0  0  0  0  0
  -29.2962  -19.1359   19.0966 C   0  0  0  0  0  0
  -30.1325  -17.3956   20.7151 C   0  0  0  0  0  0
  -29.5418  -17.8006   19.4769 C   0  0  0  0  0  0
  -29.6655  -20.1615   20.0220 C   0  0  0  0  0  0
  -29.0409  -16.4097   19.1836 C   0  0  0  0  0  0
  -29.6336  -15.9232   20.6082 C   0  0  1  0  0  0
  -28.9793  -23.9928   19.8276 C   0  0  0  0  0  0
  -28.2842  -25.1670   20.6340 C   0  0  0  0  0  0
  -29.1158  -22.5716   20.5329 C   0  0  0  0  0  0
  -29.4518  -21.4910   19.6129 O   0  0  0  0  0  0
  -31.4877  -12.5252   19.1418 H   0  0  0  0  0  0
  -30.3936  -11.3931   19.8868 H   0  0  0  0  0  0
  -29.7785  -11.7503   17.4768 H   0  0  0  0  0  0
  -29.6465  -13.4694   17.7399 H   0  0  0  0  0  0
  -27.8721  -11.2756   18.8613 H   0  0  0  0  0  0
  -27.3774  -12.5596   17.7921 H   0  0  0  0  0  0
  -27.6564  -14.2198   19.5124 H   0  0  0  0  0  0
  -28.7230  -12.0386   21.3657 H   0  0  0  0  0  0
  -28.4527  -13.6838   21.8424 H   0  0  0  0  0  0
  -25.2747   -9.5669   22.4759 H   0  0  0  0  0  0
  -23.9989   -7.4620   22.7479 H   0  0  0  0  0  0
  -21.0819   -8.8753   19.8964 H   0  0  0  0  0  0
  -22.3667  -10.9661   19.6169 H   0  0  0  0  0  0
  -21.2000   -7.6144   23.9705 H   0  0  0  0  0  0
  -21.1473   -6.0523   25.9072 H   0  0  0  0  0  0
  -22.0611   -2.7606   23.2851 H   0  0  0  0  0  0
  -22.4096  -11.9885   22.4795 H   0  0  0  0  0  0
  -21.1121  -13.1283   22.2620 H   0  0  0  0  0  0
  -24.6628  -15.8336   20.5351 H   0  0  0  0  0  0
  -26.2866  -15.6325   20.1227 H   0  0  0  0  0  0
  -26.7167  -32.5467   23.1100 H   0  0  0  0  0  0
  -25.0044  -33.9724   25.0404 H   0  0  0  0  0  0
  -22.7127  -31.2994   21.3936 H   0  0  0  0  0  0
  -23.3739  -35.9631   23.3330 H   0  0  0  0  0  0
  -24.3565  -36.8886   22.2052 H   0  0  0  0  0  0
  -23.7246  -37.6504   23.6647 H   0  0  0  0  0  0
  -26.0815  -31.5594   20.5946 H   0  0  0  0  0  0
  -26.8393  -30.8528   21.9914 H   0  0  0  0  0  0
  -28.1254  -29.0273   21.1628 H   0  0  0  0  0  0
  -26.0353  -25.9127   19.0364 H   0  0  0  0  0  0
  -23.9840  -27.2726   19.0405 H   0  0  0  0  0  0
  -23.7523  -30.5746   19.3955 H   0  0  0  0  0  0
  -22.7570  -29.2291   19.8619 H   0  0  0  0  0  0
  -25.1298  -36.1932   25.0824 H   0  0  0  0  0  0
  -20.9986  -28.3282   24.1406 H   0  0  0  0  0  0
  -20.5680  -26.2317   23.3619 H   0  0  0  0  0  0
  -21.6639  -26.7456   22.1204 H   0  0  0  0  0  0
  -19.6893  -25.6315   21.1249 H   0  0  0  0  0  0
  -19.6674  -27.3219   20.6757 H   0  0  0  0  0  0
  -17.4191  -26.6705   21.4037 H   0  0  0  0  0  0
  -18.0313  -26.0097   22.9042 H   0  0  0  0  0  0
  -19.7941  -30.7293   24.2268 H   0  0  0  0  0  0
  -17.5022  -31.6278   24.5188 H   0  0  0  0  0  0
  -15.5358  -30.3014   23.7657 H   0  0  0  0  0  0
  -15.8673  -28.0851   22.7054 H   0  0  0  0  0  0
  -24.5892  -30.7089   25.7795 H   0  0  0  0  0  0
  -24.8920  -32.2903   26.4883 H   0  0  0  0  0  0
  -25.8068  -30.8921   27.0218 H   0  0  0  0  0  0
  -26.2860  -29.6801   24.1169 H   0  0  0  0  0  0
  -27.3993  -29.7264   25.4644 H   0  0  0  0  0  0
  -27.8739  -30.4313   23.9366 H   0  0  0  0  0  0
  -27.2606  -33.3644   26.2055 H   0  0  0  0  0  0
  -28.3834  -32.6930   25.0325 H   0  0  0  0  0  0
  -28.0688  -31.8491   26.5411 H   0  0  0  0  0  0
  -28.2616  -38.0077   24.7493 H   0  0  0  0  0  0
  -28.1041  -36.2608   24.6335 H   0  0  0  0  0  0
  -27.2284  -37.1504   25.8875 H   0  0  0  0  0  0
  -20.9364  -29.8758   21.6871 H   0  0  0  0  0  0
  -26.0167  -38.2860   24.1402 H   0  0  0  0  0  0
  -30.7283  -18.1251   22.6808 H   0  0  0  0  0  0
  -30.4727  -20.5230   22.0142 H   0  0  0  0  0  0
  -28.7826  -19.3722   18.1748 H   0  0  0  0  0  0
  -29.5233  -15.9698   18.3096 H   0  0  0  0  0  0
  -27.9539  -16.3895   19.1097 H   0  0  0  0  0  0
  -28.8518  -15.7774   21.3515 H   0  0  0  0  0  0
  -29.9781  -24.3194   19.5377 H   0  0  0  0  0  0
  -28.4312  -23.8607   18.8942 H   0  0  0  0  0  0
  -28.7377  -25.1972   21.6253 H   0  0  0  0  0  0
  -27.2448  -24.8893   20.8110 H   0  0  0  0  0  0
  -28.1705  -22.3139   21.0123 H   0  0  0  0  0  0
  -29.8635  -22.6358   21.3238 H   0  0  0  0  0  0
  1 25  1  0  0  0
  1 30  2  0  0  0
  1 78  1  0  0  0
  2  3  1  0  0  0
  2 25  1  0  0  0
  2 83  1  0  0  0
  2 84  1  0  0  0
  3  4  1  0  0  0
  3 85  1  0  0  0
  3 86  1  0  0  0
  4  5  1  0  0  0
  4 87  1  0  0  0
  4 88  1  0  0  0
  5  6  1  0  0  0
  5 26  1  0  0  0
  5 89  1  0  0  0
  6 25  1  0  0  0
  6 90  1  0  0  0
  6 91  1  0  0  0
  7  8  2  0  0  0
  7 26  1  0  0  0
  7 29  1  0  0  0
  8  9  1  0  0  0
  8 22  1  0  0  0
  9 10  1  0  0  0
  9 27  2  0  0  0
 10 11  2  0  0  0
 10 15  1  0  0  0
 11 12  1  0  0  0
 11 92  1  0  0  0
 12 13  2  0  0  0
 12 93  1  0  0  0
 13 14  1  0  0  0
 13 31  1  0  0  0
 14 15  2  0  0  0
 14 94  1  0  0  0
 15 95  1  0  0  0
 16 17  2  0  0  0
 16 21  1  0  0  0
 16 31  1  0  0  0
 17 18  1  0  0  0
 17 96  1  0  0  0
 18 19  2  0  0  0
 18 97  1  0  0  0
 19 20  1  0  0  0
 19 24  1  0  0  0
 20 21  2  0  0  0
 20 98  1  0  0  0
 21 23  1  0  0  0
 22 28  1  0  0  0
 22 32  2  0  0  0
 26 27  1  0  0  0
 28 99  1  0  0  0
 28100  1  0  0  0
 29101  1  0  0  0
 29102  1  0  0  0
 33 34  1  0  0  0
 33 66  1  0  0  0
 33 70  2  0  0  0
 34 36  1  0  0  0
 34 59  1  0  0  0
 34103  1  0  0  0
 35 44  2  0  0  0
 35 45  1  0  0  0
 35 68  1  0  0  0
 36 56  1  0  0  0
 36104  1  0  0  0
 37 39  1  0  0  0
 37 47  1  0  0  0
 37 66  1  0  0  0
 37105  1  0  0  0
 38 43  2  0  0  0
 38 46  1  0  0  0
 38 47  1  0  0  0
 39 64  1  0  0  0
 39 67  2  0  0  0
 40 52  1  0  0  0
 40 53  2  0  0  0
 40 58  1  0  0  0
 41106  1  0  0  0
 41107  1  0  0  0
 41108  1  0  0  0
 41 48  1  0  0  0
 42 43  1  0  0  0
 42 66  1  0  0  0
 42109  1  0  0  0
 42110  1  0  0  0
 43 44  1  0  0  0
 44111  1  0  0  0
 45 46  2  0  0  0
 45112  1  0  0  0
 46113  1  0  0  0
 47114  1  0  0  0
 47115  1  0  0  0
 48 56  1  0  0  0
 48 65  1  0  0  0
 48116  1  0  0  0
 49 50  1  0  0  0
 49 53  1  0  0  0
 49 64  1  0  0  0
 49117  1  0  0  0
 50 51  1  0  0  0
 50118  1  0  0  0
 50119  1  0  0  0
 51 52  1  0  0  0
 51120  1  0  0  0
 51121  1  0  0  0
 52122  1  0  0  0
 52123  1  0  0  0
 53 54  1  0  0  0
 54 55  2  0  0  0
 54124  1  0  0  0
 55 57  1  0  0  0
 55125  1  0  0  0
 56 69  2  0  0  0
 57 58  2  0  0  0
 57126  1  0  0  0
 58127  1  0  0  0
 59 60  1  0  0  0
 59 61  1  0  0  0
 59 62  1  0  0  0
 60128  1  0  0  0
 60129  1  0  0  0
 60130  1  0  0  0
 61131  1  0  0  0
 61132  1  0  0  0
 61133  1  0  0  0
 62134  1  0  0  0
 62135  1  0  0  0
 62136  1  0  0  0
 63 65  1  0  0  0
 63137  1  0  0  0
 63138  1  0  0  0
 63139  1  0  0  0
 64140  1  0  0  0
 65141  1  0  0  0
 68 80  1  0  0  0
 71 72  2  0  0  0
 71 74  1  0  0  0
 71142  1  0  0  0
 72 76  1  0  0  0
 72143  1  0  0  0
 73 75  1  0  0  0
 73 76  2  0  0  0
 73144  1  0  0  0
 74 75  2  0  0  0
 74 78  1  0  0  0
 75 77  1  0  0  0
 76 82  1  0  0  0
 77 78  1  0  0  0
 77145  1  0  0  0
 77146  1  0  0  0
 78147  1  0  0  0
 79 80  1  0  0  0
 79 81  1  0  0  0
 79148  1  0  0  0
 79149  1  0  0  0
 80150  1  0  0  0
 80151  1  0  0  0
 81 82  1  0  0  0
 81152  1  0  0  0
 81153  1  0  0  0
M  ISO  4   1 100  68 101  78 100  80 101
M  END
> <chiral flag>
0

> <version>
0

> <s_m_source_file>
/data/baiqing/PycharmProjects/Reinvent-master-3.2/result/LINK_invent/BTK/process_docking_weight1_custom_sum_contain_oxygen_bond_distance_aromatic_linkinvent_7_9_3/rearranged_h_0142.sdf

> <i_m_source_file_index>
10

> <r_mmod_Potential_Energy-OPLS-2005>
503.057647705078

> <r_mmod_Stretch_Energy-OPLS-2005>
89.8846206665039

> <r_mmod_Bend_Energy-OPLS-2005>
476.945220947266

> <r_mmod_Torsional_Energy-OPLS-2005>
246.151000976562

> <r_mmod_Improper_Torsional_Energy-OPLS-2005>
18.5725841522217

> <r_mmod_Van_der_Waal_Energy-OPLS-2005>
132.04150390625

> <r_mmod_Electrostatic_Energy-OPLS-2005>
-298.120574951172

> <r_mmod_Solvation_Energy-OPLS-2005>
-208.817413330078

> <b_mmod_Minimization_Converged-OPLS-2005>
0

> <r_mmod_RMS_Derivative-OPLS-2005>
1.20978713035583

$$$$
10
                    3D
 Structure written by MMmdl.
168178  0  0  1  0            999 V2000
  -30.7276  -14.4299   20.5843 C   0  0  0  0  0  0
  -30.4150  -12.2885   19.4051 C   0  0  0  0  0  0
  -29.4881  -12.5232   18.1959 C   0  0  0  0  0  0
  -28.0100  -12.3667   18.6076 C   0  0  0  0  0  0
  -27.6571  -13.1887   19.8753 C   0  0  2  0  0  0
  -28.7048  -12.9792   20.9943 C   0  0  0  0  0  0
  -25.2599  -13.8101   20.5687 C   0  0  0  0  0  0
  -24.1826  -13.0413   20.9194 C   0  0  0  0  0  0
  -24.6358  -11.6878   20.8754 C   0  0  0  0  0  0
  -23.9034  -10.4277   21.0429 C   0  0  0  0  0  0
  -24.3604   -9.4205   21.9207 C   0  0  0  0  0  0
  -23.6279   -8.2242   22.0771 C   0  0  0  0  0  0
  -22.4264   -8.0271   21.3570 C   0  0  0  0  0  0
  -21.9891   -9.0237   20.4663 C   0  0  0  0  0  0
  -22.7207  -10.2118   20.3065 C   0  0  0  0  0  0
  -21.6853   -6.0728   22.5294 C   0  0  0  0  0  0
  -21.3996   -6.5641   23.8219 C   0  0  0  0  0  0
  -21.3637   -5.6793   24.9178 C   0  0  0  0  0  0
  -21.6043   -4.3056   24.7234 C   0  0  0  0  0  0
  -21.8817   -3.8136   23.4360 C   0  0  0  0  0  0
  -21.9194   -4.6957   22.3428 C   0  0  0  0  0  0
  -22.7851  -13.5250   21.1863 C   0  0  0  0  0  0
  -22.1665   -4.2140   21.1008 F   0  0  0  0  0  0
  -21.5644   -3.4535   25.7750 F   0  0  0  0  0  0
  -30.0403  -13.2654   20.4371 N   0  0  0  0  0  0
  -26.2998  -12.9215   20.3389 N   0  0  0  0  0  0
  -25.9282  -11.6413   20.5788 N   0  0  0  0  0  0
  -22.0471  -12.8256   22.0391 N   0  0  0  0  0  0
  -25.4377  -15.1800   20.4062 N   0  0  0  0  0  0
  -31.8640  -14.6132   20.1370 O   0  0  0  0  0  0
  -21.6645   -6.8859   21.4251 O   0  0  0  0  0  0
  -22.3562  -14.5594   20.6749 O   0  0  0  0  0  0
  -24.6140  -31.8695   23.2124 C   0  0  0  0  0  0
  -25.9047  -32.4820   23.8398 C   0  0  1  0  0  0
  -27.2206  -27.4414   20.0784 C   0  0  0  0  0  0
  -25.5928  -33.8621   24.2339 N   0  0  0  0  0  0
  -23.3992  -30.4982   21.5532 C   0  0  2  0  0  0
  -24.8390  -28.9709   20.1129 C   0  0  0  0  0  0
  -22.7411  -29.4675   22.4988 C   0  0  0  0  0  0
  -18.0273  -28.1360   22.8490 C   0  0  0  0  0  0
  -24.1476  -36.7280   23.2633 C   0  0  0  0  0  0
  -25.9306  -30.8346   21.3659 C   0  0  0  0  0  0
  -26.0031  -29.4741   20.7058 C   0  0  0  0  0  0
  -27.1985  -28.7181   20.6854 C   0  0  0  0  0  0
  -26.0322  -26.9544   19.4835 C   0  0  0  0  0  0
  -24.8479  -27.7106   19.4991 C   0  0  0  0  0  0
  -23.6037  -29.8374   20.1656 C   0  0  0  0  0  0
  -25.4103  -36.3104   24.0336 C   0  0  1  0  0  0
  -20.5871  -28.3640   23.1303 C   0  0  2  0  0  0
  -20.6770  -26.9375   22.5400 C   0  0  0  0  0  0
  -19.5743  -26.6368   21.5202 C   0  0  0  0  0  0
  -18.1918  -26.7914   22.1604 C   0  0  0  0  0  0
  -19.1528  -28.8823   23.2895 C   0  0  0  0  0  0
  -18.9466  -30.1437   23.8893 C   0  0  0  0  0  0
  -17.6465  -30.6561   24.0569 C   0  0  0  0  0  0
  -25.9043  -34.9478   23.5133 C   0  0  0  0  0  0
  -16.5353  -29.9063   23.6342 C   0  0  0  0  0  0
  -16.7261  -28.6482   23.0352 C   0  0  0  0  0  0
  -26.4480  -31.6588   25.0718 C   0  0  0  0  0  0
  -25.3751  -31.3722   26.1487 C   0  0  0  0  0  0
  -27.0256  -30.3006   24.6074 C   0  0  0  0  0  0
  -27.6063  -32.4279   25.7482 C   0  0  0  0  0  0
  -27.5592  -37.1783   24.8462 C   0  0  0  0  0  0
  -21.4146  -29.3022   22.3724 N   0  0  0  0  0  0
  -26.4276  -37.3804   23.9446 N   0  0  0  0  0  0
  -24.6667  -31.0808   22.1027 N   0  0  0  0  0  0
  -23.4201  -28.8208   23.3010 O   0  0  0  0  0  0
  -28.3920  -26.7089   20.0798 O   0  0  0  0  0  0
  -26.5587  -34.8934   22.4684 O   0  0  0  0  0  0
  -23.5338  -32.1459   23.7525 O   0  0  0  0  0  0
  -32.3690  -21.3519   20.5555 C   0  0  0  0  0  0
  -31.8804  -20.0554   20.7760 C   0  0  0  0  0  0
  -31.4947  -22.4489   20.5986 C   0  0  0  0  0  0
  -30.5161  -19.8383   21.0637 C   0  0  0  0  0  0
  -29.6207  -20.9506   21.1041 C   0  0  0  0  0  0
  -30.1193  -22.2613   20.8654 C   0  0  0  0  0  0
  -27.2517  -19.9859   20.4722 C   0  0  0  0  0  0
  -27.0059  -21.4489   20.7256 C   0  0  0  0  0  0
  -29.8932  -17.6665   19.9280 C   0  0  0  0  0  0
  -30.9018  -17.5286   22.2046 C   0  0  0  0  0  0
  -29.2427  -16.2956   20.1410 C   0  0  0  0  0  0
  -30.3203  -16.1016   22.3658 C   0  0  0  0  0  0
  -30.0302  -18.3957   21.2697 C   0  0  0  0  0  0
  -28.1548  -20.7460   21.4233 C   0  0  0  0  0  0
  -28.2445  -25.2860   19.9823 C   0  0  0  0  0  0
  -29.5583  -24.5232   20.2142 C   0  0  0  0  0  0
  -30.0083  -15.4600   21.0773 N   0  0  0  0  0  0
  -29.2395  -23.3206   20.9200 O   0  0  0  0  0  0
  -31.4628  -12.3716   19.1099 H   0  0  0  0  0  0
  -30.2918  -11.2733   19.7879 H   0  0  0  0  0  0
  -29.7315  -11.8313   17.3890 H   0  0  0  0  0  0
  -29.6497  -13.5250   17.7961 H   0  0  0  0  0  0
  -27.8228  -11.3076   18.7858 H   0  0  0  0  0  0
  -27.3556  -12.6528   17.7841 H   0  0  0  0  0  0
  -27.6796  -14.2297   19.5704 H   0  0  0  0  0  0
  -28.6746  -11.9516   21.3598 H   0  0  0  0  0  0
  -28.4691  -13.6038   21.8571 H   0  0  0  0  0  0
  -25.2738   -9.5694   22.4796 H   0  0  0  0  0  0
  -23.9986   -7.4624   22.7489 H   0  0  0  0  0  0
  -21.0827   -8.8736   19.8968 H   0  0  0  0  0  0
  -22.3656  -10.9660   19.6179 H   0  0  0  0  0  0
  -21.1963   -7.6147   23.9715 H   0  0  0  0  0  0
  -21.1465   -6.0530   25.9082 H   0  0  0  0  0  0
  -22.0615   -2.7597   23.2875 H   0  0  0  0  0  0
  -22.4029  -11.9846   22.4696 H   0  0  0  0  0  0
  -21.1115  -13.1342   22.2653 H   0  0  0  0  0  0
  -24.6820  -15.8478   20.5174 H   0  0  0  0  0  0
  -26.3036  -15.6073   20.1060 H   0  0  0  0  0  0
  -26.7113  -32.5520   23.1153 H   0  0  0  0  0  0
  -25.0172  -33.9781   25.0553 H   0  0  0  0  0  0
  -22.6886  -31.3175   21.4190 H   0  0  0  0  0  0
  -23.3796  -35.9547   23.3214 H   0  0  0  0  0  0
  -24.3604  -36.8978   22.2066 H   0  0  0  0  0  0
  -23.7136  -37.6420   23.6705 H   0  0  0  0  0  0
  -26.0477  -31.6071   20.6050 H   0  0  0  0  0  0
  -26.8178  -30.8763   21.9860 H   0  0  0  0  0  0
  -28.0979  -29.1047   21.1451 H   0  0  0  0  0  0
  -25.9851  -25.9973   18.9882 H   0  0  0  0  0  0
  -23.9531  -27.3200   19.0347 H   0  0  0  0  0  0
  -23.7117  -30.6153   19.4092 H   0  0  0  0  0  0
  -22.7272  -29.2594   19.8689 H   0  0  0  0  0  0
  -25.1269  -36.1948   25.0825 H   0  0  0  0  0  0
  -20.9960  -28.3174   24.1424 H   0  0  0  0  0  0
  -20.5651  -26.2240   23.3583 H   0  0  0  0  0  0
  -21.6633  -26.7402   22.1181 H   0  0  0  0  0  0
  -19.6895  -25.6280   21.1218 H   0  0  0  0  0  0
  -19.6697  -27.3191   20.6745 H   0  0  0  0  0  0
  -17.4200  -26.6692   21.3996 H   0  0  0  0  0  0
  -18.0299  -26.0028   22.8965 H   0  0  0  0  0  0
  -19.7956  -30.7264   24.2226 H   0  0  0  0  0  0
  -17.5028  -31.6243   24.5165 H   0  0  0  0  0  0
  -15.5356  -30.2967   23.7678 H   0  0  0  0  0  0
  -15.8657  -28.0811   22.7058 H   0  0  0  0  0  0
  -24.5855  -30.7148   25.7849 H   0  0  0  0  0  0
  -24.9038  -32.2898   26.5016 H   0  0  0  0  0  0
  -25.8094  -30.8822   27.0206 H   0  0  0  0  0  0
  -26.2751  -29.6788   24.1177 H   0  0  0  0  0  0
  -27.4072  -29.7227   25.4502 H   0  0  0  0  0  0
  -27.8592  -30.4308   23.9163 H   0  0  0  0  0  0
  -27.2729  -33.3649   26.1967 H   0  0  0  0  0  0
  -28.3951  -32.6705   25.0344 H   0  0  0  0  0  0
  -28.0624  -31.8427   26.5487 H   0  0  0  0  0  0
  -28.2545  -38.0141   24.7602 H   0  0  0  0  0  0
  -28.1147  -36.2680   24.6163 H   0  0  0  0  0  0
  -27.2326  -37.1251   25.8860 H   0  0  0  0  0  0
  -20.9298  -29.8793   21.7001 H   0  0  0  0  0  0
  -26.0154  -38.2858   24.1541 H   0  0  0  0  0  0
  -33.4174  -21.5056   20.3492 H   0  0  0  0  0  0
  -32.5697  -19.2256   20.7175 H   0  0  0  0  0  0
  -31.9050  -23.4335   20.4292 H   0  0  0  0  0  0
  -27.6232  -19.7377   19.4809 H   0  0  0  0  0  0
  -26.5631  -19.2644   20.9088 H   0  0  0  0  0  0
  -26.1314  -21.7017   21.3227 H   0  0  0  0  0  0
  -27.2164  -22.1262   19.9007 H   0  0  0  0  0  0
  -29.2864  -18.2484   19.2367 H   0  0  0  0  0  0
  -30.8697  -17.5528   19.4543 H   0  0  0  0  0  0
  -31.9162  -17.4459   21.8192 H   0  0  0  0  0  0
  -30.9829  -18.0025   23.1822 H   0  0  0  0  0  0
  -29.1488  -15.8142   19.1655 H   0  0  0  0  0  0
  -28.2305  -16.4142   20.5290 H   0  0  0  0  0  0
  -29.3976  -16.1439   22.9474 H   0  0  0  0  0  0
  -31.0123  -15.4855   22.9443 H   0  0  0  0  0  0
  -29.0467  -18.4212   21.7351 H   0  0  0  0  0  0
  -28.0326  -20.5627   22.4895 H   0  0  0  0  0  0
  -27.5216  -24.9709   20.7380 H   0  0  0  0  0  0
  -27.8487  -24.9902   19.0101 H   0  0  0  0  0  0
  -30.2544  -25.1231   20.8008 H   0  0  0  0  0  0
  -30.0220  -24.3182   19.2467 H   0  0  0  0  0  0
  1 25  1  0  0  0
  1 30  2  0  0  0
  1 87  1  0  0  0
  2  3  1  0  0  0
  2 25  1  0  0  0
  2 89  1  0  0  0
  2 90  1  0  0  0
  3  4  1  0  0  0
  3 91  1  0  0  0
  3 92  1  0  0  0
  4  5  1  0  0  0
  4 93  1  0  0  0
  4 94  1  0  0  0
  5  6  1  0  0  0
  5 26  1  0  0  0
  5 95  1  0  0  0
  6 25  1  0  0  0
  6 96  1  0  0  0
  6 97  1  0  0  0
  7  8  2  0  0  0
  7 26  1  0  0  0
  7 29  1  0  0  0
  8  9  1  0  0  0
  8 22  1  0  0  0
  9 10  1  0  0  0
  9 27  2  0  0  0
 10 11  2  0  0  0
 10 15  1  0  0  0
 11 12  1  0  0  0
 11 98  1  0  0  0
 12 13  2  0  0  0
 12 99  1  0  0  0
 13 14  1  0  0  0
 13 31  1  0  0  0
 14 15  2  0  0  0
 14100  1  0  0  0
 15101  1  0  0  0
 16 17  2  0  0  0
 16 21  1  0  0  0
 16 31  1  0  0  0
 17 18  1  0  0  0
 17102  1  0  0  0
 18 19  2  0  0  0
 18103  1  0  0  0
 19 20  1  0  0  0
 19 24  1  0  0  0
 20 21  2  0  0  0
 20104  1  0  0  0
 21 23  1  0  0  0
 22 28  1  0  0  0
 22 32  2  0  0  0
 26 27  1  0  0  0
 28105  1  0  0  0
 28106  1  0  0  0
 29107  1  0  0  0
 29108  1  0  0  0
 33 34  1  0  0  0
 33 66  1  0  0  0
 33 70  2  0  0  0
 34 36  1  0  0  0
 34 59  1  0  0  0
 34109  1  0  0  0
 35 44  2  0  0  0
 35 45  1  0  0  0
 35 68  1  0  0  0
 36 56  1  0  0  0
 36110  1  0  0  0
 37 39  1  0  0  0
 37 47  1  0  0  0
 37 66  1  0  0  0
 37111  1  0  0  0
 38 43  2  0  0  0
 38 46  1  0  0  0
 38 47  1  0  0  0
 39 64  1  0  0  0
 39 67  2  0  0  0
 40 52  1  0  0  0
 40 53  2  0  0  0
 40 58  1  0  0  0
 41112  1  0  0  0
 41113  1  0  0  0
 41114  1  0  0  0
 41 48  1  0  0  0
 42 43  1  0  0  0
 42 66  1  0  0  0
 42115  1  0  0  0
 42116  1  0  0  0
 43 44  1  0  0  0
 44117  1  0  0  0
 45 46  2  0  0  0
 45118  1  0  0  0
 46119  1  0  0  0
 47120  1  0  0  0
 47121  1  0  0  0
 48 56  1  0  0  0
 48 65  1  0  0  0
 48122  1  0  0  0
 49 50  1  0  0  0
 49 53  1  0  0  0
 49 64  1  0  0  0
 49123  1  0  0  0
 50 51  1  0  0  0
 50124  1  0  0  0
 50125  1  0  0  0
 51 52  1  0  0  0
 51126  1  0  0  0
 51127  1  0  0  0
 52128  1  0  0  0
 52129  1  0  0  0
 53 54  1  0  0  0
 54 55  2  0  0  0
 54130  1  0  0  0
 55 57  1  0  0  0
 55131  1  0  0  0
 56 69  2  0  0  0
 57 58  2  0  0  0
 57132  1  0  0  0
 58133  1  0  0  0
 59 60  1  0  0  0
 59 61  1  0  0  0
 59 62  1  0  0  0
 60134  1  0  0  0
 60135  1  0  0  0
 60136  1  0  0  0
 61137  1  0  0  0
 61138  1  0  0  0
 61139  1  0  0  0
 62140  1  0  0  0
 62141  1  0  0  0
 62142  1  0  0  0
 63 65  1  0  0  0
 63143  1  0  0  0
 63144  1  0  0  0
 63145  1  0  0  0
 64146  1  0  0  0
 65147  1  0  0  0
 68 85  1  0  0  0
 71 72  2  0  0  0
 71 73  1  0  0  0
 71148  1  0  0  0
 72 74  1  0  0  0
 72149  1  0  0  0
 73 76  2  0  0  0
 73150  1  0  0  0
 74 75  2  0  0  0
 74 83  1  0  0  0
 75 76  1  0  0  0
 75 84  1  0  0  0
 76 88  1  0  0  0
 77 78  1  0  0  0
 77 84  1  0  0  0
 77151  1  0  0  0
 77152  1  0  0  0
 78 84  1  0  0  0
 78153  1  0  0  0
 78154  1  0  0  0
 79 81  1  0  0  0
 79 83  1  0  0  0
 79155  1  0  0  0
 79156  1  0  0  0
 80 82  1  0  0  0
 80 83  1  0  0  0
 80157  1  0  0  0
 80158  1  0  0  0
 81 87  1  0  0  0
 81159  1  0  0  0
 81160  1  0  0  0
 82 87  1  0  0  0
 82161  1  0  0  0
 82162  1  0  0  0
 83163  1  0  0  0
 84164  1  0  0  0
 85 86  1  0  0  0
 85165  1  0  0  0
 85166  1  0  0  0
 86 88  1  0  0  0
 86167  1  0  0  0
 86168  1  0  0  0
M  ISO  4   1 100  68 101  85 101  87 100
M  END
> <chiral flag>
0

> <version>
0

> <s_m_source_file>
/data/baiqing/PycharmProjects/Reinvent-master-3.2/result/LINK_invent/BTK/process_docking_weight1_custom_sum_contain_oxygen_bond_distance_aromatic_linkinvent_7_9_3/rearranged_h_0142.sdf

> <i_m_source_file_index>
11

> <r_mmod_Potential_Energy-OPLS-2005>
214.564834594727

> <r_mmod_Stretch_Energy-OPLS-2005>
38.9010772705078

> <r_mmod_Bend_Energy-OPLS-2005>
101.517959594727

> <r_mmod_Torsional_Energy-OPLS-2005>
364.782958984375

> <r_mmod_Improper_Torsional_Energy-OPLS-2005>
5.62458038330078

> <r_mmod_Van_der_Waal_Energy-OPLS-2005>
164.892807006836

> <r_mmod_Electrostatic_Energy-OPLS-2005>
-276.906311035156

> <r_mmod_Solvation_Energy-OPLS-2005>
-196.277328491211

> <b_mmod_Minimization_Converged-OPLS-2005>
0

> <r_mmod_RMS_Derivative-OPLS-2005>
3.12376737594604

$$$$
11
                    3D
 Structure written by MMmdl.
177187  0  0  1  0            999 V2000
  -30.7433  -14.4215   20.5217 C   0  0  0  0  0  0
  -30.4148  -12.2637   19.4157 C   0  0  0  0  0  0
  -29.4905  -12.4833   18.2003 C   0  0  0  0  0  0
  -28.0099  -12.3551   18.6131 C   0  0  0  0  0  0
  -27.6586  -13.1984   19.8662 C   0  0  2  0  0  0
  -28.7069  -12.9857   20.9841 C   0  0  0  0  0  0
  -25.2612  -13.8132   20.5713 C   0  0  0  0  0  0
  -24.1849  -13.0425   20.9179 C   0  0  0  0  0  0
  -24.6392  -11.6892   20.8736 C   0  0  0  0  0  0
  -23.9047  -10.4291   21.0412 C   0  0  0  0  0  0
  -24.3605   -9.4206   21.9193 C   0  0  0  0  0  0
  -23.6284   -8.2237   22.0754 C   0  0  0  0  0  0
  -22.4264   -8.0284   21.3538 C   0  0  0  0  0  0
  -21.9895   -9.0257   20.4645 C   0  0  0  0  0  0
  -22.7216  -10.2145   20.3059 C   0  0  0  0  0  0
  -21.6853   -6.0744   22.5287 C   0  0  0  0  0  0
  -21.4016   -6.5644   23.8219 C   0  0  0  0  0  0
  -21.3654   -5.6794   24.9179 C   0  0  0  0  0  0
  -21.6048   -4.3059   24.7226 C   0  0  0  0  0  0
  -21.8815   -3.8151   23.4343 C   0  0  0  0  0  0
  -21.9192   -4.6972   22.3407 C   0  0  0  0  0  0
  -22.7877  -13.5250   21.1830 C   0  0  0  0  0  0
  -22.1661   -4.2165   21.0982 F   0  0  0  0  0  0
  -21.5618   -3.4537   25.7731 F   0  0  0  0  0  0
  -30.0382  -13.2643   20.4213 N   0  0  0  0  0  0
  -26.3031  -12.9289   20.3350 N   0  0  0  0  0  0
  -25.9316  -11.6459   20.5761 N   0  0  0  0  0  0
  -22.0511  -12.8255   22.0395 N   0  0  0  0  0  0
  -25.4327  -15.1854   20.4205 N   0  0  0  0  0  0
  -31.9465  -14.4881   20.2568 O   0  0  0  0  0  0
  -21.6625   -6.8888   21.4250 O   0  0  0  0  0  0
  -22.3561  -14.5542   20.6671 O   0  0  0  0  0  0
  -24.6105  -31.8726   23.2158 C   0  0  0  0  0  0
  -25.9029  -32.4849   23.8429 C   0  0  1  0  0  0
  -27.2282  -27.4733   20.0659 C   0  0  0  0  0  0
  -25.5925  -33.8650   24.2368 N   0  0  0  0  0  0
  -23.3951  -30.4997   21.5584 C   0  0  2  0  0  0
  -24.8343  -28.9752   20.1165 C   0  0  0  0  0  0
  -22.7391  -29.4679   22.5035 C   0  0  0  0  0  0
  -18.0265  -28.1389   22.8480 C   0  0  0  0  0  0
  -24.1482  -36.7316   23.2634 C   0  0  0  0  0  0
  -25.9223  -30.8453   21.3661 C   0  0  0  0  0  0
  -25.9935  -29.4825   20.7142 C   0  0  0  0  0  0
  -27.1887  -28.7338   20.6963 C   0  0  0  0  0  0
  -26.0431  -26.9753   19.4683 C   0  0  0  0  0  0
  -24.8495  -27.7150   19.4997 C   0  0  0  0  0  0
  -23.5970  -29.8393   20.1699 C   0  0  0  0  0  0
  -25.4108  -36.3123   24.0337 C   0  0  1  0  0  0
  -20.5848  -28.3662   23.1342 C   0  0  2  0  0  0
  -20.6767  -26.9409   22.5427 C   0  0  0  0  0  0
  -19.5747  -26.6396   21.5219 C   0  0  0  0  0  0
  -18.1918  -26.7929   22.1620 C   0  0  0  0  0  0
  -19.1506  -28.8839   23.2905 C   0  0  0  0  0  0
  -18.9441  -30.1445   23.8917 C   0  0  0  0  0  0
  -17.6452  -30.6590   24.0562 C   0  0  0  0  0  0
  -25.9036  -34.9489   23.5135 C   0  0  0  0  0  0
  -16.5341  -29.9095   23.6323 C   0  0  0  0  0  0
  -16.7255  -28.6518   23.0336 C   0  0  0  0  0  0
  -26.4470  -31.6613   25.0739 C   0  0  0  0  0  0
  -25.3749  -31.3718   26.1500 C   0  0  0  0  0  0
  -27.0294  -30.3063   24.6092 C   0  0  0  0  0  0
  -27.6065  -32.4313   25.7492 C   0  0  0  0  0  0
  -27.5586  -37.1819   24.8471 C   0  0  0  0  0  0
  -21.4124  -29.3024   22.3758 N   0  0  0  0  0  0
  -26.4302  -37.3801   23.9404 N   0  0  0  0  0  0
  -24.6615  -31.0842   22.1059 N   0  0  0  0  0  0
  -23.4176  -28.8203   23.3050 O   0  0  0  0  0  0
  -28.4294  -26.7941   20.0599 O   0  0  0  0  0  0
  -26.5580  -34.8916   22.4679 O   0  0  0  0  0  0
  -23.5308  -32.1472   23.7575 O   0  0  0  0  0  0
  -27.7098  -18.4758   18.7781 C   0  0  0  0  0  0
  -28.1102  -20.3488   20.2639 C   0  0  0  0  0  0
  -26.2293  -20.3982   18.7089 C   0  0  0  0  0  0
  -28.4943  -19.0832   19.7847 C   0  0  0  0  0  0
  -26.5907  -19.1264   18.2220 C   0  0  0  0  0  0
  -26.9992  -21.0116   19.7142 C   0  0  0  0  0  0
  -24.4431  -17.9851   17.3082 C   0  0  0  0  0  0
  -25.5741  -17.0125   17.0761 C   0  0  0  0  0  0
  -29.5612  -17.5901   21.5723 C   0  0  0  0  0  0
  -30.6435  -17.7387   19.2761 C   0  0  0  0  0  0
  -29.1067  -16.1612   21.2366 C   0  0  0  0  0  0
  -30.2558  -16.2683   19.0219 C   0  0  0  0  0  0
  -29.7806  -18.4627   20.3266 C   0  0  0  0  0  0
  -25.8451  -18.5025   17.0748 C   0  0  0  0  0  0
  -27.6587  -18.9950   15.3319 C   0  0  0  0  0  0
  -26.1938  -19.1886   15.7589 C   0  0  0  0  0  0
  -27.8395  -24.4246   20.2000 C   0  0  0  0  0  0
  -28.5033  -25.5463   19.3798 C   0  0  0  0  0  0
  -27.4619  -23.2338   19.3233 C   0  0  0  0  0  0
  -29.9991  -15.5164   20.2630 N   0  0  0  0  0  0
  -26.7336  -22.2922   20.0999 O   0  0  0  0  0  0
  -31.4613  -12.3369   19.1144 H   0  0  0  0  0  0
  -30.2888  -11.2584   19.8201 H   0  0  0  0  0  0
  -29.7220  -11.7610   17.4177 H   0  0  0  0  0  0
  -29.6682  -13.4689   17.7681 H   0  0  0  0  0  0
  -27.8150  -11.3005   18.8102 H   0  0  0  0  0  0
  -27.3598  -12.6335   17.7833 H   0  0  0  0  0  0
  -27.6903  -14.2388   19.5470 H   0  0  0  0  0  0
  -28.6737  -11.9567   21.3452 H   0  0  0  0  0  0
  -28.4838  -13.5976   21.8537 H   0  0  0  0  0  0
  -25.2766   -9.5672   22.4752 H   0  0  0  0  0  0
  -24.0004   -7.4637   22.7476 H   0  0  0  0  0  0
  -21.0824   -8.8771   19.8958 H   0  0  0  0  0  0
  -22.3685  -10.9678   19.6155 H   0  0  0  0  0  0
  -21.2008   -7.6154   23.9725 H   0  0  0  0  0  0
  -21.1473   -6.0524   25.9085 H   0  0  0  0  0  0
  -22.0597   -2.7612   23.2834 H   0  0  0  0  0  0
  -22.4111  -11.9920   22.4790 H   0  0  0  0  0  0
  -21.1141  -13.1305   22.2601 H   0  0  0  0  0  0
  -24.6681  -15.8391   20.5414 H   0  0  0  0  0  0
  -26.2912  -15.6304   20.1273 H   0  0  0  0  0  0
  -26.7090  -32.5555   23.1181 H   0  0  0  0  0  0
  -25.0116  -33.9811   25.0547 H   0  0  0  0  0  0
  -22.6815  -31.3161   21.4272 H   0  0  0  0  0  0
  -23.3734  -35.9661   23.3323 H   0  0  0  0  0  0
  -24.3577  -36.8898   22.2044 H   0  0  0  0  0  0
  -23.7236  -37.6535   23.6617 H   0  0  0  0  0  0
  -26.0283  -31.6114   20.5964 H   0  0  0  0  0  0
  -26.8147  -30.8981   21.9803 H   0  0  0  0  0  0
  -28.0859  -29.1229   21.1573 H   0  0  0  0  0  0
  -26.0067  -26.0207   18.9669 H   0  0  0  0  0  0
  -23.9554  -27.3187   19.0385 H   0  0  0  0  0  0
  -23.7030  -30.6194   19.4152 H   0  0  0  0  0  0
  -22.7187  -29.2621   19.8729 H   0  0  0  0  0  0
  -25.1265  -36.2006   25.0833 H   0  0  0  0  0  0
  -20.9918  -28.3223   24.1471 H   0  0  0  0  0  0
  -20.5702  -26.2264   23.3600 H   0  0  0  0  0  0
  -21.6641  -26.7491   22.1203 H   0  0  0  0  0  0
  -19.6925  -25.6311   21.1236 H   0  0  0  0  0  0
  -19.6698  -27.3219   20.6758 H   0  0  0  0  0  0
  -17.4200  -26.6673   21.4012 H   0  0  0  0  0  0
  -18.0316  -26.0078   22.9023 H   0  0  0  0  0  0
  -19.7922  -30.7243   24.2310 H   0  0  0  0  0  0
  -17.5010  -31.6265   24.5167 H   0  0  0  0  0  0
  -15.5337  -30.3009   23.7641 H   0  0  0  0  0  0
  -15.8652  -28.0844   22.7047 H   0  0  0  0  0  0
  -24.5905  -30.7075   25.7848 H   0  0  0  0  0  0
  -24.8952  -32.2877   26.4966 H   0  0  0  0  0  0
  -25.8120  -30.8879   27.0247 H   0  0  0  0  0  0
  -26.2845  -29.6841   24.1117 H   0  0  0  0  0  0
  -27.4046  -29.7275   25.4544 H   0  0  0  0  0  0
  -27.8676  -30.4384   23.9244 H   0  0  0  0  0  0
  -27.2705  -33.3588   26.2133 H   0  0  0  0  0  0
  -28.3852  -32.6921   25.0312 H   0  0  0  0  0  0
  -28.0759  -31.8397   26.5358 H   0  0  0  0  0  0
  -28.2621  -38.0098   24.7489 H   0  0  0  0  0  0
  -28.1060  -36.2629   24.6326 H   0  0  0  0  0  0
  -27.2299  -37.1509   25.8875 H   0  0  0  0  0  0
  -20.9296  -29.8746   21.6977 H   0  0  0  0  0  0
  -26.0194  -38.2883   24.1403 H   0  0  0  0  0  0
  -27.9657  -17.5202   18.3702 H   0  0  0  0  0  0
  -28.7039  -20.8429   21.0206 H   0  0  0  0  0  0
  -25.3902  -20.9228   18.2748 H   0  0  0  0  0  0
  -24.0388  -18.0490   18.3165 H   0  0  0  0  0  0
  -23.7127  -18.0756   16.5069 H   0  0  0  0  0  0
  -25.5975  -16.4928   16.1192 H   0  0  0  0  0  0
  -25.9006  -16.4247   17.9299 H   0  0  0  0  0  0
  -30.5006  -17.5276   22.1222 H   0  0  0  0  0  0
  -28.8543  -18.0657   22.2531 H   0  0  0  0  0  0
  -30.6712  -18.3035   18.3423 H   0  0  0  0  0  0
  -31.6711  -17.7367   19.6440 H   0  0  0  0  0  0
  -29.0765  -15.6010   22.1705 H   0  0  0  0  0  0
  -28.0940  -16.1739   20.8394 H   0  0  0  0  0  0
  -31.0532  -15.8218   18.4236 H   0  0  0  0  0  0
  -29.3926  -16.1471   18.3772 H   0  0  0  0  0  0
  -30.3804  -19.3154   20.6510 H   0  0  0  0  0  0
  -27.8578  -19.5132   14.3941 H   0  0  0  0  0  0
  -27.8915  -17.9399   15.1867 H   0  0  0  0  0  0
  -28.3527  -19.3896   16.0740 H   0  0  0  0  0  0
  -25.9690  -20.2531   15.8435 H   0  0  0  0  0  0
  -25.5418  -18.8014   14.9736 H   0  0  0  0  0  0
  -26.9413  -24.7791   20.7005 H   0  0  0  0  0  0
  -28.5124  -24.1116   20.9983 H   0  0  0  0  0  0
  -28.0797  -25.6358   18.3767 H   0  0  0  0  0  0
  -29.5553  -25.3034   19.2271 H   0  0  0  0  0  0
  -28.3725  -22.8104   18.8935 H   0  0  0  0  0  0
  -26.8373  -23.5504   18.4865 H   0  0  0  0  0  0
  1 25  1  0  0  0
  1 30  2  0  0  0
  1 90  1  0  0  0
  2  3  1  0  0  0
  2 25  1  0  0  0
  2 92  1  0  0  0
  2 93  1  0  0  0
  3  4  1  0  0  0
  3 94  1  0  0  0
  3 95  1  0  0  0
  4  5  1  0  0  0
  4 96  1  0  0  0
  4 97  1  0  0  0
  5  6  1  0  0  0
  5 26  1  0  0  0
  5 98  1  0  0  0
  6 25  1  0  0  0
  6 99  1  0  0  0
  6100  1  0  0  0
  7  8  2  0  0  0
  7 26  1  0  0  0
  7 29  1  0  0  0
  8  9  1  0  0  0
  8 22  1  0  0  0
  9 10  1  0  0  0
  9 27  2  0  0  0
 10 11  2  0  0  0
 10 15  1  0  0  0
 11 12  1  0  0  0
 11101  1  0  0  0
 12 13  2  0  0  0
 12102  1  0  0  0
 13 14  1  0  0  0
 13 31  1  0  0  0
 14 15  2  0  0  0
 14103  1  0  0  0
 15104  1  0  0  0
 16 17  2  0  0  0
 16 21  1  0  0  0
 16 31  1  0  0  0
 17 18  1  0  0  0
 17105  1  0  0  0
 18 19  2  0  0  0
 18106  1  0  0  0
 19 20  1  0  0  0
 19 24  1  0  0  0
 20 21  2  0  0  0
 20107  1  0  0  0
 21 23  1  0  0  0
 22 28  1  0  0  0
 22 32  2  0  0  0
 26 27  1  0  0  0
 28108  1  0  0  0
 28109  1  0  0  0
 29110  1  0  0  0
 29111  1  0  0  0
 33 34  1  0  0  0
 33 66  1  0  0  0
 33 70  2  0  0  0
 34 36  1  0  0  0
 34 59  1  0  0  0
 34112  1  0  0  0
 35 44  2  0  0  0
 35 45  1  0  0  0
 35 68  1  0  0  0
 36 56  1  0  0  0
 36113  1  0  0  0
 37 39  1  0  0  0
 37 47  1  0  0  0
 37 66  1  0  0  0
 37114  1  0  0  0
 38 43  2  0  0  0
 38 46  1  0  0  0
 38 47  1  0  0  0
 39 64  1  0  0  0
 39 67  2  0  0  0
 40 52  1  0  0  0
 40 53  2  0  0  0
 40 58  1  0  0  0
 41115  1  0  0  0
 41116  1  0  0  0
 41117  1  0  0  0
 41 48  1  0  0  0
 42 43  1  0  0  0
 42 66  1  0  0  0
 42118  1  0  0  0
 42119  1  0  0  0
 43 44  1  0  0  0
 44120  1  0  0  0
 45 46  2  0  0  0
 45121  1  0  0  0
 46122  1  0  0  0
 47123  1  0  0  0
 47124  1  0  0  0
 48 56  1  0  0  0
 48 65  1  0  0  0
 48125  1  0  0  0
 49 50  1  0  0  0
 49 53  1  0  0  0
 49 64  1  0  0  0
 49126  1  0  0  0
 50 51  1  0  0  0
 50127  1  0  0  0
 50128  1  0  0  0
 51 52  1  0  0  0
 51129  1  0  0  0
 51130  1  0  0  0
 52131  1  0  0  0
 52132  1  0  0  0
 53 54  1  0  0  0
 54 55  2  0  0  0
 54133  1  0  0  0
 55 57  1  0  0  0
 55134  1  0  0  0
 56 69  2  0  0  0
 57 58  2  0  0  0
 57135  1  0  0  0
 58136  1  0  0  0
 59 60  1  0  0  0
 59 61  1  0  0  0
 59 62  1  0  0  0
 60137  1  0  0  0
 60138  1  0  0  0
 60139  1  0  0  0
 61140  1  0  0  0
 61141  1  0  0  0
 61142  1  0  0  0
 62143  1  0  0  0
 62144  1  0  0  0
 62145  1  0  0  0
 63 65  1  0  0  0
 63146  1  0  0  0
 63147  1  0  0  0
 63148  1  0  0  0
 64149  1  0  0  0
 65150  1  0  0  0
 68 88  1  0  0  0
 71 74  2  0  0  0
 71 75  1  0  0  0
 71151  1  0  0  0
 72 74  1  0  0  0
 72 76  2  0  0  0
 72152  1  0  0  0
 73 75  2  0  0  0
 73 76  1  0  0  0
 73153  1  0  0  0
 74 83  1  0  0  0
 75 84  1  0  0  0
 76 91  1  0  0  0
 77 78  1  0  0  0
 77 84  1  0  0  0
 77154  1  0  0  0
 77155  1  0  0  0
 78 84  1  0  0  0
 78156  1  0  0  0
 78157  1  0  0  0
 79 81  1  0  0  0
 79 83  1  0  0  0
 79158  1  0  0  0
 79159  1  0  0  0
 80 82  1  0  0  0
 80 83  1  0  0  0
 80160  1  0  0  0
 80161  1  0  0  0
 81 90  1  0  0  0
 81162  1  0  0  0
 81163  1  0  0  0
 82 90  1  0  0  0
 82164  1  0  0  0
 82165  1  0  0  0
 83166  1  0  0  0
 84 86  1  0  0  0
 85 86  1  0  0  0
 85167  1  0  0  0
 85168  1  0  0  0
 85169  1  0  0  0
 86170  1  0  0  0
 86171  1  0  0  0
 87 88  1  0  0  0
 87 89  1  0  0  0
 87172  1  0  0  0
 87173  1  0  0  0
 88174  1  0  0  0
 88175  1  0  0  0
 89 91  1  0  0  0
 89176  1  0  0  0
 89177  1  0  0  0
M  ISO  4   1 100  68 101  88 101  90 100
M  END
> <chiral flag>
0

> <version>
0

> <s_m_source_file>
/data/baiqing/PycharmProjects/Reinvent-master-3.2/result/LINK_invent/BTK/process_docking_weight1_custom_sum_contain_oxygen_bond_distance_aromatic_linkinvent_7_9_3/rearranged_h_0142.sdf

> <i_m_source_file_index>
12

> <r_mmod_Potential_Energy-OPLS-2005>
248.054336547852

> <r_mmod_Stretch_Energy-OPLS-2005>
33.3046722412109

> <r_mmod_Bend_Energy-OPLS-2005>
105.712860107422

> <r_mmod_Torsional_Energy-OPLS-2005>
407.459777832031

> <r_mmod_Improper_Torsional_Energy-OPLS-2005>
24.1069221496582

> <r_mmod_Van_der_Waal_Energy-OPLS-2005>
157.137924194336

> <r_mmod_Electrostatic_Energy-OPLS-2005>
-315.357269287109

> <r_mmod_Solvation_Energy-OPLS-2005>
-185.591171264648

> <b_mmod_Minimization_Converged-OPLS-2005>
0

> <r_mmod_RMS_Derivative-OPLS-2005>
2.40331602096558

$$$$
12
                    3D
 Structure written by MMmdl.
155164  0  0  1  0            999 V2000
  -30.5012  -14.9384   20.4178 C   0  0  0  0  0  0
  -30.4344  -12.5776   19.4859 C   0  0  0  0  0  0
  -29.5160  -12.5149   18.2449 C   0  0  0  0  0  0
  -28.0430  -12.3144   18.6617 C   0  0  0  0  0  0
  -27.6191  -13.2481   19.8293 C   0  0  2  0  0  0
  -28.6626  -13.2417   20.9645 C   0  0  0  0  0  0
  -25.2433  -13.8206   20.5790 C   0  0  0  0  0  0
  -24.1743  -13.0412   20.9251 C   0  0  0  0  0  0
  -24.6345  -11.6904   20.8709 C   0  0  0  0  0  0
  -23.9018  -10.4275   21.0327 C   0  0  0  0  0  0
  -24.3589   -9.4215   21.9116 C   0  0  0  0  0  0
  -23.6308   -8.2221   22.0663 C   0  0  0  0  0  0
  -22.4276   -8.0224   21.3480 C   0  0  0  0  0  0
  -21.9895   -9.0177   20.4572 C   0  0  0  0  0  0
  -22.7176  -10.2096   20.2988 C   0  0  0  0  0  0
  -21.6865   -6.0728   22.5277 C   0  0  0  0  0  0
  -21.4012   -6.5614   23.8218 C   0  0  0  0  0  0
  -21.3671   -5.6760   24.9168 C   0  0  0  0  0  0
  -21.6050   -4.3028   24.7224 C   0  0  0  0  0  0
  -21.8832   -3.8127   23.4345 C   0  0  0  0  0  0
  -21.9221   -4.6955   22.3404 C   0  0  0  0  0  0
  -22.7778  -13.5164   21.1941 C   0  0  0  0  0  0
  -22.1691   -4.2137   21.0995 F   0  0  0  0  0  0
  -21.5637   -3.4505   25.7740 F   0  0  0  0  0  0
  -29.9272  -13.6681   20.3592 N   0  0  0  0  0  0
  -26.2832  -12.9449   20.3231 N   0  0  0  0  0  0
  -25.9279  -11.6568   20.5707 N   0  0  0  0  0  0
  -22.0421  -12.8086   22.0455 N   0  0  0  0  0  0
  -25.4100  -15.1950   20.4357 N   0  0  0  0  0  0
  -31.7232  -14.9986   20.2305 O   0  0  0  0  0  0
  -21.6637   -6.8834   21.4206 O   0  0  0  0  0  0
  -22.3480  -14.5492   20.6819 O   0  0  0  0  0  0
  -24.6346  -31.8429   23.1846 C   0  0  0  0  0  0
  -25.9145  -32.4653   23.8226 C   0  0  1  0  0  0
  -27.1949  -27.0995   20.1525 C   0  0  0  0  0  0
  -25.5913  -33.8461   24.2095 N   0  0  0  0  0  0
  -23.4409  -30.4626   21.5372 C   0  0  2  0  0  0
  -24.8874  -28.8850   20.1158 C   0  0  0  0  0  0
  -22.7498  -29.4528   22.4871 C   0  0  0  0  0  0
  -18.0305  -28.1341   22.8495 C   0  0  0  0  0  0
  -24.1492  -36.7214   23.2652 C   0  0  0  0  0  0
  -26.0018  -30.7016   21.3999 C   0  0  0  0  0  0
  -26.0698  -29.3170   20.7287 C   0  0  0  0  0  0
  -27.2227  -28.4392   20.7275 C   0  0  0  0  0  0
  -25.9808  -26.7767   19.5125 C   0  0  0  0  0  0
  -24.8560  -27.6294   19.4961 C   0  0  0  0  0  0
  -23.6640  -29.7911   20.1608 C   0  0  0  0  0  0
  -25.4140  -36.2952   24.0260 C   0  0  1  0  0  0
  -20.5938  -28.3704   23.1378 C   0  0  2  0  0  0
  -20.6790  -26.9353   22.5739 C   0  0  0  0  0  0
  -19.5926  -26.6305   21.5391 C   0  0  0  0  0  0
  -18.2020  -26.7889   22.1614 C   0  0  0  0  0  0
  -19.1546  -28.8818   23.2906 C   0  0  0  0  0  0
  -18.9444  -30.1442   23.8850 C   0  0  0  0  0  0
  -17.6422  -30.6541   24.0467 C   0  0  0  0  0  0
  -25.9097  -34.9361   23.4990 C   0  0  0  0  0  0
  -16.5306  -29.9058   23.6157 C   0  0  0  0  0  0
  -16.7276  -28.6435   23.0239 C   0  0  0  0  0  0
  -26.4446  -31.6612   25.0759 C   0  0  0  0  0  0
  -25.3601  -31.3948   26.1465 C   0  0  0  0  0  0
  -27.0362  -30.2938   24.6570 C   0  0  0  0  0  0
  -27.5878  -32.4508   25.7610 C   0  0  0  0  0  0
  -27.5540  -37.1772   24.8435 C   0  0  0  0  0  0
  -21.4209  -29.2993   22.3627 N   0  0  0  0  0  0
  -26.4257  -37.3701   23.9364 N   0  0  0  0  0  0
  -24.7112  -31.0223   22.0907 N   0  0  0  0  0  0
  -23.4175  -28.8059   23.2990 O   0  0  0  0  0  0
  -28.2409  -26.0959   20.2475 O   0  0  0  0  0  0
  -26.5729  -34.8834   22.4595 O   0  0  0  0  0  0
  -23.5482  -32.1353   23.7036 O   0  0  0  0  0  0
  -29.0926  -18.7282   20.1041 C   0  0  0  0  0  0
  -29.3135  -20.1355   20.5209 C   0  0  0  0  0  0
  -29.8687  -17.5912   20.6535 C   0  0  0  0  0  0
  -30.8800  -19.2386   21.9881 C   0  0  0  0  0  0
  -27.0990  -21.5610   20.6433 C   0  0  0  0  0  0
  -27.5142  -22.6905   21.5932 C   0  0  0  0  0  0
  -28.5169  -21.5247   20.0681 C   0  0  1  0  0  0
  -28.5592  -23.1593   20.5700 C   0  0  1  0  0  0
  -31.7756  -19.4900   23.1958 C   0  0  0  0  0  0
  -28.1743  -24.5989   19.7501 C   0  0  0  0  0  0
  -30.2297  -20.3022   21.4930 N   0  0  0  0  0  0
  -30.7662  -17.9649   21.5942 N   0  0  0  0  0  0
  -29.6709  -16.0969   20.3718 N   0  0  0  0  0  0
  -31.4656  -12.7628   19.1821 H   0  0  0  0  0  0
  -30.4318  -11.6261   20.0162 H   0  0  0  0  0  0
  -29.8405  -11.7038   17.5891 H   0  0  0  0  0  0
  -29.6034  -13.4400   17.6688 H   0  0  0  0  0  0
  -27.9315  -11.2751   18.9690 H   0  0  0  0  0  0
  -27.3804  -12.4483   17.8055 H   0  0  0  0  0  0
  -27.5750  -14.2537   19.4089 H   0  0  0  0  0  0
  -28.7532  -12.2419   21.3899 H   0  0  0  0  0  0
  -28.3712  -13.9093   21.7789 H   0  0  0  0  0  0
  -25.2692   -9.5776   22.4737 H   0  0  0  0  0  0
  -24.0031   -7.4650   22.7407 H   0  0  0  0  0  0
  -21.0822   -8.8693   19.8907 H   0  0  0  0  0  0
  -22.3564  -10.9637   19.6145 H   0  0  0  0  0  0
  -21.1956   -7.6114   23.9723 H   0  0  0  0  0  0
  -21.1493   -6.0476   25.9093 H   0  0  0  0  0  0
  -22.0609   -2.7581   23.2851 H   0  0  0  0  0  0
  -22.3987  -11.9766   22.4919 H   0  0  0  0  0  0
  -21.0993  -13.1054   22.2533 H   0  0  0  0  0  0
  -24.6491  -15.8341   20.6317 H   0  0  0  0  0  0
  -26.2705  -15.6688   20.1977 H   0  0  0  0  0  0
  -26.7235  -32.5209   23.0969 H   0  0  0  0  0  0
  -24.9868  -33.9613   25.0099 H   0  0  0  0  0  0
  -22.7403  -31.2855   21.3911 H   0  0  0  0  0  0
  -23.3718  -35.9594   23.3323 H   0  0  0  0  0  0
  -24.3538  -36.8864   22.2066 H   0  0  0  0  0  0
  -23.7325  -37.6415   23.6752 H   0  0  0  0  0  0
  -26.1952  -31.4719   20.6535 H   0  0  0  0  0  0
  -26.8530  -30.7266   22.0665 H   0  0  0  0  0  0
  -28.1249  -28.7722   21.2213 H   0  0  0  0  0  0
  -25.8304  -25.8164   19.0527 H   0  0  0  0  0  0
  -23.9394  -27.2784   19.0409 H   0  0  0  0  0  0
  -23.7763  -30.5678   19.4030 H   0  0  0  0  0  0
  -22.7810  -29.2230   19.8602 H   0  0  0  0  0  0
  -25.1367  -36.1748   25.0758 H   0  0  0  0  0  0
  -21.0096  -28.3477   24.1484 H   0  0  0  0  0  0
  -20.5478  -26.2451   23.4055 H   0  0  0  0  0  0
  -21.6731  -26.7236   22.1705 H   0  0  0  0  0  0
  -19.7065  -25.6198   21.1453 H   0  0  0  0  0  0
  -19.6936  -27.3166   20.6936 H   0  0  0  0  0  0
  -17.4412  -26.6704   21.3915 H   0  0  0  0  0  0
  -18.0304  -26.0029   22.9003 H   0  0  0  0  0  0
  -19.7926  -30.7348   24.2152 H   0  0  0  0  0  0
  -17.4967  -31.6241   24.4967 H   0  0  0  0  0  0
  -15.5300  -30.2983   23.7326 H   0  0  0  0  0  0
  -15.8747  -28.0678   22.6890 H   0  0  0  0  0  0
  -24.5661  -30.7423   25.7814 H   0  0  0  0  0  0
  -24.8939  -32.3233   26.4794 H   0  0  0  0  0  0
  -25.7812  -30.9156   27.0328 H   0  0  0  0  0  0
  -26.3094  -29.6630   24.1453 H   0  0  0  0  0  0
  -27.3679  -29.7287   25.5313 H   0  0  0  0  0  0
  -27.9108  -30.4007   24.0149 H   0  0  0  0  0  0
  -27.2272  -33.3770   26.2128 H   0  0  0  0  0  0
  -28.3740  -32.7216   25.0541 H   0  0  0  0  0  0
  -28.0540  -31.8769   26.5642 H   0  0  0  0  0  0
  -28.2541  -38.0073   24.7436 H   0  0  0  0  0  0
  -28.1046  -36.2592   24.6344 H   0  0  0  0  0  0
  -27.2229  -37.1498   25.8826 H   0  0  0  0  0  0
  -20.9351  -29.8612   21.6790 H   0  0  0  0  0  0
  -26.0068  -38.2734   24.1413 H   0  0  0  0  0  0
  -28.3200  -18.5254   19.3691 H   0  0  0  0  0  0
  -26.3652  -21.8728   19.8948 H   0  0  0  0  0  0
  -26.7937  -20.6446   21.1550 H   0  0  0  0  0  0
  -27.9682  -22.3069   22.5082 H   0  0  0  0  0  0
  -26.7122  -23.4024   21.8166 H   0  0  0  0  0  0
  -28.4594  -21.4955   18.9778 H   0  0  0  0  0  0
  -29.5225  -23.2986   21.0634 H   0  0  0  0  0  0
  -31.6606  -20.5063   23.5803 H   0  0  0  0  0  0
  -32.8304  -19.3404   22.9605 H   0  0  0  0  0  0
  -31.5123  -18.8106   24.0152 H   0  0  0  0  0  0
  -27.2277  -24.4060   19.2541 H   0  0  0  0  0  0
  -28.8650  -24.6300   18.9057 H   0  0  0  0  0  0
  -28.7077  -15.8574   20.1912 H   0  0  0  0  0  0
  1 25  1  0  0  0
  1 30  2  0  0  0
  1 83  1  0  0  0
  2  3  1  0  0  0
  2 25  1  0  0  0
  2 84  1  0  0  0
  2 85  1  0  0  0
  3  4  1  0  0  0
  3 86  1  0  0  0
  3 87  1  0  0  0
  4  5  1  0  0  0
  4 88  1  0  0  0
  4 89  1  0  0  0
  5  6  1  0  0  0
  5 26  1  0  0  0
  5 90  1  0  0  0
  6 25  1  0  0  0
  6 91  1  0  0  0
  6 92  1  0  0  0
  7  8  2  0  0  0
  7 26  1  0  0  0
  7 29  1  0  0  0
  8  9  1  0  0  0
  8 22  1  0  0  0
  9 10  1  0  0  0
  9 27  2  0  0  0
 10 11  2  0  0  0
 10 15  1  0  0  0
 11 12  1  0  0  0
 11 93  1  0  0  0
 12 13  2  0  0  0
 12 94  1  0  0  0
 13 14  1  0  0  0
 13 31  1  0  0  0
 14 15  2  0  0  0
 14 95  1  0  0  0
 15 96  1  0  0  0
 16 17  2  0  0  0
 16 21  1  0  0  0
 16 31  1  0  0  0
 17 18  1  0  0  0
 17 97  1  0  0  0
 18 19  2  0  0  0
 18 98  1  0  0  0
 19 20  1  0  0  0
 19 24  1  0  0  0
 20 21  2  0  0  0
 20 99  1  0  0  0
 21 23  1  0  0  0
 22 28  1  0  0  0
 22 32  2  0  0  0
 26 27  1  0  0  0
 28100  1  0  0  0
 28101  1  0  0  0
 29102  1  0  0  0
 29103  1  0  0  0
 33 34  1  0  0  0
 33 66  1  0  0  0
 33 70  2  0  0  0
 34 36  1  0  0  0
 34 59  1  0  0  0
 34104  1  0  0  0
 35 44  2  0  0  0
 35 45  1  0  0  0
 35 68  1  0  0  0
 36 56  1  0  0  0
 36105  1  0  0  0
 37 39  1  0  0  0
 37 47  1  0  0  0
 37 66  1  0  0  0
 37106  1  0  0  0
 38 43  2  0  0  0
 38 46  1  0  0  0
 38 47  1  0  0  0
 39 64  1  0  0  0
 39 67  2  0  0  0
 40 52  1  0  0  0
 40 53  2  0  0  0
 40 58  1  0  0  0
 41107  1  0  0  0
 41108  1  0  0  0
 41109  1  0  0  0
 41 48  1  0  0  0
 42 43  1  0  0  0
 42 66  1  0  0  0
 42110  1  0  0  0
 42111  1  0  0  0
 43 44  1  0  0  0
 44112  1  0  0  0
 45 46  2  0  0  0
 45113  1  0  0  0
 46114  1  0  0  0
 47115  1  0  0  0
 47116  1  0  0  0
 48 56  1  0  0  0
 48 65  1  0  0  0
 48117  1  0  0  0
 49 50  1  0  0  0
 49 53  1  0  0  0
 49 64  1  0  0  0
 49118  1  0  0  0
 50 51  1  0  0  0
 50119  1  0  0  0
 50120  1  0  0  0
 51 52  1  0  0  0
 51121  1  0  0  0
 51122  1  0  0  0
 52123  1  0  0  0
 52124  1  0  0  0
 53 54  1  0  0  0
 54 55  2  0  0  0
 54125  1  0  0  0
 55 57  1  0  0  0
 55126  1  0  0  0
 56 69  2  0  0  0
 57 58  2  0  0  0
 57127  1  0  0  0
 58128  1  0  0  0
 59 60  1  0  0  0
 59 61  1  0  0  0
 59 62  1  0  0  0
 60129  1  0  0  0
 60130  1  0  0  0
 60131  1  0  0  0
 61132  1  0  0  0
 61133  1  0  0  0
 61134  1  0  0  0
 62135  1  0  0  0
 62136  1  0  0  0
 62137  1  0  0  0
 63 65  1  0  0  0
 63138  1  0  0  0
 63139  1  0  0  0
 63140  1  0  0  0
 64141  1  0  0  0
 65142  1  0  0  0
 68 80  1  0  0  0
 71 72  2  0  0  0
 71 73  1  0  0  0
 71143  1  0  0  0
 72 81  1  0  0  0
 72 77  1  0  0  0
 73 82  2  0  0  0
 73 83  1  0  0  0
 74 79  1  0  0  0
 74 81  2  0  0  0
 74 82  1  0  0  0
 75 76  1  0  0  0
 75 77  1  0  0  0
 75144  1  0  0  0
 75145  1  0  0  0
 76 78  1  0  0  0
 76146  1  0  0  0
 76147  1  0  0  0
 77 78  1  0  0  0
 77148  1  0  0  0
 78 80  1  0  0  0
 78149  1  0  0  0
 79150  1  0  0  0
 79151  1  0  0  0
 79152  1  0  0  0
 80153  1  0  0  0
 80154  1  0  0  0
 83155  1  0  0  0
M  ISO  4   1 100  68 101  80 101  83 100
M  END
> <chiral flag>
0

> <version>
0

> <s_m_source_file>
/data/baiqing/PycharmProjects/Reinvent-master-3.2/result/LINK_invent/BTK/process_docking_weight1_custom_sum_contain_oxygen_bond_distance_aromatic_linkinvent_7_9_3/rearranged_h_0142.sdf

> <i_m_source_file_index>
13

> <r_mmod_Potential_Energy-OPLS-2005>
162.872039794922

> <r_mmod_Stretch_Energy-OPLS-2005>
279.767791748047

> <r_mmod_Bend_Energy-OPLS-2005>
274.740844726562

> <r_mmod_Torsional_Energy-OPLS-2005>
250.548049926758

> <r_mmod_Improper_Torsional_Energy-OPLS-2005>
8.86705780029297

> <r_mmod_Van_der_Waal_Energy-OPLS-2005>
137.764984130859

> <r_mmod_Electrostatic_Energy-OPLS-2005>
-750.95361328125

> <r_mmod_Solvation_Energy-OPLS-2005>
-246.013000488281

> <b_mmod_Minimization_Converged-OPLS-2005>
0

> <r_mmod_RMS_Derivative-OPLS-2005>
7.96120119094849

$$$$
13
                    3D
 Structure written by MMmdl.
168177  0  0  1  0            999 V2000
  -30.6204  -14.7451   20.4572 C   0  0  0  0  0  0
  -30.4285  -12.4570   19.4667 C   0  0  0  0  0  0
  -29.5052  -12.5002   18.2311 C   0  0  0  0  0  0
  -28.0327  -12.3291   18.6488 C   0  0  0  0  0  0
  -27.6392  -13.2346   19.8469 C   0  0  2  0  0  0
  -28.6855  -13.1849   20.9789 C   0  0  0  0  0  0
  -25.2511  -13.8201   20.5719 C   0  0  0  0  0  0
  -24.1799  -13.0435   20.9206 C   0  0  0  0  0  0
  -24.6400  -11.6918   20.8752 C   0  0  0  0  0  0
  -23.9083  -10.4288   21.0411 C   0  0  0  0  0  0
  -24.3621   -9.4194   21.9188 C   0  0  0  0  0  0
  -23.6288   -8.2231   22.0754 C   0  0  0  0  0  0
  -22.4272   -8.0274   21.3545 C   0  0  0  0  0  0
  -21.9917   -9.0253   20.4645 C   0  0  0  0  0  0
  -22.7257  -10.2130   20.3060 C   0  0  0  0  0  0
  -21.6848   -6.0736   22.5284 C   0  0  0  0  0  0
  -21.4011   -6.5641   23.8218 C   0  0  0  0  0  0
  -21.3660   -5.6795   24.9180 C   0  0  0  0  0  0
  -21.6039   -4.3056   24.7233 C   0  0  0  0  0  0
  -21.8820   -3.8149   23.4357 C   0  0  0  0  0  0
  -21.9186   -4.6964   22.3409 C   0  0  0  0  0  0
  -22.7822  -13.5214   21.1869 C   0  0  0  0  0  0
  -22.1654   -4.2148   21.0986 F   0  0  0  0  0  0
  -21.5629   -3.4543   25.7745 F   0  0  0  0  0  0
  -29.9802  -13.5299   20.3833 N   0  0  0  0  0  0
  -26.2933  -12.9411   20.3292 N   0  0  0  0  0  0
  -25.9331  -11.6548   20.5771 N   0  0  0  0  0  0
  -22.0470  -12.8199   22.0422 N   0  0  0  0  0  0
  -25.4241  -15.1925   20.4184 N   0  0  0  0  0  0
  -31.8301  -14.8055   20.2156 O   0  0  0  0  0  0
  -21.6629   -6.8878   21.4247 O   0  0  0  0  0  0
  -22.3502  -14.5520   20.6722 O   0  0  0  0  0  0
  -24.6325  -31.8546   23.1992 C   0  0  0  0  0  0
  -25.9144  -32.4752   23.8340 C   0  0  1  0  0  0
  -27.2094  -27.2488   20.1433 C   0  0  0  0  0  0
  -25.5935  -33.8556   24.2258 N   0  0  0  0  0  0
  -23.4311  -30.4769   21.5434 C   0  0  2  0  0  0
  -24.8798  -28.9287   20.1071 C   0  0  0  0  0  0
  -22.7516  -29.4593   22.4912 C   0  0  0  0  0  0
  -18.0290  -28.1391   22.8478 C   0  0  0  0  0  0
  -24.1491  -36.7282   23.2641 C   0  0  0  0  0  0
  -25.9786  -30.7638   21.3843 C   0  0  0  0  0  0
  -26.0522  -29.3866   20.7254 C   0  0  0  0  0  0
  -27.2247  -28.5595   20.7332 C   0  0  0  0  0  0
  -26.0255  -26.8761   19.4720 C   0  0  0  0  0  0
  -24.8730  -27.6825   19.4650 C   0  0  0  0  0  0
  -23.6510  -29.8155   20.1579 C   0  0  0  0  0  0
  -25.4117  -36.3066   24.0322 C   0  0  1  0  0  0
  -20.5893  -28.3707   23.1256 C   0  0  2  0  0  0
  -20.6781  -26.9422   22.5398 C   0  0  0  0  0  0
  -19.5762  -26.6385   21.5204 C   0  0  0  0  0  0
  -18.1938  -26.7931   22.1612 C   0  0  0  0  0  0
  -19.1543  -28.8865   23.2858 C   0  0  0  0  0  0
  -18.9464  -30.1462   23.8881 C   0  0  0  0  0  0
  -17.6466  -30.6592   24.0560 C   0  0  0  0  0  0
  -25.9059  -34.9435   23.5094 C   0  0  0  0  0  0
  -16.5354  -29.9086   23.6339 C   0  0  0  0  0  0
  -16.7275  -28.6507   23.0360 C   0  0  0  0  0  0
  -26.4509  -31.6585   25.0732 C   0  0  0  0  0  0
  -25.3716  -31.3725   26.1441 C   0  0  0  0  0  0
  -27.0368  -30.2996   24.6237 C   0  0  0  0  0  0
  -27.6064  -32.4325   25.7493 C   0  0  0  0  0  0
  -27.5583  -37.1790   24.8463 C   0  0  0  0  0  0
  -21.4218  -29.3048   22.3645 N   0  0  0  0  0  0
  -26.4294  -37.3763   23.9404 N   0  0  0  0  0  0
  -24.6997  -31.0497   22.0986 N   0  0  0  0  0  0
  -23.4203  -28.8135   23.3023 O   0  0  0  0  0  0
  -28.2481  -26.2877   20.2058 O   0  0  0  0  0  0
  -26.5632  -34.8920   22.4670 O   0  0  0  0  0  0
  -23.5467  -32.1382   23.7264 O   0  0  0  0  0  0
  -29.6342  -23.1093   21.4117 C   0  0  0  0  0  0
  -28.3868  -21.1013   19.9278 C   0  0  0  0  0  0
  -28.5396  -23.5379   20.6132 C   0  0  0  0  0  0
  -30.0798  -21.7453   21.4812 C   0  0  0  0  0  0
  -27.9391  -22.4745   19.8540 C   0  0  0  0  0  0
  -29.4695  -20.6790   20.7526 C   0  0  0  0  0  0
  -29.7317  -16.8891   21.5722 C   0  0  0  0  0  0
  -29.4035  -18.0427   20.5668 C   0  0  2  0  0  0
  -30.1815  -17.1003   19.5964 C   0  0  2  0  0  0
  -31.2232  -21.4090   22.4208 C   0  0  0  0  0  0
  -26.7420  -22.7769   18.9713 C   0  0  0  0  0  0
  -29.0070  -18.0302   15.9567 C   0  0  0  0  0  0
  -27.8560  -24.9769   20.8417 C   0  0  0  0  0  0
  -29.5751  -18.2079   17.3737 C   0  0  0  0  0  0
  -29.6967  -16.8891   18.1572 C   0  0  1  0  0  0
  -29.8493  -15.9084   20.4527 N   0  0  0  0  0  0
  -30.6438  -16.0872   17.4767 O   0  0  0  0  0  0
  -30.0102  -19.3615   20.9053 O   0  0  0  0  0  0
  -31.4686  -12.5831   19.1605 H   0  0  0  0  0  0
  -30.3733  -11.4852   19.9593 H   0  0  0  0  0  0
  -29.7860  -11.7225   17.5192 H   0  0  0  0  0  0
  -29.6303  -13.4509   17.7111 H   0  0  0  0  0  0
  -27.8884  -11.2812   18.9139 H   0  0  0  0  0  0
  -27.3754  -12.5190   17.7999 H   0  0  0  0  0  0
  -27.6289  -14.2544   19.4613 H   0  0  0  0  0  0
  -28.7239  -12.1972   21.4406 H   0  0  0  0  0  0
  -28.4268  -13.8895   21.7708 H   0  0  0  0  0  0
  -25.2768   -9.5658   22.4766 H   0  0  0  0  0  0
  -23.9990   -7.4619   22.7480 H   0  0  0  0  0  0
  -21.0844   -8.8783   19.8947 H   0  0  0  0  0  0
  -22.3723  -10.9668   19.6168 H   0  0  0  0  0  0
  -21.2006   -7.6152   23.9725 H   0  0  0  0  0  0
  -21.1480   -6.0526   25.9084 H   0  0  0  0  0  0
  -22.0599   -2.7612   23.2861 H   0  0  0  0  0  0
  -22.4089  -11.9853   22.4800 H   0  0  0  0  0  0
  -21.1091  -13.1224   22.2647 H   0  0  0  0  0  0
  -24.6650  -15.8536   20.5426 H   0  0  0  0  0  0
  -26.2938  -15.6314   20.1447 H   0  0  0  0  0  0
  -26.7214  -32.5407   23.1080 H   0  0  0  0  0  0
  -25.0068  -33.9687   25.0392 H   0  0  0  0  0  0
  -22.7283  -31.2997   21.3979 H   0  0  0  0  0  0
  -23.3762  -35.9611   23.3294 H   0  0  0  0  0  0
  -24.3582  -36.8923   22.2061 H   0  0  0  0  0  0
  -23.7240  -37.6474   23.6685 H   0  0  0  0  0  0
  -26.1180  -31.5244   20.6152 H   0  0  0  0  0  0
  -26.8550  -30.8119   22.0181 H   0  0  0  0  0  0
  -28.1180  -28.8969   21.2406 H   0  0  0  0  0  0
  -25.9750  -25.9206   18.9704 H   0  0  0  0  0  0
  -23.9799  -27.3306   18.9669 H   0  0  0  0  0  0
  -23.7743  -30.5946   19.4046 H   0  0  0  0  0  0
  -22.7697  -29.2482   19.8533 H   0  0  0  0  0  0
  -25.1294  -36.1915   25.0812 H   0  0  0  0  0  0
  -20.9971  -28.3294   24.1385 H   0  0  0  0  0  0
  -20.5685  -26.2317   23.3605 H   0  0  0  0  0  0
  -21.6653  -26.7454   22.1194 H   0  0  0  0  0  0
  -19.6935  -25.6291   21.1250 H   0  0  0  0  0  0
  -19.6708  -27.3182   20.6726 H   0  0  0  0  0  0
  -17.4207  -26.6667   21.4016 H   0  0  0  0  0  0
  -18.0346  -26.0069   22.9003 H   0  0  0  0  0  0
  -19.7945  -30.7270   24.2256 H   0  0  0  0  0  0
  -17.5030  -31.6275   24.5157 H   0  0  0  0  0  0
  -15.5361  -30.2989   23.7687 H   0  0  0  0  0  0
  -15.8669  -28.0827   22.7092 H   0  0  0  0  0  0
  -24.5907  -30.7062   25.7753 H   0  0  0  0  0  0
  -24.8880  -32.2887   26.4843 H   0  0  0  0  0  0
  -25.8011  -30.8913   27.0236 H   0  0  0  0  0  0
  -26.2966  -29.6712   24.1268 H   0  0  0  0  0  0
  -27.4058  -29.7282   25.4763 H   0  0  0  0  0  0
  -27.8839  -30.4265   23.9490 H   0  0  0  0  0  0
  -27.2709  -33.3666   26.2010 H   0  0  0  0  0  0
  -28.3905  -32.6813   25.0329 H   0  0  0  0  0  0
  -28.0706  -31.8483   26.5450 H   0  0  0  0  0  0
  -28.2581  -38.0103   24.7522 H   0  0  0  0  0  0
  -28.1094  -36.2626   24.6278 H   0  0  0  0  0  0
  -27.2294  -37.1426   25.8865 H   0  0  0  0  0  0
  -20.9416  -29.8768   21.6833 H   0  0  0  0  0  0
  -26.0172  -38.2837   24.1417 H   0  0  0  0  0  0
  -30.1068  -23.8435   22.0495 H   0  0  0  0  0  0
  -27.8673  -20.3582   19.3411 H   0  0  0  0  0  0
  -28.9152  -16.6810   22.2640 H   0  0  0  0  0  0
  -30.6643  -17.0414   22.1198 H   0  0  0  0  0  0
  -28.3367  -18.0937   20.3427 H   0  0  0  0  0  0
  -31.2437  -17.3575   19.6302 H   0  0  0  0  0  0
  -31.5479  -22.2763   22.9960 H   0  0  0  0  0  0
  -32.0760  -21.0315   21.8585 H   0  0  0  0  0  0
  -30.9145  -20.6385   23.1279 H   0  0  0  0  0  0
  -26.6165  -22.0157   18.2008 H   0  0  0  0  0  0
  -26.8633  -23.7346   18.4647 H   0  0  0  0  0  0
  -25.8281  -22.8106   19.5659 H   0  0  0  0  0  0
  -28.8815  -18.9960   15.4673 H   0  0  0  0  0  0
  -28.0301  -17.5463   15.9819 H   0  0  0  0  0  0
  -29.6638  -17.4295   15.3278 H   0  0  0  0  0  0
  -27.9709  -25.1641   21.9093 H   0  0  0  0  0  0
  -26.7843  -24.8101   20.7484 H   0  0  0  0  0  0
  -28.9187  -18.8870   17.9167 H   0  0  0  0  0  0
  -30.5440  -18.7079   17.3240 H   0  0  0  0  0  0
  -28.7289  -16.3827   18.1538 H   0  0  0  0  0  0
  -30.3335  -15.9753   16.5844 H   0  0  0  0  0  0
  1 25  1  0  0  0
  1 30  2  0  0  0
  1 86  1  0  0  0
  2  3  1  0  0  0
  2 25  1  0  0  0
  2 89  1  0  0  0
  2 90  1  0  0  0
  3  4  1  0  0  0
  3 91  1  0  0  0
  3 92  1  0  0  0
  4  5  1  0  0  0
  4 93  1  0  0  0
  4 94  1  0  0  0
  5  6  1  0  0  0
  5 26  1  0  0  0
  5 95  1  0  0  0
  6 25  1  0  0  0
  6 96  1  0  0  0
  6 97  1  0  0  0
  7  8  2  0  0  0
  7 26  1  0  0  0
  7 29  1  0  0  0
  8  9  1  0  0  0
  8 22  1  0  0  0
  9 10  1  0  0  0
  9 27  2  0  0  0
 10 11  2  0  0  0
 10 15  1  0  0  0
 11 12  1  0  0  0
 11 98  1  0  0  0
 12 13  2  0  0  0
 12 99  1  0  0  0
 13 14  1  0  0  0
 13 31  1  0  0  0
 14 15  2  0  0  0
 14100  1  0  0  0
 15101  1  0  0  0
 16 17  2  0  0  0
 16 21  1  0  0  0
 16 31  1  0  0  0
 17 18  1  0  0  0
 17102  1  0  0  0
 18 19  2  0  0  0
 18103  1  0  0  0
 19 20  1  0  0  0
 19 24  1  0  0  0
 20 21  2  0  0  0
 20104  1  0  0  0
 21 23  1  0  0  0
 22 28  1  0  0  0
 22 32  2  0  0  0
 26 27  1  0  0  0
 28105  1  0  0  0
 28106  1  0  0  0
 29107  1  0  0  0
 29108  1  0  0  0
 33 34  1  0  0  0
 33 66  1  0  0  0
 33 70  2  0  0  0
 34 36  1  0  0  0
 34 59  1  0  0  0
 34109  1  0  0  0
 35 44  2  0  0  0
 35 45  1  0  0  0
 35 68  1  0  0  0
 36 56  1  0  0  0
 36110  1  0  0  0
 37 39  1  0  0  0
 37 47  1  0  0  0
 37 66  1  0  0  0
 37111  1  0  0  0
 38 43  2  0  0  0
 38 46  1  0  0  0
 38 47  1  0  0  0
 39 64  1  0  0  0
 39 67  2  0  0  0
 40 52  1  0  0  0
 40 53  2  0  0  0
 40 58  1  0  0  0
 41112  1  0  0  0
 41113  1  0  0  0
 41114  1  0  0  0
 41 48  1  0  0  0
 42 43  1  0  0  0
 42 66  1  0  0  0
 42115  1  0  0  0
 42116  1  0  0  0
 43 44  1  0  0  0
 44117  1  0  0  0
 45 46  2  0  0  0
 45118  1  0  0  0
 46119  1  0  0  0
 47120  1  0  0  0
 47121  1  0  0  0
 48 56  1  0  0  0
 48 65  1  0  0  0
 48122  1  0  0  0
 49 50  1  0  0  0
 49 53  1  0  0  0
 49 64  1  0  0  0
 49123  1  0  0  0
 50 51  1  0  0  0
 50124  1  0  0  0
 50125  1  0  0  0
 51 52  1  0  0  0
 51126  1  0  0  0
 51127  1  0  0  0
 52128  1  0  0  0
 52129  1  0  0  0
 53 54  1  0  0  0
 54 55  2  0  0  0
 54130  1  0  0  0
 55 57  1  0  0  0
 55131  1  0  0  0
 56 69  2  0  0  0
 57 58  2  0  0  0
 57132  1  0  0  0
 58133  1  0  0  0
 59 60  1  0  0  0
 59 61  1  0  0  0
 59 62  1  0  0  0
 60134  1  0  0  0
 60135  1  0  0  0
 60136  1  0  0  0
 61137  1  0  0  0
 61138  1  0  0  0
 61139  1  0  0  0
 62140  1  0  0  0
 62141  1  0  0  0
 62142  1  0  0  0
 63 65  1  0  0  0
 63143  1  0  0  0
 63144  1  0  0  0
 63145  1  0  0  0
 64146  1  0  0  0
 65147  1  0  0  0
 68 83  1  0  0  0
 71 73  2  0  0  0
 71 74  1  0  0  0
 71148  1  0  0  0
 72 75  2  0  0  0
 72 76  1  0  0  0
 72149  1  0  0  0
 73 75  1  0  0  0
 73 83  1  0  0  0
 74 76  2  0  0  0
 74 80  1  0  0  0
 75 81  1  0  0  0
 76 88  1  0  0  0
 77 78  1  0  0  0
 77 86  1  0  0  0
 77150  1  0  0  0
 77151  1  0  0  0
 78 79  1  0  0  0
 78 88  1  0  0  0
 78152  1  0  0  0
 79 85  1  0  0  0
 79 86  1  0  0  0
 79153  1  0  0  0
 80154  1  0  0  0
 80155  1  0  0  0
 80156  1  0  0  0
 81157  1  0  0  0
 81158  1  0  0  0
 81159  1  0  0  0
 82 84  1  0  0  0
 82160  1  0  0  0
 82161  1  0  0  0
 82162  1  0  0  0
 83163  1  0  0  0
 83164  1  0  0  0
 84 85  1  0  0  0
 84165  1  0  0  0
 84166  1  0  0  0
 85 87  1  0  0  0
 85167  1  0  0  0
 87168  1  0  0  0
M  ISO  4   1 100  68 101  83 101  86 100
M  END
> <chiral flag>
0

> <version>
0

> <s_m_source_file>
/data/baiqing/PycharmProjects/Reinvent-master-3.2/result/LINK_invent/BTK/process_docking_weight1_custom_sum_contain_oxygen_bond_distance_aromatic_linkinvent_7_9_3/rearranged_h_0142.sdf

> <i_m_source_file_index>
14

> <r_mmod_Potential_Energy-OPLS-2005>
273.679412841797

> <r_mmod_Stretch_Energy-OPLS-2005>
117.650413513184

> <r_mmod_Bend_Energy-OPLS-2005>
201.807678222656

> <r_mmod_Torsional_Energy-OPLS-2005>
324.683715820312

> <r_mmod_Improper_Torsional_Energy-OPLS-2005>
18.6707038879395

> <r_mmod_Van_der_Waal_Energy-OPLS-2005>
126.392791748047

> <r_mmod_Electrostatic_Energy-OPLS-2005>
-391.813354492188

> <r_mmod_Solvation_Energy-OPLS-2005>
-222.390289306641

> <b_mmod_Minimization_Converged-OPLS-2005>
0

> <r_mmod_RMS_Derivative-OPLS-2005>
1.40024662017822

$$$$
14
                    3D
 Structure written by MMmdl.
167176  0  0  1  0            999 V2000
  -30.6771  -14.4902   20.5518 C   0  0  0  0  0  0
  -30.4265  -12.3092   19.4269 C   0  0  0  0  0  0
  -29.4979  -12.5064   18.2096 C   0  0  0  0  0  0
  -28.0182  -12.3655   18.6195 C   0  0  0  0  0  0
  -27.6628  -13.2043   19.8763 C   0  0  2  0  0  0
  -28.7037  -12.9818   20.9975 C   0  0  0  0  0  0
  -25.2599  -13.8155   20.5676 C   0  0  0  0  0  0
  -24.1845  -13.0438   20.9173 C   0  0  0  0  0  0
  -24.6393  -11.6902   20.8729 C   0  0  0  0  0  0
  -23.9056  -10.4291   21.0403 C   0  0  0  0  0  0
  -24.3611   -9.4207   21.9180 C   0  0  0  0  0  0
  -23.6289   -8.2242   22.0752 C   0  0  0  0  0  0
  -22.4272   -8.0280   21.3544 C   0  0  0  0  0  0
  -21.9903   -9.0253   20.4647 C   0  0  0  0  0  0
  -22.7228  -10.2134   20.3054 C   0  0  0  0  0  0
  -21.6852   -6.0735   22.5278 C   0  0  0  0  0  0
  -21.4014   -6.5639   23.8211 C   0  0  0  0  0  0
  -21.3659   -5.6793   24.9173 C   0  0  0  0  0  0
  -21.6047   -4.3055   24.7226 C   0  0  0  0  0  0
  -21.8818   -3.8147   23.4345 C   0  0  0  0  0  0
  -21.9193   -4.6963   22.3401 C   0  0  0  0  0  0
  -22.7871  -13.5241   21.1841 C   0  0  0  0  0  0
  -22.1662   -4.2149   21.0979 F   0  0  0  0  0  0
  -21.5629   -3.4538   25.7738 F   0  0  0  0  0  0
  -30.0356  -13.2933   20.4492 N   0  0  0  0  0  0
  -26.3029  -12.9316   20.3364 N   0  0  0  0  0  0
  -25.9318  -11.6479   20.5759 N   0  0  0  0  0  0
  -22.0513  -12.8235   22.0400 N   0  0  0  0  0  0
  -25.4335  -15.1871   20.4083 N   0  0  0  0  0  0
  -31.8122  -14.6691   20.1011 O   0  0  0  0  0  0
  -21.6638   -6.8876   21.4239 O   0  0  0  0  0  0
  -22.3557  -14.5550   20.6695 O   0  0  0  0  0  0
  -24.6150  -31.8671   23.2088 C   0  0  0  0  0  0
  -25.9039  -32.4819   23.8385 C   0  0  1  0  0  0
  -27.2325  -27.4303   20.1018 C   0  0  0  0  0  0
  -25.5897  -33.8616   24.2320 N   0  0  0  0  0  0
  -23.4039  -30.4900   21.5495 C   0  0  2  0  0  0
  -24.8517  -28.9556   20.1128 C   0  0  0  0  0  0
  -22.7413  -29.4654   22.4987 C   0  0  0  0  0  0
  -18.0273  -28.1373   22.8489 C   0  0  0  0  0  0
  -24.1490  -36.7315   23.2638 C   0  0  0  0  0  0
  -25.9333  -30.8331   21.3617 C   0  0  0  0  0  0
  -26.0129  -29.4684   20.7063 C   0  0  0  0  0  0
  -27.2105  -28.7153   20.6925 C   0  0  0  0  0  0
  -26.0578  -26.9326   19.5011 C   0  0  0  0  0  0
  -24.8697  -27.6880   19.5042 C   0  0  0  0  0  0
  -23.6127  -29.8219   20.1641 C   0  0  0  0  0  0
  -25.4110  -36.3111   24.0339 C   0  0  1  0  0  0
  -20.5865  -28.3660   23.1320 C   0  0  2  0  0  0
  -20.6767  -26.9395   22.5425 C   0  0  0  0  0  0
  -19.5751  -26.6381   21.5213 C   0  0  0  0  0  0
  -18.1924  -26.7920   22.1617 C   0  0  0  0  0  0
  -19.1523  -28.8832   23.2902 C   0  0  0  0  0  0
  -18.9452  -30.1438   23.8913 C   0  0  0  0  0  0
  -17.6456  -30.6583   24.0564 C   0  0  0  0  0  0
  -25.9036  -34.9475   23.5127 C   0  0  0  0  0  0
  -16.5346  -29.9086   23.6325 C   0  0  0  0  0  0
  -16.7263  -28.6502   23.0347 C   0  0  0  0  0  0
  -26.4467  -31.6596   25.0711 C   0  0  0  0  0  0
  -25.3737  -31.3721   26.1468 C   0  0  0  0  0  0
  -27.0285  -30.3033   24.6080 C   0  0  0  0  0  0
  -27.6050  -32.4310   25.7468 C   0  0  0  0  0  0
  -27.5589  -37.1804   24.8459 C   0  0  0  0  0  0
  -21.4141  -29.3028   22.3726 N   0  0  0  0  0  0
  -26.4295  -37.3796   23.9414 N   0  0  0  0  0  0
  -24.6690  -31.0772   22.0987 N   0  0  0  0  0  0
  -23.4179  -28.8199   23.3034 O   0  0  0  0  0  0
  -28.3699  -26.6525   20.1272 O   0  0  0  0  0  0
  -26.5600  -34.8927   22.4690 O   0  0  0  0  0  0
  -23.5342  -32.1423   23.7482 O   0  0  0  0  0  0
  -28.8378  -19.0746   21.1315 C   0  0  0  0  0  0
  -28.9029  -17.6806   21.3571 C   0  0  0  0  0  0
  -30.9863  -17.5766   20.1272 C   0  0  0  0  0  0
  -30.9317  -18.9738   19.8977 C   0  0  0  0  0  0
  -29.8306  -19.7395   20.3763 C   0  0  0  0  0  0
  -29.9684  -16.9038   20.8489 C   0  0  0  0  0  0
  -29.6481  -21.7729   18.9471 C   0  0  0  0  0  0
  -29.6220  -23.2934   19.1022 C   0  0  0  0  0  0
  -29.5429  -22.1356   21.2177 C   0  0  0  0  0  0
  -29.9852  -23.4736   20.5822 C   0  0  2  0  0  0
  -32.0929  -19.6192   19.1565 C   0  0  0  0  0  0
  -30.5360  -26.8996   22.4753 C   0  0  0  0  0  0
  -30.7371  -25.8040   21.4152 C   0  0  0  0  0  0
  -28.2256  -25.4632   20.9303 C   0  0  0  0  0  0
  -29.5723  -24.7875   21.3338 C   0  0  2  0  0  0
  -29.7132  -21.1551   20.1448 N   0  0  0  0  0  0
  -29.9329  -15.4858   21.0835 N   0  0  0  0  0  0
  -29.6055  -21.2264   17.8406 O   0  0  0  0  0  0
  -31.4714  -12.4096   19.1276 H   0  0  0  0  0  0
  -30.3280  -11.2977   19.8238 H   0  0  0  0  0  0
  -29.7395  -11.7829   17.4299 H   0  0  0  0  0  0
  -29.6655  -13.4924   17.7733 H   0  0  0  0  0  0
  -27.8285  -11.3093   18.8145 H   0  0  0  0  0  0
  -27.3687  -12.6410   17.7879 H   0  0  0  0  0  0
  -27.7073  -14.2525   19.5799 H   0  0  0  0  0  0
  -28.6816  -11.9439   21.3330 H   0  0  0  0  0  0
  -28.4622  -13.5740   21.8812 H   0  0  0  0  0  0
  -25.2758   -9.5687   22.4748 H   0  0  0  0  0  0
  -24.0003   -7.4636   22.7467 H   0  0  0  0  0  0
  -21.0834   -8.8767   19.8953 H   0  0  0  0  0  0
  -22.3682  -10.9671   19.6163 H   0  0  0  0  0  0
  -21.2005   -7.6147   23.9714 H   0  0  0  0  0  0
  -21.1483   -6.0523   25.9077 H   0  0  0  0  0  0
  -22.0598   -2.7609   23.2845 H   0  0  0  0  0  0
  -22.4128  -11.9893   22.4784 H   0  0  0  0  0  0
  -21.1134  -13.1263   22.2613 H   0  0  0  0  0  0
  -24.6663  -15.8425   20.5099 H   0  0  0  0  0  0
  -26.2845  -15.6228   20.0755 H   0  0  0  0  0  0
  -26.7114  -32.5535   23.1152 H   0  0  0  0  0  0
  -25.0049  -33.9777   25.0466 H   0  0  0  0  0  0
  -22.6933  -31.3073   21.4102 H   0  0  0  0  0  0
  -23.3751  -35.9646   23.3297 H   0  0  0  0  0  0
  -24.3591  -36.8931   22.2053 H   0  0  0  0  0  0
  -23.7235  -37.6516   23.6653 H   0  0  0  0  0  0
  -26.0470  -31.6007   20.5947 H   0  0  0  0  0  0
  -26.8202  -30.8848   21.9816 H   0  0  0  0  0  0
  -28.1071  -29.1046   21.1540 H   0  0  0  0  0  0
  -26.0599  -25.9574   19.0350 H   0  0  0  0  0  0
  -23.9780  -27.2874   19.0419 H   0  0  0  0  0  0
  -23.7208  -30.5971   19.4044 H   0  0  0  0  0  0
  -22.7367  -29.2415   19.8683 H   0  0  0  0  0  0
  -25.1284  -36.1977   25.0832 H   0  0  0  0  0  0
  -20.9960  -28.3228   24.1438 H   0  0  0  0  0  0
  -20.5671  -26.2264   23.3612 H   0  0  0  0  0  0
  -21.6640  -26.7445   22.1217 H   0  0  0  0  0  0
  -19.6917  -25.6295   21.1233 H   0  0  0  0  0  0
  -19.6696  -27.3203   20.6752 H   0  0  0  0  0  0
  -17.4201  -26.6672   21.4012 H   0  0  0  0  0  0
  -18.0322  -26.0056   22.9007 H   0  0  0  0  0  0
  -19.7930  -30.7243   24.2298 H   0  0  0  0  0  0
  -17.5015  -31.6268   24.5157 H   0  0  0  0  0  0
  -15.5348  -30.2996   23.7639 H   0  0  0  0  0  0
  -15.8662  -28.0830   22.7050 H   0  0  0  0  0  0
  -24.5894  -30.7080   25.7816 H   0  0  0  0  0  0
  -24.8943  -32.2886   26.4919 H   0  0  0  0  0  0
  -25.8086  -30.8889   27.0225 H   0  0  0  0  0  0
  -26.2820  -29.6814   24.1122 H   0  0  0  0  0  0
  -27.4041  -29.7250   25.4531 H   0  0  0  0  0  0
  -27.8667  -30.4346   23.9231 H   0  0  0  0  0  0
  -27.2672  -33.3599   26.2079 H   0  0  0  0  0  0
  -28.3836  -32.6890   25.0277 H   0  0  0  0  0  0
  -28.0741  -31.8412   26.5353 H   0  0  0  0  0  0
  -28.2601  -38.0109   24.7527 H   0  0  0  0  0  0
  -28.1092  -36.2643   24.6253 H   0  0  0  0  0  0
  -27.2318  -37.1420   25.8864 H   0  0  0  0  0  0
  -20.9301  -29.8747   21.6949 H   0  0  0  0  0  0
  -26.0187  -38.2874   24.1422 H   0  0  0  0  0  0
  -27.9981  -19.6294   21.5260 H   0  0  0  0  0  0
  -28.1081  -17.2099   21.9194 H   0  0  0  0  0  0
  -31.8321  -17.0350   19.7328 H   0  0  0  0  0  0
  -28.6231  -23.6476   18.8551 H   0  0  0  0  0  0
  -30.3388  -23.7782   18.4395 H   0  0  0  0  0  0
  -28.4948  -22.1669   21.5196 H   0  0  0  0  0  0
  -30.1440  -21.8819   22.0919 H   0  0  0  0  0  0
  -31.0757  -23.4301   20.6132 H   0  0  0  0  0  0
  -32.9942  -19.0100   19.2299 H   0  0  0  0  0  0
  -32.3341  -20.5990   19.5692 H   0  0  0  0  0  0
  -31.8560  -19.7357   18.0989 H   0  0  0  0  0  0
  -31.3942  -27.5717   22.5044 H   0  0  0  0  0  0
  -30.4217  -26.4694   23.4708 H   0  0  0  0  0  0
  -29.6550  -27.5080   22.2737 H   0  0  0  0  0  0
  -31.6632  -25.2844   21.6639 H   0  0  0  0  0  0
  -30.9055  -26.2580   20.4377 H   0  0  0  0  0  0
  -27.7238  -25.7527   21.8567 H   0  0  0  0  0  0
  -27.5550  -24.7461   20.4580 H   0  0  0  0  0  0
  -29.4241  -24.4552   22.3632 H   0  0  0  0  0  0
  -29.0886  -15.1515   21.5223 H   0  0  0  0  0  0
  1 25  1  0  0  0
  1 30  2  0  0  0
  1 87  1  0  0  0
  2  3  1  0  0  0
  2 25  1  0  0  0
  2 89  1  0  0  0
  2 90  1  0  0  0
  3  4  1  0  0  0
  3 91  1  0  0  0
  3 92  1  0  0  0
  4  5  1  0  0  0
  4 93  1  0  0  0
  4 94  1  0  0  0
  5  6  1  0  0  0
  5 26  1  0  0  0
  5 95  1  0  0  0
  6 25  1  0  0  0
  6 96  1  0  0  0
  6 97  1  0  0  0
  7  8  2  0  0  0
  7 26  1  0  0  0
  7 29  1  0  0  0
  8  9  1  0  0  0
  8 22  1  0  0  0
  9 10  1  0  0  0
  9 27  2  0  0  0
 10 11  2  0  0  0
 10 15  1  0  0  0
 11 12  1  0  0  0
 11 98  1  0  0  0
 12 13  2  0  0  0
 12 99  1  0  0  0
 13 14  1  0  0  0
 13 31  1  0  0  0
 14 15  2  0  0  0
 14100  1  0  0  0
 15101  1  0  0  0
 16 17  2  0  0  0
 16 21  1  0  0  0
 16 31  1  0  0  0
 17 18  1  0  0  0
 17102  1  0  0  0
 18 19  2  0  0  0
 18103  1  0  0  0
 19 20  1  0  0  0
 19 24  1  0  0  0
 20 21  2  0  0  0
 20104  1  0  0  0
 21 23  1  0  0  0
 22 28  1  0  0  0
 22 32  2  0  0  0
 26 27  1  0  0  0
 28105  1  0  0  0
 28106  1  0  0  0
 29107  1  0  0  0
 29108  1  0  0  0
 33 34  1  0  0  0
 33 66  1  0  0  0
 33 70  2  0  0  0
 34 36  1  0  0  0
 34 59  1  0  0  0
 34109  1  0  0  0
 35 44  2  0  0  0
 35 45  1  0  0  0
 35 68  1  0  0  0
 36 56  1  0  0  0
 36110  1  0  0  0
 37 39  1  0  0  0
 37 47  1  0  0  0
 37 66  1  0  0  0
 37111  1  0  0  0
 38 43  2  0  0  0
 38 46  1  0  0  0
 38 47  1  0  0  0
 39 64  1  0  0  0
 39 67  2  0  0  0
 40 52  1  0  0  0
 40 53  2  0  0  0
 40 58  1  0  0  0
 41112  1  0  0  0
 41113  1  0  0  0
 41114  1  0  0  0
 41 48  1  0  0  0
 42 43  1  0  0  0
 42 66  1  0  0  0
 42115  1  0  0  0
 42116  1  0  0  0
 43 44  1  0  0  0
 44117  1  0  0  0
 45 46  2  0  0  0
 45118  1  0  0  0
 46119  1  0  0  0
 47120  1  0  0  0
 47121  1  0  0  0
 48 56  1  0  0  0
 48 65  1  0  0  0
 48122  1  0  0  0
 49 50  1  0  0  0
 49 53  1  0  0  0
 49 64  1  0  0  0
 49123  1  0  0  0
 50 51  1  0  0  0
 50124  1  0  0  0
 50125  1  0  0  0
 51 52  1  0  0  0
 51126  1  0  0  0
 51127  1  0  0  0
 52128  1  0  0  0
 52129  1  0  0  0
 53 54  1  0  0  0
 54 55  2  0  0  0
 54130  1  0  0  0
 55 57  1  0  0  0
 55131  1  0  0  0
 56 69  2  0  0  0
 57 58  2  0  0  0
 57132  1  0  0  0
 58133  1  0  0  0
 59 60  1  0  0  0
 59 61  1  0  0  0
 59 62  1  0  0  0
 60134  1  0  0  0
 60135  1  0  0  0
 60136  1  0  0  0
 61137  1  0  0  0
 61138  1  0  0  0
 61139  1  0  0  0
 62140  1  0  0  0
 62141  1  0  0  0
 62142  1  0  0  0
 63 65  1  0  0  0
 63143  1  0  0  0
 63144  1  0  0  0
 63145  1  0  0  0
 64146  1  0  0  0
 65147  1  0  0  0
 68 84  1  0  0  0
 71 72  2  0  0  0
 71 75  1  0  0  0
 71148  1  0  0  0
 72 76  1  0  0  0
 72149  1  0  0  0
 73 74  1  0  0  0
 73 76  2  0  0  0
 73150  1  0  0  0
 74 75  2  0  0  0
 74 81  1  0  0  0
 75 86  1  0  0  0
 76 87  1  0  0  0
 77 78  1  0  0  0
 77 86  1  0  0  0
 77 88  2  0  0  0
 78151  1  0  0  0
 78152  1  0  0  0
 78 80  1  0  0  0
 79 80  1  0  0  0
 79 86  1  0  0  0
 79153  1  0  0  0
 79154  1  0  0  0
 80 85  1  0  0  0
 80155  1  0  0  0
 81156  1  0  0  0
 81157  1  0  0  0
 81158  1  0  0  0
 82 83  1  0  0  0
 82159  1  0  0  0
 82160  1  0  0  0
 82161  1  0  0  0
 83162  1  0  0  0
 83163  1  0  0  0
 83 85  1  0  0  0
 84 85  1  0  0  0
 84164  1  0  0  0
 84165  1  0  0  0
 85166  1  0  0  0
 87167  1  0  0  0
M  ISO  4   1 100  68 101  84 101  87 100
M  END
> <chiral flag>
0

> <version>
0

> <s_m_source_file>
/data/baiqing/PycharmProjects/Reinvent-master-3.2/result/LINK_invent/BTK/process_docking_weight1_custom_sum_contain_oxygen_bond_distance_aromatic_linkinvent_7_9_3/rearranged_h_0142.sdf

> <i_m_source_file_index>
15

> <r_mmod_Potential_Energy-OPLS-2005>
125.089134216309

> <r_mmod_Stretch_Energy-OPLS-2005>
43.5549621582031

> <r_mmod_Bend_Energy-OPLS-2005>
146.609420776367

> <r_mmod_Torsional_Energy-OPLS-2005>
330.289306640625

> <r_mmod_Improper_Torsional_Energy-OPLS-2005>
3.71766567230225

> <r_mmod_Van_der_Waal_Energy-OPLS-2005>
147.453109741211

> <r_mmod_Electrostatic_Energy-OPLS-2005>
-345.953582763672

> <r_mmod_Solvation_Energy-OPLS-2005>
-215.493453979492

> <b_mmod_Minimization_Converged-OPLS-2005>
0

> <r_mmod_RMS_Derivative-OPLS-2005>
0.527826905250549

$$$$
15
                    3D
 Structure written by MMmdl.
162171  0  0  1  0            999 V2000
  -30.7281  -14.3924   20.5668 C   0  0  0  0  0  0
  -30.4241  -12.2646   19.3875 C   0  0  0  0  0  0
  -29.4830  -12.4977   18.1883 C   0  0  0  0  0  0
  -28.0097  -12.3619   18.6150 C   0  0  0  0  0  0
  -27.6733  -13.1935   19.8808 C   0  0  2  0  0  0
  -28.7187  -12.9351   20.9912 C   0  0  0  0  0  0
  -25.2673  -13.8153   20.5667 C   0  0  0  0  0  0
  -24.1903  -13.0454   20.9210 C   0  0  0  0  0  0
  -24.6453  -11.6916   20.8789 C   0  0  0  0  0  0
  -23.9100  -10.4299   21.0424 C   0  0  0  0  0  0
  -24.3639   -9.4205   21.9188 C   0  0  0  0  0  0
  -23.6292   -8.2251   22.0746 C   0  0  0  0  0  0
  -22.4270   -8.0305   21.3539 C   0  0  0  0  0  0
  -21.9931   -9.0297   20.4638 C   0  0  0  0  0  0
  -22.7284  -10.2171   20.3043 C   0  0  0  0  0  0
  -21.6860   -6.0746   22.5266 C   0  0  0  0  0  0
  -21.4013   -6.5638   23.8205 C   0  0  0  0  0  0
  -21.3643   -5.6783   24.9162 C   0  0  0  0  0  0
  -21.6047   -4.3050   24.7216 C   0  0  0  0  0  0
  -21.8832   -3.8147   23.4336 C   0  0  0  0  0  0
  -21.9198   -4.6965   22.3395 C   0  0  0  0  0  0
  -22.7924  -13.5275   21.1851 C   0  0  0  0  0  0
  -22.1666   -4.2153   21.0974 F   0  0  0  0  0  0
  -21.5618   -3.4535   25.7734 F   0  0  0  0  0  0
  -30.0543  -13.2228   20.4372 N   0  0  0  0  0  0
  -26.3108  -12.9300   20.3412 N   0  0  0  0  0  0
  -25.9373  -11.6478   20.5801 N   0  0  0  0  0  0
  -22.0540  -12.8262   22.0398 N   0  0  0  0  0  0
  -25.4423  -15.1849   20.3996 N   0  0  0  0  0  0
  -31.8417  -14.6083   20.0782 O   0  0  0  0  0  0
  -21.6631   -6.8901   21.4237 O   0  0  0  0  0  0
  -22.3638  -14.5599   20.6721 O   0  0  0  0  0  0
  -24.6103  -31.8692   23.2104 C   0  0  0  0  0  0
  -25.9010  -32.4828   23.8386 C   0  0  1  0  0  0
  -27.2437  -27.4816   20.0761 C   0  0  0  0  0  0
  -25.5869  -33.8623   24.2340 N   0  0  0  0  0  0
  -23.3961  -30.4902   21.5517 C   0  0  2  0  0  0
  -24.8433  -28.9582   20.1174 C   0  0  0  0  0  0
  -22.7391  -29.4658   22.5017 C   0  0  0  0  0  0
  -18.0265  -28.1380   22.8415 C   0  0  0  0  0  0
  -24.1490  -36.7330   23.2637 C   0  0  0  0  0  0
  -25.9200  -30.8480   21.3561 C   0  0  0  0  0  0
  -25.9986  -29.4820   20.7107 C   0  0  0  0  0  0
  -27.2030  -28.7498   20.6882 C   0  0  0  0  0  0
  -26.0768  -26.9594   19.4807 C   0  0  0  0  0  0
  -24.8743  -27.6929   19.5026 C   0  0  0  0  0  0
  -23.6019  -29.8182   20.1669 C   0  0  0  0  0  0
  -25.4109  -36.3119   24.0343 C   0  0  1  0  0  0
  -20.5847  -28.3640   23.1340 C   0  0  2  0  0  0
  -20.6724  -26.9379   22.5411 C   0  0  0  0  0  0
  -19.5763  -26.6493   21.5068 C   0  0  0  0  0  0
  -18.1943  -26.7972   22.1493 C   0  0  0  0  0  0
  -19.1512  -28.8824   23.2876 C   0  0  0  0  0  0
  -18.9425  -30.1422   23.8907 C   0  0  0  0  0  0
  -17.6425  -30.6562   24.0594 C   0  0  0  0  0  0
  -25.9026  -34.9481   23.5146 C   0  0  0  0  0  0
  -16.5327  -29.9076   23.6315 C   0  0  0  0  0  0
  -16.7256  -28.6519   23.0260 C   0  0  0  0  0  0
  -26.4467  -31.6592   25.0708 C   0  0  0  0  0  0
  -25.3755  -31.3662   26.1465 C   0  0  0  0  0  0
  -27.0280  -30.3042   24.6027 C   0  0  0  0  0  0
  -27.6052  -32.4309   25.7470 C   0  0  0  0  0  0
  -27.5580  -37.1818   24.8465 C   0  0  0  0  0  0
  -21.4130  -29.2989   22.3731 N   0  0  0  0  0  0
  -26.4299  -37.3795   23.9410 N   0  0  0  0  0  0
  -24.6605  -31.0820   22.0994 N   0  0  0  0  0  0
  -23.4179  -28.8235   23.3064 O   0  0  0  0  0  0
  -28.4290  -26.7968   19.9976 O   0  0  0  0  0  0
  -26.5592  -34.8920   22.4702 O   0  0  0  0  0  0
  -23.5320  -32.1414   23.7540 O   0  0  0  0  0  0
  -27.0163  -19.5940   21.1932 C   0  0  0  0  0  0
  -28.8374  -21.2189   20.9763 C   0  0  0  0  0  0
  -26.1907  -20.6343   21.6412 C   0  0  0  0  0  0
  -26.6628  -21.9335   21.7637 C   0  0  0  0  0  0
  -28.3707  -19.8863   20.8825 C   0  0  0  0  0  0
  -27.9927  -22.2590   21.4204 C   0  0  0  0  0  0
  -24.7666  -20.5021   22.1066 C   0  0  0  0  0  0
  -25.6154  -22.8408   22.3516 C   0  0  0  0  0  0
  -24.3736  -21.9355   22.5363 C   0  0  0  0  0  0
  -30.2786  -16.7947   20.8551 C   0  0  0  0  0  0
  -28.9679  -17.5759   20.7834 C   0  0  0  0  0  0
  -28.6400  -25.8426   21.0300 C   0  0  0  0  0  0
  -28.0935  -24.4682   20.6229 C   0  0  0  0  0  0
  -30.0139  -15.3818   21.0973 N   0  0  0  0  0  0
  -29.2878  -18.9327   20.5119 O   0  0  0  0  0  0
  -28.5050  -23.5178   21.5933 O   0  0  0  0  0  0
  -31.4641  -12.3708   19.0715 H   0  0  0  0  0  0
  -30.3307  -11.2435   19.7604 H   0  0  0  0  0  0
  -29.7084  -11.7858   17.3937 H   0  0  0  0  0  0
  -29.6509  -13.4889   17.7666 H   0  0  0  0  0  0
  -27.8162  -11.3054   18.8057 H   0  0  0  0  0  0
  -27.3529  -12.6416   17.7901 H   0  0  0  0  0  0
  -27.7320  -14.2444   19.5955 H   0  0  0  0  0  0
  -28.6805  -11.8914   21.3116 H   0  0  0  0  0  0
  -28.4980  -13.5169   21.8865 H   0  0  0  0  0  0
  -25.2796   -9.5654   22.4747 H   0  0  0  0  0  0
  -23.9997   -7.4640   22.7470 H   0  0  0  0  0  0
  -21.0847   -8.8841   19.8955 H   0  0  0  0  0  0
  -22.3767  -10.9710   19.6126 H   0  0  0  0  0  0
  -21.2000   -7.6146   23.9724 H   0  0  0  0  0  0
  -21.1434   -6.0493   25.9067 H   0  0  0  0  0  0
  -22.0624   -2.7620   23.2831 H   0  0  0  0  0  0
  -22.4101  -11.9923   22.4811 H   0  0  0  0  0  0
  -21.1145  -13.1281   22.2512 H   0  0  0  0  0  0
  -24.6751  -15.8422   20.4811 H   0  0  0  0  0  0
  -26.2819  -15.6081   20.0234 H   0  0  0  0  0  0
  -26.7097  -32.5553   23.1160 H   0  0  0  0  0  0
  -25.0048  -33.9790   25.0501 H   0  0  0  0  0  0
  -22.6833  -31.3046   21.4114 H   0  0  0  0  0  0
  -23.3729  -35.9677   23.3320 H   0  0  0  0  0  0
  -24.3592  -36.8923   22.2044 H   0  0  0  0  0  0
  -23.7252  -37.6556   23.6632 H   0  0  0  0  0  0
  -26.0225  -31.6116   20.5828 H   0  0  0  0  0  0
  -26.8130  -30.9069   21.9658 H   0  0  0  0  0  0
  -28.1063  -29.1608   21.1160 H   0  0  0  0  0  0
  -26.1029  -26.0038   18.9765 H   0  0  0  0  0  0
  -23.9906  -27.2900   19.0288 H   0  0  0  0  0  0
  -23.6981  -30.5895   19.4007 H   0  0  0  0  0  0
  -22.7289  -29.2287   19.8799 H   0  0  0  0  0  0
  -25.1275  -36.2008   25.0838 H   0  0  0  0  0  0
  -20.9962  -28.3227   24.1455 H   0  0  0  0  0  0
  -20.5452  -26.2245   23.3574 H   0  0  0  0  0  0
  -21.6609  -26.7351   22.1250 H   0  0  0  0  0  0
  -19.6922  -25.6466   21.0958 H   0  0  0  0  0  0
  -19.6715  -27.3442   20.6697 H   0  0  0  0  0  0
  -17.4211  -26.6738   21.3882 H   0  0  0  0  0  0
  -18.0335  -26.0067   22.8848 H   0  0  0  0  0  0
  -19.7905  -30.7203   24.2289 H   0  0  0  0  0  0
  -17.4955  -31.6208   24.5254 H   0  0  0  0  0  0
  -15.5321  -30.2955   23.7629 H   0  0  0  0  0  0
  -15.8646  -28.0855   22.6929 H   0  0  0  0  0  0
  -24.5919  -30.7024   25.7797 H   0  0  0  0  0  0
  -24.8938  -32.2800   26.4961 H   0  0  0  0  0  0
  -25.8121  -30.8795   27.0190 H   0  0  0  0  0  0
  -26.2787  -29.6816   24.1119 H   0  0  0  0  0  0
  -27.4126  -29.7268   25.4443 H   0  0  0  0  0  0
  -27.8596  -30.4387   23.9100 H   0  0  0  0  0  0
  -27.2669  -33.3583   26.2101 H   0  0  0  0  0  0
  -28.3827  -32.6918   25.0278 H   0  0  0  0  0  0
  -28.0754  -31.8400   26.5335 H   0  0  0  0  0  0
  -28.2617  -38.0103   24.7502 H   0  0  0  0  0  0
  -28.1071  -36.2632   24.6313 H   0  0  0  0  0  0
  -27.2303  -37.1495   25.8874 H   0  0  0  0  0  0
  -20.9321  -29.8657   21.6889 H   0  0  0  0  0  0
  -26.0202  -38.2890   24.1376 H   0  0  0  0  0  0
  -26.6108  -18.5960   21.1197 H   0  0  0  0  0  0
  -29.8685  -21.4387   20.7372 H   0  0  0  0  0  0
  -24.6999  -19.8015   22.9395 H   0  0  0  0  0  0
  -24.1311  -20.1317   21.3011 H   0  0  0  0  0  0
  -25.3922  -23.6781   21.6933 H   0  0  0  0  0  0
  -25.9692  -23.2396   23.3020 H   0  0  0  0  0  0
  -24.0191  -21.9538   23.5676 H   0  0  0  0  0  0
  -23.5553  -22.2951   21.9125 H   0  0  0  0  0  0
  -30.9221  -17.1916   21.6392 H   0  0  0  0  0  0
  -30.8166  -16.9376   19.9153 H   0  0  0  0  0  0
  -28.4449  -17.4581   21.7349 H   0  0  0  0  0  0
  -28.3232  -17.1879   19.9910 H   0  0  0  0  0  0
  -29.7171  -25.7684   21.1905 H   0  0  0  0  0  0
  -28.2089  -26.1663   21.9806 H   0  0  0  0  0  0
  -28.4838  -24.1872   19.6422 H   0  0  0  0  0  0
  -27.0086  -24.5135   20.5375 H   0  0  0  0  0  0
  -29.1274  -15.1337   21.5097 H   0  0  0  0  0  0
  1 25  1  0  0  0
  1 30  2  0  0  0
  1 84  1  0  0  0
  2  3  1  0  0  0
  2 25  1  0  0  0
  2 87  1  0  0  0
  2 88  1  0  0  0
  3  4  1  0  0  0
  3 89  1  0  0  0
  3 90  1  0  0  0
  4  5  1  0  0  0
  4 91  1  0  0  0
  4 92  1  0  0  0
  5  6  1  0  0  0
  5 26  1  0  0  0
  5 93  1  0  0  0
  6 25  1  0  0  0
  6 94  1  0  0  0
  6 95  1  0  0  0
  7  8  2  0  0  0
  7 26  1  0  0  0
  7 29  1  0  0  0
  8  9  1  0  0  0
  8 22  1  0  0  0
  9 10  1  0  0  0
  9 27  2  0  0  0
 10 11  2  0  0  0
 10 15  1  0  0  0
 11 12  1  0  0  0
 11 96  1  0  0  0
 12 13  2  0  0  0
 12 97  1  0  0  0
 13 14  1  0  0  0
 13 31  1  0  0  0
 14 15  2  0  0  0
 14 98  1  0  0  0
 15 99  1  0  0  0
 16 17  2  0  0  0
 16 21  1  0  0  0
 16 31  1  0  0  0
 17 18  1  0  0  0
 17100  1  0  0  0
 18 19  2  0  0  0
 18101  1  0  0  0
 19 20  1  0  0  0
 19 24  1  0  0  0
 20 21  2  0  0  0
 20102  1  0  0  0
 21 23  1  0  0  0
 22 28  1  0  0  0
 22 32  2  0  0  0
 26 27  1  0  0  0
 28103  1  0  0  0
 28104  1  0  0  0
 29105  1  0  0  0
 29106  1  0  0  0
 33 34  1  0  0  0
 33 66  1  0  0  0
 33 70  2  0  0  0
 34 36  1  0  0  0
 34 59  1  0  0  0
 34107  1  0  0  0
 35 44  2  0  0  0
 35 45  1  0  0  0
 35 68  1  0  0  0
 36 56  1  0  0  0
 36108  1  0  0  0
 37 39  1  0  0  0
 37 47  1  0  0  0
 37 66  1  0  0  0
 37109  1  0  0  0
 38 43  2  0  0  0
 38 46  1  0  0  0
 38 47  1  0  0  0
 39 64  1  0  0  0
 39 67  2  0  0  0
 40 52  1  0  0  0
 40 53  2  0  0  0
 40 58  1  0  0  0
 41110  1  0  0  0
 41111  1  0  0  0
 41112  1  0  0  0
 41 48  1  0  0  0
 42 43  1  0  0  0
 42 66  1  0  0  0
 42113  1  0  0  0
 42114  1  0  0  0
 43 44  1  0  0  0
 44115  1  0  0  0
 45 46  2  0  0  0
 45116  1  0  0  0
 46117  1  0  0  0
 47118  1  0  0  0
 47119  1  0  0  0
 48 56  1  0  0  0
 48 65  1  0  0  0
 48120  1  0  0  0
 49 50  1  0  0  0
 49 53  1  0  0  0
 49 64  1  0  0  0
 49121  1  0  0  0
 50 51  1  0  0  0
 50122  1  0  0  0
 50123  1  0  0  0
 51 52  1  0  0  0
 51124  1  0  0  0
 51125  1  0  0  0
 52126  1  0  0  0
 52127  1  0  0  0
 53 54  1  0  0  0
 54 55  2  0  0  0
 54128  1  0  0  0
 55 57  1  0  0  0
 55129  1  0  0  0
 56 69  2  0  0  0
 57 58  2  0  0  0
 57130  1  0  0  0
 58131  1  0  0  0
 59 60  1  0  0  0
 59 61  1  0  0  0
 59 62  1  0  0  0
 60132  1  0  0  0
 60133  1  0  0  0
 60134  1  0  0  0
 61135  1  0  0  0
 61136  1  0  0  0
 61137  1  0  0  0
 62138  1  0  0  0
 62139  1  0  0  0
 62140  1  0  0  0
 63 65  1  0  0  0
 63141  1  0  0  0
 63142  1  0  0  0
 63143  1  0  0  0
 64144  1  0  0  0
 65145  1  0  0  0
 68 82  1  0  0  0
 71 73  2  0  0  0
 71 75  1  0  0  0
 71146  1  0  0  0
 72 75  2  0  0  0
 72 76  1  0  0  0
 72147  1  0  0  0
 73 74  1  0  0  0
 73 77  1  0  0  0
 74 76  2  0  0  0
 74 78  1  0  0  0
 75 85  1  0  0  0
 76 86  1  0  0  0
 77 79  1  0  0  0
 77148  1  0  0  0
 77149  1  0  0  0
 78 79  1  0  0  0
 78150  1  0  0  0
 78151  1  0  0  0
 79152  1  0  0  0
 79153  1  0  0  0
 80 81  1  0  0  0
 80 84  1  0  0  0
 80154  1  0  0  0
 80155  1  0  0  0
 81 85  1  0  0  0
 81156  1  0  0  0
 81157  1  0  0  0
 82 83  1  0  0  0
 82158  1  0  0  0
 82159  1  0  0  0
 83 86  1  0  0  0
 83160  1  0  0  0
 83161  1  0  0  0
 84162  1  0  0  0
M  ISO  4   1 100  68 101  82 101  84 100
M  END
> <chiral flag>
0

> <version>
0

> <s_m_source_file>
/data/baiqing/PycharmProjects/Reinvent-master-3.2/result/LINK_invent/BTK/process_docking_weight1_custom_sum_contain_oxygen_bond_distance_aromatic_linkinvent_7_9_3/rearranged_h_0142.sdf

> <i_m_source_file_index>
16

> <r_mmod_Potential_Energy-OPLS-2005>
-37.9494514465332

> <r_mmod_Stretch_Energy-OPLS-2005>
32.1685943603516

> <r_mmod_Bend_Energy-OPLS-2005>
122.800018310547

> <r_mmod_Torsional_Energy-OPLS-2005>
276.708251953125

> <r_mmod_Improper_Torsional_Energy-OPLS-2005>
5.81942415237427

> <r_mmod_Van_der_Waal_Energy-OPLS-2005>
150.187240600586

> <r_mmod_Electrostatic_Energy-OPLS-2005>
-417.047058105469

> <r_mmod_Solvation_Energy-OPLS-2005>
-217.398086547852

> <b_mmod_Minimization_Converged-OPLS-2005>
0

> <r_mmod_RMS_Derivative-OPLS-2005>
4.0772008895874

$$$$
16
                    3D
 Structure written by MMmdl.
167176  0  0  1  0            999 V2000
  -30.6397  -14.5344   20.5736 C   0  0  0  0  0  0
  -30.4430  -12.3685   19.4155 C   0  0  0  0  0  0
  -29.5060  -12.5539   18.2051 C   0  0  0  0  0  0
  -28.0197  -12.4098   18.5953 C   0  0  0  0  0  0
  -27.6653  -13.1993   19.8830 C   0  0  2  0  0  0
  -28.7138  -12.9050   20.9833 C   0  0  0  0  0  0
  -25.2558  -13.8175   20.5509 C   0  0  0  0  0  0
  -24.1834  -13.0418   20.9129 C   0  0  0  0  0  0
  -24.6383  -11.6935   20.8647 C   0  0  0  0  0  0
  -23.9020  -10.4362   21.0326 C   0  0  0  0  0  0
  -24.3636   -9.4306   21.9096 C   0  0  0  0  0  0
  -23.6369   -8.2337   22.0718 C   0  0  0  0  0  0
  -22.4315   -8.0373   21.3534 C   0  0  0  0  0  0
  -21.9940   -9.0296   20.4596 C   0  0  0  0  0  0
  -22.7221  -10.2193   20.2969 C   0  0  0  0  0  0
  -21.6892   -6.0811   22.5298 C   0  0  0  0  0  0
  -21.4027   -6.5683   23.8232 C   0  0  0  0  0  0
  -21.3604   -5.6787   24.9151 C   0  0  0  0  0  0
  -21.6004   -4.3066   24.7173 C   0  0  0  0  0  0
  -21.8814   -3.8189   23.4284 C   0  0  0  0  0  0
  -21.9225   -4.7049   22.3379 C   0  0  0  0  0  0
  -22.7843  -13.5242   21.1899 C   0  0  0  0  0  0
  -22.1698   -4.2259   21.0953 F   0  0  0  0  0  0
  -21.5598   -3.4550   25.7687 F   0  0  0  0  0  0
  -30.0143  -13.3244   20.4496 N   0  0  0  0  0  0
  -26.3039  -12.9301   20.3328 N   0  0  0  0  0  0
  -25.9329  -11.6460   20.5734 N   0  0  0  0  0  0
  -22.0472  -12.8219   22.0435 N   0  0  0  0  0  0
  -25.4072  -15.1887   20.3725 N   0  0  0  0  0  0
  -31.7879  -14.6760   20.1348 O   0  0  0  0  0  0
  -21.6632   -6.9008   21.4298 O   0  0  0  0  0  0
  -22.3522  -14.5561   20.6833 O   0  0  0  0  0  0
  -24.6156  -31.8698   23.2077 C   0  0  0  0  0  0
  -25.9050  -32.4830   23.8382 C   0  0  1  0  0  0
  -27.2534  -27.4547   20.0692 C   0  0  0  0  0  0
  -25.5918  -33.8626   24.2321 N   0  0  0  0  0  0
  -23.4014  -30.4893   21.5505 C   0  0  2  0  0  0
  -24.8459  -28.9454   20.1200 C   0  0  0  0  0  0
  -22.7413  -29.4671   22.5014 C   0  0  0  0  0  0
  -18.0283  -28.1393   22.8491 C   0  0  0  0  0  0
  -24.1493  -36.7334   23.2628 C   0  0  0  0  0  0
  -25.9297  -30.8269   21.3630 C   0  0  0  0  0  0
  -26.0027  -29.4608   20.7145 C   0  0  0  0  0  0
  -27.2020  -28.7170   20.6971 C   0  0  0  0  0  0
  -26.0736  -26.9405   19.4763 C   0  0  0  0  0  0
  -24.8737  -27.6780   19.5066 C   0  0  0  0  0  0
  -23.6094  -29.8138   20.1682 C   0  0  0  0  0  0
  -25.4109  -36.3121   24.0334 C   0  0  1  0  0  0
  -20.5874  -28.3684   23.1320 C   0  0  2  0  0  0
  -20.6786  -26.9430   22.5412 C   0  0  0  0  0  0
  -19.5769  -26.6388   21.5207 C   0  0  0  0  0  0
  -18.1930  -26.7939   22.1597 C   0  0  0  0  0  0
  -19.1537  -28.8850   23.2897 C   0  0  0  0  0  0
  -18.9464  -30.1448   23.8907 C   0  0  0  0  0  0
  -17.6469  -30.6597   24.0561 C   0  0  0  0  0  0
  -25.9045  -34.9483   23.5128 C   0  0  0  0  0  0
  -16.5354  -29.9092   23.6333 C   0  0  0  0  0  0
  -16.7266  -28.6508   23.0347 C   0  0  0  0  0  0
  -26.4474  -31.6605   25.0722 C   0  0  0  0  0  0
  -25.3750  -31.3695   26.1477 C   0  0  0  0  0  0
  -27.0285  -30.3043   24.6080 C   0  0  0  0  0  0
  -27.6067  -32.4307   25.7486 C   0  0  0  0  0  0
  -27.5600  -37.1820   24.8460 C   0  0  0  0  0  0
  -21.4150  -29.3054   22.3744 N   0  0  0  0  0  0
  -26.4298  -37.3803   23.9417 N   0  0  0  0  0  0
  -24.6667  -31.0775   22.0987 N   0  0  0  0  0  0
  -23.4180  -28.8233   23.3079 O   0  0  0  0  0  0
  -28.4606  -26.7864   20.0582 O   0  0  0  0  0  0
  -26.5600  -34.8930   22.4689 O   0  0  0  0  0  0
  -23.5361  -32.1450   23.7478 O   0  0  0  0  0  0
  -31.5063  -23.2101   18.7055 C   0  0  0  0  0  0
  -31.8601  -21.8966   19.0898 C   0  0  0  0  0  0
  -29.9617  -23.3447   20.5796 C   0  0  0  0  0  0
  -30.5434  -23.9401   19.4411 C   0  0  0  0  0  0
  -30.3332  -22.0467   20.9834 C   0  0  0  0  0  0
  -31.2795  -21.3122   20.2377 C   0  0  0  0  0  0
  -28.3740  -17.3175   21.7753 C   0  0  0  0  0  0
  -28.8241  -17.7743   20.4068 C   0  0  0  0  0  0
  -28.8360  -15.8565   21.8436 C   0  0  0  0  0  0
  -30.0846  -16.9483   20.1208 C   0  0  1  0  0  0
  -29.7274  -21.4491   22.2415 C   0  0  0  0  0  0
  -30.1876  -25.3775   19.0486 C   0  0  0  0  0  0
  -31.3256  -17.7147   20.6436 C   0  0  0  0  0  0
  -28.6830  -25.7546   19.0922 C   0  0  0  0  0  0
  -31.6747  -18.9812   19.8283 C   0  0  0  0  0  0
  -29.8610  -15.6462   20.7993 N   0  0  0  0  0  0
  -31.6483  -20.0831   20.7301 O   0  0  0  0  0  0
  -31.4827  -12.5126   19.1091 H   0  0  0  0  0  0
  -30.3704  -11.3472   19.7873 H   0  0  0  0  0  0
  -29.7527  -11.8507   17.4134 H   0  0  0  0  0  0
  -29.6801  -13.5410   17.7758 H   0  0  0  0  0  0
  -27.8167  -11.3521   18.7509 H   0  0  0  0  0  0
  -27.3921  -12.7362   17.7631 H   0  0  0  0  0  0
  -27.7192  -14.2555   19.6157 H   0  0  0  0  0  0
  -28.7388  -11.8358   21.2018 H   0  0  0  0  0  0
  -28.4903  -13.3395   21.9504 H   0  0  0  0  0  0
  -25.2824   -9.5882   22.4559 H   0  0  0  0  0  0
  -24.0105   -7.4741   22.7509 H   0  0  0  0  0  0
  -21.0798   -8.8806   19.8951 H   0  0  0  0  0  0
  -22.3643  -10.9710   19.6038 H   0  0  0  0  0  0
  -21.2017   -7.6183   23.9763 H   0  0  0  0  0  0
  -21.1395   -6.0505   25.9055 H   0  0  0  0  0  0
  -22.0619   -2.7679   23.2725 H   0  0  0  0  0  0
  -22.4106  -11.9816   22.4717 H   0  0  0  0  0  0
  -21.1107  -13.1246   22.2807 H   0  0  0  0  0  0
  -24.6127  -15.8215   20.4454 H   0  0  0  0  0  0
  -26.2273  -15.6288   19.9724 H   0  0  0  0  0  0
  -26.7125  -32.5525   23.1149 H   0  0  0  0  0  0
  -25.0145  -33.9784   25.0514 H   0  0  0  0  0  0
  -22.6905  -31.3061   21.4086 H   0  0  0  0  0  0
  -23.3754  -35.9673   23.3282 H   0  0  0  0  0  0
  -24.3596  -36.8957   22.2048 H   0  0  0  0  0  0
  -23.7232  -37.6530   23.6644 H   0  0  0  0  0  0
  -26.0461  -31.5842   20.5853 H   0  0  0  0  0  0
  -26.8192  -30.8819   21.9802 H   0  0  0  0  0  0
  -28.1007  -29.1182   21.1440 H   0  0  0  0  0  0
  -26.0648  -25.9732   18.9922 H   0  0  0  0  0  0
  -23.9797  -27.2695   19.0537 H   0  0  0  0  0  0
  -23.7253  -30.5851   19.4082 H   0  0  0  0  0  0
  -22.7317  -29.2401   19.8690 H   0  0  0  0  0  0
  -25.1285  -36.2005   25.0827 H   0  0  0  0  0  0
  -20.9941  -28.3249   24.1448 H   0  0  0  0  0  0
  -20.5714  -26.2307   23.3598 H   0  0  0  0  0  0
  -21.6658  -26.7488   22.1203 H   0  0  0  0  0  0
  -19.6942  -25.6287   21.1262 H   0  0  0  0  0  0
  -19.6713  -27.3188   20.6730 H   0  0  0  0  0  0
  -17.4220  -26.6712   21.3964 H   0  0  0  0  0  0
  -18.0306  -26.0055   22.8972 H   0  0  0  0  0  0
  -19.7929  -30.7264   24.2285 H   0  0  0  0  0  0
  -17.5012  -31.6280   24.5169 H   0  0  0  0  0  0
  -15.5358  -30.3005   23.7613 H   0  0  0  0  0  0
  -15.8664  -28.0812   22.7069 H   0  0  0  0  0  0
  -24.5935  -30.7024   25.7820 H   0  0  0  0  0  0
  -24.8935  -32.2848   26.4932 H   0  0  0  0  0  0
  -25.8130  -30.8871   27.0225 H   0  0  0  0  0  0
  -26.2802  -29.6813   24.1161 H   0  0  0  0  0  0
  -27.4091  -29.7263   25.4514 H   0  0  0  0  0  0
  -27.8634  -30.4368   23.9189 H   0  0  0  0  0  0
  -27.2705  -33.3599   26.2087 H   0  0  0  0  0  0
  -28.3859  -32.6864   25.0300 H   0  0  0  0  0  0
  -28.0740  -31.8410   26.5376 H   0  0  0  0  0  0
  -28.2607  -38.0129   24.7541 H   0  0  0  0  0  0
  -28.1115  -36.2672   24.6248 H   0  0  0  0  0  0
  -27.2343  -37.1423   25.8867 H   0  0  0  0  0  0
  -20.9340  -29.8776   21.6942 H   0  0  0  0  0  0
  -26.0208  -38.2899   24.1395 H   0  0  0  0  0  0
  -31.9875  -23.6641   17.8480 H   0  0  0  0  0  0
  -32.6058  -21.3587   18.5195 H   0  0  0  0  0  0
  -29.2352  -23.8917   21.1612 H   0  0  0  0  0  0
  -27.2887  -17.3958   21.8880 H   0  0  0  0  0  0
  -28.8343  -17.9284   22.5534 H   0  0  0  0  0  0
  -28.9743  -18.8557   20.3665 H   0  0  0  0  0  0
  -28.0448  -17.5343   19.6892 H   0  0  0  0  0  0
  -27.9306  -15.2785   21.6706 H   0  0  0  0  0  0
  -29.2155  -15.5993   22.8335 H   0  0  0  0  0  0
  -30.1900  -16.7926   19.0428 H   0  0  0  0  0  0
  -29.0268  -22.1481   22.7043 H   0  0  0  0  0  0
  -30.5086  -21.2249   22.9690 H   0  0  0  0  0  0
  -29.2005  -20.5208   22.0272 H   0  0  0  0  0  0
  -30.5666  -25.5850   18.0484 H   0  0  0  0  0  0
  -30.7482  -26.0440   19.7033 H   0  0  0  0  0  0
  -32.2045  -17.0741   20.6780 H   0  0  0  0  0  0
  -31.1561  -17.9957   21.6842 H   0  0  0  0  0  0
  -28.0675  -24.8845   19.3102 H   0  0  0  0  0  0
  -28.3724  -26.1086   18.1059 H   0  0  0  0  0  0
  -30.9580  -19.1197   19.0175 H   0  0  0  0  0  0
  -32.6625  -18.8700   19.3808 H   0  0  0  0  0  0
  1 25  1  0  0  0
  1 30  2  0  0  0
  1 86  1  0  0  0
  2  3  1  0  0  0
  2 25  1  0  0  0
  2 88  1  0  0  0
  2 89  1  0  0  0
  3  4  1  0  0  0
  3 90  1  0  0  0
  3 91  1  0  0  0
  4  5  1  0  0  0
  4 92  1  0  0  0
  4 93  1  0  0  0
  5  6  1  0  0  0
  5 26  1  0  0  0
  5 94  1  0  0  0
  6 25  1  0  0  0
  6 95  1  0  0  0
  6 96  1  0  0  0
  7  8  2  0  0  0
  7 26  1  0  0  0
  7 29  1  0  0  0
  8  9  1  0  0  0
  8 22  1  0  0  0
  9 10  1  0  0  0
  9 27  2  0  0  0
 10 11  2  0  0  0
 10 15  1  0  0  0
 11 12  1  0  0  0
 11 97  1  0  0  0
 12 13  2  0  0  0
 12 98  1  0  0  0
 13 14  1  0  0  0
 13 31  1  0  0  0
 14 15  2  0  0  0
 14 99  1  0  0  0
 15100  1  0  0  0
 16 17  2  0  0  0
 16 21  1  0  0  0
 16 31  1  0  0  0
 17 18  1  0  0  0
 17101  1  0  0  0
 18 19  2  0  0  0
 18102  1  0  0  0
 19 20  1  0  0  0
 19 24  1  0  0  0
 20 21  2  0  0  0
 20103  1  0  0  0
 21 23  1  0  0  0
 22 28  1  0  0  0
 22 32  2  0  0  0
 26 27  1  0  0  0
 28104  1  0  0  0
 28105  1  0  0  0
 29106  1  0  0  0
 29107  1  0  0  0
 33 34  1  0  0  0
 33 66  1  0  0  0
 33 70  2  0  0  0
 34 36  1  0  0  0
 34 59  1  0  0  0
 34108  1  0  0  0
 35 44  2  0  0  0
 35 45  1  0  0  0
 35 68  1  0  0  0
 36 56  1  0  0  0
 36109  1  0  0  0
 37 39  1  0  0  0
 37 47  1  0  0  0
 37 66  1  0  0  0
 37110  1  0  0  0
 38 43  2  0  0  0
 38 46  1  0  0  0
 38 47  1  0  0  0
 39 64  1  0  0  0
 39 67  2  0  0  0
 40 52  1  0  0  0
 40 53  2  0  0  0
 40 58  1  0  0  0
 41111  1  0  0  0
 41112  1  0  0  0
 41113  1  0  0  0
 41 48  1  0  0  0
 42 43  1  0  0  0
 42 66  1  0  0  0
 42114  1  0  0  0
 42115  1  0  0  0
 43 44  1  0  0  0
 44116  1  0  0  0
 45 46  2  0  0  0
 45117  1  0  0  0
 46118  1  0  0  0
 47119  1  0  0  0
 47120  1  0  0  0
 48 56  1  0  0  0
 48 65  1  0  0  0
 48121  1  0  0  0
 49 50  1  0  0  0
 49 53  1  0  0  0
 49 64  1  0  0  0
 49122  1  0  0  0
 50 51  1  0  0  0
 50123  1  0  0  0
 50124  1  0  0  0
 51 52  1  0  0  0
 51125  1  0  0  0
 51126  1  0  0  0
 52127  1  0  0  0
 52128  1  0  0  0
 53 54  1  0  0  0
 54 55  2  0  0  0
 54129  1  0  0  0
 55 57  1  0  0  0
 55130  1  0  0  0
 56 69  2  0  0  0
 57 58  2  0  0  0
 57131  1  0  0  0
 58132  1  0  0  0
 59 60  1  0  0  0
 59 61  1  0  0  0
 59 62  1  0  0  0
 60133  1  0  0  0
 60134  1  0  0  0
 60135  1  0  0  0
 61136  1  0  0  0
 61137  1  0  0  0
 61138  1  0  0  0
 62139  1  0  0  0
 62140  1  0  0  0
 62141  1  0  0  0
 63 65  1  0  0  0
 63142  1  0  0  0
 63143  1  0  0  0
 63144  1  0  0  0
 64145  1  0  0  0
 65146  1  0  0  0
 68 84  1  0  0  0
 71 72  2  0  0  0
 71 74  1  0  0  0
 71147  1  0  0  0
 72 76  1  0  0  0
 72148  1  0  0  0
 73 74  2  0  0  0
 73 75  1  0  0  0
 73149  1  0  0  0
 74 82  1  0  0  0
 75 76  2  0  0  0
 75 81  1  0  0  0
 76 87  1  0  0  0
 77 78  1  0  0  0
 77 79  1  0  0  0
 77150  1  0  0  0
 77151  1  0  0  0
 78 80  1  0  0  0
 78152  1  0  0  0
 78153  1  0  0  0
 79 86  1  0  0  0
 79154  1  0  0  0
 79155  1  0  0  0
 80 83  1  0  0  0
 80 86  1  0  0  0
 80156  1  0  0  0
 81157  1  0  0  0
 81158  1  0  0  0
 81159  1  0  0  0
 82 84  1  0  0  0
 82160  1  0  0  0
 82161  1  0  0  0
 83 85  1  0  0  0
 83162  1  0  0  0
 83163  1  0  0  0
 84164  1  0  0  0
 84165  1  0  0  0
 85 87  1  0  0  0
 85166  1  0  0  0
 85167  1  0  0  0
M  ISO  4   1 100  68 101  84 101  86 100
M  END
> <chiral flag>
0

> <version>
0

> <s_m_source_file>
/data/baiqing/PycharmProjects/Reinvent-master-3.2/result/LINK_invent/BTK/process_docking_weight1_custom_sum_contain_oxygen_bond_distance_aromatic_linkinvent_7_9_3/rearranged_h_0142.sdf

> <i_m_source_file_index>
17

> <r_mmod_Potential_Energy-OPLS-2005>
269.207885742188

> <r_mmod_Stretch_Energy-OPLS-2005>
42.67236328125

> <r_mmod_Bend_Energy-OPLS-2005>
138.596862792969

> <r_mmod_Torsional_Energy-OPLS-2005>
370.550659179688

> <r_mmod_Improper_Torsional_Energy-OPLS-2005>
12.5988740921021

> <r_mmod_Van_der_Waal_Energy-OPLS-2005>
155.572784423828

> <r_mmod_Electrostatic_Energy-OPLS-2005>
-275.141906738281

> <r_mmod_Solvation_Energy-OPLS-2005>
-193.530349731445

> <b_mmod_Minimization_Converged-OPLS-2005>
0

> <r_mmod_RMS_Derivative-OPLS-2005>
7.17587804794312

$$$$
17
                    3D
 Structure written by MMmdl.
156164  0  0  1  0            999 V2000
  -30.5931  -14.9187   20.3682 C   0  0  0  0  0  0
  -30.4320  -12.5553   19.4824 C   0  0  0  0  0  0
  -29.5123  -12.5225   18.2415 C   0  0  0  0  0  0
  -28.0444  -12.3296   18.6586 C   0  0  0  0  0  0
  -27.6308  -13.2557   19.8313 C   0  0  2  0  0  0
  -28.6835  -13.2950   20.9601 C   0  0  0  0  0  0
  -25.2491  -13.8244   20.5707 C   0  0  0  0  0  0
  -24.1820  -13.0468   20.9258 C   0  0  0  0  0  0
  -24.6464  -11.6959   20.8796 C   0  0  0  0  0  0
  -23.9142  -10.4322   21.0432 C   0  0  0  0  0  0
  -24.3678   -9.4221   21.9206 C   0  0  0  0  0  0
  -23.6342   -8.2256   22.0753 C   0  0  0  0  0  0
  -22.4314   -8.0311   21.3554 C   0  0  0  0  0  0
  -21.9971   -9.0300   20.4644 C   0  0  0  0  0  0
  -22.7323  -10.2166   20.3074 C   0  0  0  0  0  0
  -21.6860   -6.0755   22.5276 C   0  0  0  0  0  0
  -21.4019   -6.5654   23.8206 C   0  0  0  0  0  0
  -21.3681   -5.6811   24.9166 C   0  0  0  0  0  0
  -21.6029   -4.3066   24.7204 C   0  0  0  0  0  0
  -21.8838   -3.8169   23.4323 C   0  0  0  0  0  0
  -21.9209   -4.6989   22.3388 C   0  0  0  0  0  0
  -22.7826  -13.5225   21.1895 C   0  0  0  0  0  0
  -22.1676   -4.2181   21.0959 F   0  0  0  0  0  0
  -21.5619   -3.4550   25.7711 F   0  0  0  0  0  0
  -29.9647  -13.6742   20.3477 N   0  0  0  0  0  0
  -26.2924  -12.9501   20.3255 N   0  0  0  0  0  0
  -25.9402  -11.6628   20.5804 N   0  0  0  0  0  0
  -22.0489  -12.8175   22.0425 N   0  0  0  0  0  0
  -25.4127  -15.1961   20.4030 N   0  0  0  0  0  0
  -31.8011  -14.9529   20.1243 O   0  0  0  0  0  0
  -21.6668   -6.8916   21.4243 O   0  0  0  0  0  0
  -22.3508  -14.5532   20.6741 O   0  0  0  0  0  0
  -24.6445  -31.8432   23.1847 C   0  0  0  0  0  0
  -25.9199  -32.4702   23.8252 C   0  0  1  0  0  0
  -27.2218  -27.1390   20.1348 C   0  0  0  0  0  0
  -25.5973  -33.8511   24.2169 N   0  0  0  0  0  0
  -23.4473  -30.4604   21.5352 C   0  0  2  0  0  0
  -24.8957  -28.8834   20.1149 C   0  0  0  0  0  0
  -22.7579  -29.4539   22.4906 C   0  0  0  0  0  0
  -18.0306  -28.1391   22.8475 C   0  0  0  0  0  0
  -24.1499  -36.7274   23.2637 C   0  0  0  0  0  0
  -26.0041  -30.7172   21.3839 C   0  0  0  0  0  0
  -26.0762  -29.3289   20.7251 C   0  0  0  0  0  0
  -27.2419  -28.4728   20.7120 C   0  0  0  0  0  0
  -26.0129  -26.7912   19.4992 C   0  0  0  0  0  0
  -24.8760  -27.6286   19.4893 C   0  0  0  0  0  0
  -23.6704  -29.7842   20.1567 C   0  0  0  0  0  0
  -25.4131  -36.3043   24.0292 C   0  0  1  0  0  0
  -20.5917  -28.3716   23.1262 C   0  0  2  0  0  0
  -20.6806  -26.9431   22.5412 C   0  0  0  0  0  0
  -19.5784  -26.6372   21.5230 C   0  0  0  0  0  0
  -18.1956  -26.7922   22.1616 C   0  0  0  0  0  0
  -19.1547  -28.8867   23.2857 C   0  0  0  0  0  0
  -18.9462  -30.1478   23.8863 C   0  0  0  0  0  0
  -17.6448  -30.6587   24.0559 C   0  0  0  0  0  0
  -25.9070  -34.9417   23.5037 C   0  0  0  0  0  0
  -16.5354  -29.9053   23.6360 C   0  0  0  0  0  0
  -16.7278  -28.6487   23.0350 C   0  0  0  0  0  0
  -26.4494  -31.6588   25.0719 C   0  0  0  0  0  0
  -25.3642  -31.3793   26.1392 C   0  0  0  0  0  0
  -27.0369  -30.2975   24.6351 C   0  0  0  0  0  0
  -27.6033  -32.4340   25.7520 C   0  0  0  0  0  0
  -27.5587  -37.1796   24.8449 C   0  0  0  0  0  0
  -21.4268  -29.3050   22.3655 N   0  0  0  0  0  0
  -26.4296  -37.3756   23.9387 N   0  0  0  0  0  0
  -24.7191  -31.0267   22.0916 N   0  0  0  0  0  0
  -23.4218  -28.8101   23.3080 O   0  0  0  0  0  0
  -28.2964  -26.1768   20.1206 O   0  0  0  0  0  0
  -26.5676  -34.8925   22.4629 O   0  0  0  0  0  0
  -23.5541  -32.1335   23.7057 O   0  0  0  0  0  0
  -29.7215  -21.6882   21.8341 C   0  0  0  0  0  0
  -30.7862  -20.8996   21.0609 C   0  0  0  0  0  0
  -28.9382  -21.8039   20.5289 C   0  0  1  0  0  0
  -30.3690  -23.8520   19.5326 C   0  0  0  0  0  0
  -30.2942  -17.6356   20.1868 C   0  0  0  0  0  0
  -29.2914  -18.9907   20.3492 C   0  0  0  0  0  0
  -28.0920  -24.6527   20.4047 C   0  0  0  0  0  0
  -28.9505  -23.3352   19.7826 C   0  0  2  0  0  0
  -29.8545  -16.1278   20.4194 N   0  0  0  0  0  0
  -29.7597  -20.4960   20.0965 N   0  3  2  0  0  0
  -31.4690  -12.6794   19.1714 H   0  0  0  0  0  0
  -30.3910  -11.6032   20.0170 H   0  0  0  0  0  0
  -29.8161  -11.7230   17.5632 H   0  0  0  0  0  0
  -29.6166  -13.4554   17.6842 H   0  0  0  0  0  0
  -27.9232  -11.2853   18.9487 H   0  0  0  0  0  0
  -27.3857  -12.4906   17.8050 H   0  0  0  0  0  0
  -27.5888  -14.2546   19.3990 H   0  0  0  0  0  0
  -28.7587  -12.3317   21.4645 H   0  0  0  0  0  0
  -28.4004  -14.0266   21.7199 H   0  0  0  0  0  0
  -25.2807   -9.5676   22.4798 H   0  0  0  0  0  0
  -24.0069   -7.4620   22.7433 H   0  0  0  0  0  0
  -21.0918   -8.8821   19.8921 H   0  0  0  0  0  0
  -22.3811  -10.9713   19.6171 H   0  0  0  0  0  0
  -21.2014   -7.6166   23.9718 H   0  0  0  0  0  0
  -21.1481   -6.0531   25.9070 H   0  0  0  0  0  0
  -22.0602   -2.7636   23.2809 H   0  0  0  0  0  0
  -22.4172  -11.9843   22.4779 H   0  0  0  0  0  0
  -21.1074  -13.1112   22.2614 H   0  0  0  0  0  0
  -24.6327  -15.8395   20.4835 H   0  0  0  0  0  0
  -26.2400  -15.6238   20.0051 H   0  0  0  0  0  0
  -26.7304  -32.5282   23.1009 H   0  0  0  0  0  0
  -25.0116  -33.9640   25.0310 H   0  0  0  0  0  0
  -22.7512  -31.2860   21.3779 H   0  0  0  0  0  0
  -23.3778  -35.9591   23.3268 H   0  0  0  0  0  0
  -24.3615  -36.8942   22.2071 H   0  0  0  0  0  0
  -23.7234  -37.6443   23.6700 H   0  0  0  0  0  0
  -26.1633  -31.4721   20.6120 H   0  0  0  0  0  0
  -26.8727  -30.7651   22.0275 H   0  0  0  0  0  0
  -28.1494  -28.8141   21.1914 H   0  0  0  0  0  0
  -25.9300  -25.8362   19.0020 H   0  0  0  0  0  0
  -23.9734  -27.2836   19.0024 H   0  0  0  0  0  0
  -23.8010  -30.5538   19.3952 H   0  0  0  0  0  0
  -22.7851  -29.2191   19.8582 H   0  0  0  0  0  0
  -25.1335  -36.1875   25.0785 H   0  0  0  0  0  0
  -21.0005  -28.3291   24.1384 H   0  0  0  0  0  0
  -20.5761  -26.2325   23.3627 H   0  0  0  0  0  0
  -21.6667  -26.7480   22.1187 H   0  0  0  0  0  0
  -19.6972  -25.6273   21.1307 H   0  0  0  0  0  0
  -19.6723  -27.3150   20.6753 H   0  0  0  0  0  0
  -17.4247  -26.6681   21.4005 H   0  0  0  0  0  0
  -18.0328  -26.0045   22.8994 H   0  0  0  0  0  0
  -19.7918  -30.7332   24.2210 H   0  0  0  0  0  0
  -17.4974  -31.6267   24.5161 H   0  0  0  0  0  0
  -15.5340  -30.2935   23.7704 H   0  0  0  0  0  0
  -15.8681  -28.0808   22.7066 H   0  0  0  0  0  0
  -24.5796  -30.7203   25.7672 H   0  0  0  0  0  0
  -24.8856  -32.2981   26.4792 H   0  0  0  0  0  0
  -25.7849  -30.8942   27.0203 H   0  0  0  0  0  0
  -26.3011  -29.6687   24.1327 H   0  0  0  0  0  0
  -27.3933  -29.7314   25.4971 H   0  0  0  0  0  0
  -27.8937  -30.4227   23.9721 H   0  0  0  0  0  0
  -27.2648  -33.3648   26.2094 H   0  0  0  0  0  0
  -28.3850  -32.6886   25.0349 H   0  0  0  0  0  0
  -28.0704  -31.8463   26.5437 H   0  0  0  0  0  0
  -28.2573  -38.0126   24.7545 H   0  0  0  0  0  0
  -28.1110  -36.2662   24.6205 H   0  0  0  0  0  0
  -27.2324  -37.1366   25.8854 H   0  0  0  0  0  0
  -20.9492  -29.8746   21.6805 H   0  0  0  0  0  0
  -26.0165  -38.2830   24.1355 H   0  0  0  0  0  0
  -30.0834  -22.6278   22.2514 H   0  0  0  0  0  0
  -29.2006  -21.0932   22.5883 H   0  0  0  0  0  0
  -31.2455  -20.0920   21.6332 H   0  0  0  0  0  0
  -31.5578  -21.5213   20.6029 H   0  0  0  0  0  0
  -27.9092  -21.4772   20.6817 H   0  0  0  0  0  0
  -30.9906  -23.1021   19.0487 H   0  0  0  0  0  0
  -30.8456  -24.1722   20.4594 H   0  0  0  0  0  0
  -30.3384  -24.7148   18.8616 H   0  0  0  0  0  0
  -31.1518  -17.7836   20.8454 H   0  0  0  0  0  0
  -30.7187  -17.6682   19.1803 H   0  0  0  0  0  0
  -28.9055  -18.9665   21.3678 H   0  0  0  0  0  0
  -28.4249  -18.8394   19.7067 H   0  0  0  0  0  0
  -28.2206  -24.5833   21.4853 H   0  0  0  0  0  0
  -27.0416  -24.4124   20.2537 H   0  0  0  0  0  0
  -28.5337  -23.1869   18.7833 H   0  0  0  0  0  0
  -28.8617  -15.9920   20.5398 H   0  0  0  0  0  0
  -30.1149  -20.5734   19.1528 H   0  0  0  0  0  0
  1 25  1  0  0  0
  1 30  2  0  0  0
  1 79  1  0  0  0
  2  3  1  0  0  0
  2 25  1  0  0  0
  2 81  1  0  0  0
  2 82  1  0  0  0
  3  4  1  0  0  0
  3 83  1  0  0  0
  3 84  1  0  0  0
  4  5  1  0  0  0
  4 85  1  0  0  0
  4 86  1  0  0  0
  5  6  1  0  0  0
  5 26  1  0  0  0
  5 87  1  0  0  0
  6 25  1  0  0  0
  6 88  1  0  0  0
  6 89  1  0  0  0
  7  8  2  0  0  0
  7 26  1  0  0  0
  7 29  1  0  0  0
  8  9  1  0  0  0
  8 22  1  0  0  0
  9 10  1  0  0  0
  9 27  2  0  0  0
 10 11  2  0  0  0
 10 15  1  0  0  0
 11 12  1  0  0  0
 11 90  1  0  0  0
 12 13  2  0  0  0
 12 91  1  0  0  0
 13 14  1  0  0  0
 13 31  1  0  0  0
 14 15  2  0  0  0
 14 92  1  0  0  0
 15 93  1  0  0  0
 16 17  2  0  0  0
 16 21  1  0  0  0
 16 31  1  0  0  0
 17 18  1  0  0  0
 17 94  1  0  0  0
 18 19  2  0  0  0
 18 95  1  0  0  0
 19 20  1  0  0  0
 19 24  1  0  0  0
 20 21  2  0  0  0
 20 96  1  0  0  0
 21 23  1  0  0  0
 22 28  1  0  0  0
 22 32  2  0  0  0
 26 27  1  0  0  0
 28 97  1  0  0  0
 28 98  1  0  0  0
 29 99  1  0  0  0
 29100  1  0  0  0
 33 34  1  0  0  0
 33 66  1  0  0  0
 33 70  2  0  0  0
 34 36  1  0  0  0
 34 59  1  0  0  0
 34101  1  0  0  0
 35 44  2  0  0  0
 35 45  1  0  0  0
 35 68  1  0  0  0
 36 56  1  0  0  0
 36102  1  0  0  0
 37 39  1  0  0  0
 37 47  1  0  0  0
 37 66  1  0  0  0
 37103  1  0  0  0
 38 43  2  0  0  0
 38 46  1  0  0  0
 38 47  1  0  0  0
 39 64  1  0  0  0
 39 67  2  0  0  0
 40 52  1  0  0  0
 40 53  2  0  0  0
 40 58  1  0  0  0
 41104  1  0  0  0
 41105  1  0  0  0
 41106  1  0  0  0
 41 48  1  0  0  0
 42 43  1  0  0  0
 42 66  1  0  0  0
 42107  1  0  0  0
 42108  1  0  0  0
 43 44  1  0  0  0
 44109  1  0  0  0
 45 46  2  0  0  0
 45110  1  0  0  0
 46111  1  0  0  0
 47112  1  0  0  0
 47113  1  0  0  0
 48 56  1  0  0  0
 48 65  1  0  0  0
 48114  1  0  0  0
 49 50  1  0  0  0
 49 53  1  0  0  0
 49 64  1  0  0  0
 49115  1  0  0  0
 50 51  1  0  0  0
 50116  1  0  0  0
 50117  1  0  0  0
 51 52  1  0  0  0
 51118  1  0  0  0
 51119  1  0  0  0
 52120  1  0  0  0
 52121  1  0  0  0
 53 54  1  0  0  0
 54 55  2  0  0  0
 54122  1  0  0  0
 55 57  1  0  0  0
 55123  1  0  0  0
 56 69  2  0  0  0
 57 58  2  0  0  0
 57124  1  0  0  0
 58125  1  0  0  0
 59 60  1  0  0  0
 59 61  1  0  0  0
 59 62  1  0  0  0
 60126  1  0  0  0
 60127  1  0  0  0
 60128  1  0  0  0
 61129  1  0  0  0
 61130  1  0  0  0
 61131  1  0  0  0
 62132  1  0  0  0
 62133  1  0  0  0
 62134  1  0  0  0
 63 65  1  0  0  0
 63135  1  0  0  0
 63136  1  0  0  0
 63137  1  0  0  0
 64138  1  0  0  0
 65139  1  0  0  0
 68 77  1  0  0  0
 71 72  1  0  0  0
 71140  1  0  0  0
 71141  1  0  0  0
 71 73  1  0  0  0
 72 80  1  0  0  0
 72142  1  0  0  0
 72143  1  0  0  0
 73 78  1  0  0  0
 73 80  1  0  0  0
 73144  1  0  0  0
 74145  1  0  0  0
 74146  1  0  0  0
 74147  1  0  0  0
 74 78  1  0  0  0
 75 76  1  0  0  0
 75 79  1  0  0  0
 75148  1  0  0  0
 75149  1  0  0  0
 76150  1  0  0  0
 76151  1  0  0  0
 76 80  1  0  0  0
 77 78  1  0  0  0
 77152  1  0  0  0
 77153  1  0  0  0
 78154  1  0  0  0
 79155  1  0  0  0
 80156  1  0  0  0
M  CHG  1  80   1
M  ISO  4   1 100  68 101  77 101  79 100
M  END
> <chiral flag>
0

> <version>
0

> <s_m_source_file>
/data/baiqing/PycharmProjects/Reinvent-master-3.2/result/LINK_invent/BTK/process_docking_weight1_custom_sum_contain_oxygen_bond_distance_aromatic_linkinvent_7_9_3/rearranged_h_0142.sdf

> <i_m_source_file_index>
18

> <r_mmod_Potential_Energy-OPLS-2005>
399.7080078125

> <r_mmod_Stretch_Energy-OPLS-2005>
287.96435546875

> <r_mmod_Bend_Energy-OPLS-2005>
273.672149658203

> <r_mmod_Torsional_Energy-OPLS-2005>
274.509155273438

> <r_mmod_Improper_Torsional_Energy-OPLS-2005>
5.60332202911377

> <r_mmod_Van_der_Waal_Energy-OPLS-2005>
112.261512756348

> <r_mmod_Electrostatic_Energy-OPLS-2005>
-254.365371704102

> <r_mmod_Solvation_Energy-OPLS-2005>
-476.358489990234

> <b_mmod_Minimization_Converged-OPLS-2005>
0

> <r_mmod_RMS_Derivative-OPLS-2005>
4.59449815750122

$$$$
18
                    3D
 Structure written by MMmdl.
162171  0  0  1  0            999 V2000
  -30.4313  -15.2055   20.3786 C   0  0  0  0  0  0
  -30.4492  -12.7641   19.5140 C   0  0  0  0  0  0
  -29.5360  -12.5632   18.2781 C   0  0  0  0  0  0
  -28.0810  -12.2971   18.7064 C   0  0  0  0  0  0
  -27.6170  -13.2634   19.8244 C   0  0  2  0  0  0
  -28.6555  -13.3997   20.9578 C   0  0  0  0  0  0
  -25.2413  -13.8223   20.5732 C   0  0  0  0  0  0
  -24.1757  -13.0429   20.9261 C   0  0  0  0  0  0
  -24.6397  -11.6922   20.8767 C   0  0  0  0  0  0
  -23.9088  -10.4287   21.0414 C   0  0  0  0  0  0
  -24.3631   -9.4198   21.9189 C   0  0  0  0  0  0
  -23.6297   -8.2240   22.0757 C   0  0  0  0  0  0
  -22.4276   -8.0284   21.3551 C   0  0  0  0  0  0
  -21.9919   -9.0260   20.4650 C   0  0  0  0  0  0
  -22.7259  -10.2133   20.3063 C   0  0  0  0  0  0
  -21.6852   -6.0739   22.5281 C   0  0  0  0  0  0
  -21.4014   -6.5642   23.8215 C   0  0  0  0  0  0
  -21.3658   -5.6792   24.9176 C   0  0  0  0  0  0
  -21.6044   -4.3056   24.7224 C   0  0  0  0  0  0
  -21.8818   -3.8149   23.4345 C   0  0  0  0  0  0
  -21.9192   -4.6967   22.3401 C   0  0  0  0  0  0
  -22.7775  -13.5194   21.1905 C   0  0  0  0  0  0
  -22.1661   -4.2152   21.0979 F   0  0  0  0  0  0
  -21.5626   -3.4540   25.7736 F   0  0  0  0  0  0
  -29.8948  -13.8936   20.3364 N   0  0  0  0  0  0
  -26.2836  -12.9477   20.3207 N   0  0  0  0  0  0
  -25.9331  -11.6596   20.5722 N   0  0  0  0  0  0
  -22.0426  -12.8181   22.0457 N   0  0  0  0  0  0
  -25.4026  -15.1961   20.4150 N   0  0  0  0  0  0
  -31.6571  -15.2465   20.1877 O   0  0  0  0  0  0
  -21.6642   -6.8883   21.4242 O   0  0  0  0  0  0
  -22.3458  -14.5497   20.6741 O   0  0  0  0  0  0
  -24.6591  -31.8275   23.1728 C   0  0  0  0  0  0
  -25.9291  -32.4607   23.8182 C   0  0  1  0  0  0
  -27.2230  -26.9685   20.1839 C   0  0  0  0  0  0
  -25.5972  -33.8420   24.2092 N   0  0  0  0  0  0
  -23.4716  -30.4398   21.5213 C   0  0  2  0  0  0
  -24.9244  -28.8303   20.1161 C   0  0  0  0  0  0
  -22.7643  -29.4463   22.4794 C   0  0  0  0  0  0
  -18.0320  -28.1404   22.8466 C   0  0  0  0  0  0
  -24.1494  -36.7220   23.2646 C   0  0  0  0  0  0
  -26.0381  -30.6484   21.3954 C   0  0  0  0  0  0
  -26.1078  -29.2408   20.7423 C   0  0  0  0  0  0
  -27.2539  -28.3319   20.7476 C   0  0  0  0  0  0
  -26.0082  -26.6961   19.5163 C   0  0  0  0  0  0
  -24.8973  -27.5768   19.4834 C   0  0  0  0  0  0
  -23.7092  -29.7544   20.1478 C   0  0  0  0  0  0
  -25.4133  -36.2978   24.0301 C   0  0  1  0  0  0
  -20.5942  -28.3747   23.1194 C   0  0  2  0  0  0
  -20.6797  -26.9432   22.5400 C   0  0  0  0  0  0
  -19.5772  -26.6375   21.5210 C   0  0  0  0  0  0
  -18.1954  -26.7937   22.1621 C   0  0  0  0  0  0
  -19.1580  -28.8895   23.2819 C   0  0  0  0  0  0
  -18.9492  -30.1484   23.8855 C   0  0  0  0  0  0
  -17.6486  -30.6594   24.0554 C   0  0  0  0  0  0
  -25.9094  -34.9360   23.5017 C   0  0  0  0  0  0
  -16.5377  -29.9082   23.6340 C   0  0  0  0  0  0
  -16.7303  -28.6503   23.0359 C   0  0  0  0  0  0
  -26.4553  -31.6539   25.0696 C   0  0  0  0  0  0
  -25.3693  -31.3783   26.1362 C   0  0  0  0  0  0
  -27.0445  -30.2910   24.6404 C   0  0  0  0  0  0
  -27.6047  -32.4343   25.7500 C   0  0  0  0  0  0
  -27.5571  -37.1766   24.8465 C   0  0  0  0  0  0
  -21.4317  -29.3047   22.3545 N   0  0  0  0  0  0
  -26.4281  -37.3710   23.9404 N   0  0  0  0  0  0
  -24.7439  -30.9977   22.0839 N   0  0  0  0  0  0
  -23.4209  -28.8033   23.3022 O   0  0  0  0  0  0
  -28.2589  -25.9091   20.2227 O   0  0  0  0  0  0
  -26.5699  -34.8889   22.4609 O   0  0  0  0  0  0
  -23.5671  -32.1227   23.6847 O   0  0  0  0  0  0
  -28.3062  -20.2017   19.5912 C   0  0  0  0  0  0
  -28.4928  -18.7339   19.6478 C   0  0  0  0  0  0
  -29.1242  -21.1851   20.2705 C   0  0  0  0  0  0
  -30.1173  -20.3800   20.9744 C   0  0  0  0  0  0
  -29.5405  -18.0035   20.3452 C   0  0  0  0  0  0
  -31.1500  -21.1668   21.7424 C   0  0  0  0  0  0
  -31.6541  -22.3334   20.8908 C   0  0  0  0  0  0
  -29.1939  -22.9227   20.0797 C   0  0  2  0  0  0
  -30.5889  -23.4308   20.5997 C   0  0  2  0  0  0
  -32.2255  -25.4189   20.4730 C   0  0  0  0  0  0
  -31.8117  -24.0654   18.3784 C   0  0  0  0  0  0
  -28.0608  -24.2835   20.3140 C   0  0  0  0  0  0
  -31.2049  -24.5571   19.7079 C   0  0  0  0  0  0
  -30.3125  -18.9640   21.0007 N   0  0  0  0  0  0
  -29.5694  -16.3982   20.3903 N   0  0  0  0  0  0
  -31.4676  -12.9755   19.1844 H   0  0  0  0  0  0
  -30.5143  -11.8484   20.1040 H   0  0  0  0  0  0
  -29.9024  -11.7402   17.6632 H   0  0  0  0  0  0
  -29.5742  -13.4550   17.6503 H   0  0  0  0  0  0
  -28.0284  -11.2694   19.0682 H   0  0  0  0  0  0
  -27.4119  -12.3536   17.8469 H   0  0  0  0  0  0
  -27.5418  -14.2372   19.3398 H   0  0  0  0  0  0
  -28.8101  -12.4517   21.4749 H   0  0  0  0  0  0
  -28.3080  -14.1104   21.7093 H   0  0  0  0  0  0
  -25.2775   -9.5669   22.4767 H   0  0  0  0  0  0
  -24.0002   -7.4628   22.7474 H   0  0  0  0  0  0
  -21.0853   -8.8785   19.8955 H   0  0  0  0  0  0
  -22.3722  -10.9674   19.6174 H   0  0  0  0  0  0
  -21.2010   -7.6149   23.9717 H   0  0  0  0  0  0
  -21.1481   -6.0525   25.9077 H   0  0  0  0  0  0
  -22.0597   -2.7611   23.2845 H   0  0  0  0  0  0
  -22.4052  -11.9852   22.4849 H   0  0  0  0  0  0
  -21.1041  -13.1200   22.2664 H   0  0  0  0  0  0
  -24.6234  -15.8368   20.5223 H   0  0  0  0  0  0
  -26.2233  -15.6389   20.0263 H   0  0  0  0  0  0
  -26.7359  -32.5161   23.0900 H   0  0  0  0  0  0
  -25.0070  -33.9501   25.0208 H   0  0  0  0  0  0
  -22.7833  -31.2703   21.3517 H   0  0  0  0  0  0
  -23.3761  -35.9546   23.3283 H   0  0  0  0  0  0
  -24.3572  -36.8889   22.2066 H   0  0  0  0  0  0
  -23.7250  -37.6402   23.6717 H   0  0  0  0  0  0
  -26.2120  -31.3912   20.6157 H   0  0  0  0  0  0
  -26.9007  -30.7059   22.0475 H   0  0  0  0  0  0
  -28.1556  -28.6489   21.2524 H   0  0  0  0  0  0
  -25.8909  -25.7419   19.0245 H   0  0  0  0  0  0
  -23.9975  -27.2568   18.9761 H   0  0  0  0  0  0
  -23.8626  -30.5225   19.3887 H   0  0  0  0  0  0
  -22.8197  -29.2067   19.8313 H   0  0  0  0  0  0
  -25.1329  -36.1778   25.0792 H   0  0  0  0  0  0
  -21.0034  -28.3353   24.1316 H   0  0  0  0  0  0
  -20.5674  -26.2366   23.3637 H   0  0  0  0  0  0
  -21.6661  -26.7407   22.1210 H   0  0  0  0  0  0
  -19.6931  -25.6273   21.1269 H   0  0  0  0  0  0
  -19.6709  -27.3158   20.6718 H   0  0  0  0  0  0
  -17.4221  -26.6675   21.4028 H   0  0  0  0  0  0
  -18.0355  -26.0089   22.9029 H   0  0  0  0  0  0
  -19.7968  -30.7309   24.2209 H   0  0  0  0  0  0
  -17.5038  -31.6269   24.5162 H   0  0  0  0  0  0
  -15.5375  -30.2971   23.7685 H   0  0  0  0  0  0
  -15.8704  -28.0803   22.7103 H   0  0  0  0  0  0
  -24.5876  -30.7131   25.7674 H   0  0  0  0  0  0
  -24.8882  -32.2986   26.4686 H   0  0  0  0  0  0
  -25.7933  -30.9014   27.0207 H   0  0  0  0  0  0
  -26.3102  -29.6590   24.1395 H   0  0  0  0  0  0
  -27.3973  -29.7266   25.5047 H   0  0  0  0  0  0
  -27.9044  -30.4097   23.9809 H   0  0  0  0  0  0
  -27.2611  -33.3678   26.1972 H   0  0  0  0  0  0
  -28.3917  -32.6852   25.0375 H   0  0  0  0  0  0
  -28.0653  -31.8543   26.5508 H   0  0  0  0  0  0
  -28.2571  -38.0077   24.7503 H   0  0  0  0  0  0
  -28.1083  -36.2602   24.6300 H   0  0  0  0  0  0
  -27.2286  -37.1419   25.8866 H   0  0  0  0  0  0
  -20.9561  -29.8742   21.6683 H   0  0  0  0  0  0
  -26.0132  -38.2769   24.1408 H   0  0  0  0  0  0
  -27.5079  -20.5719   18.9643 H   0  0  0  0  0  0
  -27.7793  -18.1448   19.0889 H   0  0  0  0  0  0
  -31.9864  -20.5225   22.0167 H   0  0  0  0  0  0
  -30.7118  -21.5282   22.6732 H   0  0  0  0  0  0
  -32.0432  -21.9156   19.9630 H   0  0  0  0  0  0
  -32.5052  -22.7787   21.4042 H   0  0  0  0  0  0
  -29.2824  -22.9327   18.9945 H   0  0  0  0  0  0
  -30.3681  -23.8765   21.5712 H   0  0  0  0  0  0
  -31.7969  -25.8213   21.3914 H   0  0  0  0  0  0
  -32.5481  -26.2688   19.8704 H   0  0  0  0  0  0
  -33.1204  -24.8571   20.7403 H   0  0  0  0  0  0
  -31.1201  -23.4392   17.8156 H   0  0  0  0  0  0
  -32.7283  -23.4958   18.5312 H   0  0  0  0  0  0
  -32.0693  -24.9094   17.7377 H   0  0  0  0  0  0
  -27.6676  -24.1462   21.3212 H   0  0  0  0  0  0
  -27.2143  -24.0576   19.6672 H   0  0  0  0  0  0
  -30.4080  -25.2398   19.4257 H   0  0  0  0  0  0
  -28.6243  -16.0543   20.3672 H   0  0  0  0  0  0
  1 25  1  0  0  0
  1 30  2  0  0  0
  1 85  1  0  0  0
  2  3  1  0  0  0
  2 25  1  0  0  0
  2 86  1  0  0  0
  2 87  1  0  0  0
  3  4  1  0  0  0
  3 88  1  0  0  0
  3 89  1  0  0  0
  4  5  1  0  0  0
  4 90  1  0  0  0
  4 91  1  0  0  0
  5  6  1  0  0  0
  5 26  1  0  0  0
  5 92  1  0  0  0
  6 25  1  0  0  0
  6 93  1  0  0  0
  6 94  1  0  0  0
  7  8  2  0  0  0
  7 26  1  0  0  0
  7 29  1  0  0  0
  8  9  1  0  0  0
  8 22  1  0  0  0
  9 10  1  0  0  0
  9 27  2  0  0  0
 10 11  2  0  0  0
 10 15  1  0  0  0
 11 12  1  0  0  0
 11 95  1  0  0  0
 12 13  2  0  0  0
 12 96  1  0  0  0
 13 14  1  0  0  0
 13 31  1  0  0  0
 14 15  2  0  0  0
 14 97  1  0  0  0
 15 98  1  0  0  0
 16 17  2  0  0  0
 16 21  1  0  0  0
 16 31  1  0  0  0
 17 18  1  0  0  0
 17 99  1  0  0  0
 18 19  2  0  0  0
 18100  1  0  0  0
 19 20  1  0  0  0
 19 24  1  0  0  0
 20 21  2  0  0  0
 20101  1  0  0  0
 21 23  1  0  0  0
 22 28  1  0  0  0
 22 32  2  0  0  0
 26 27  1  0  0  0
 28102  1  0  0  0
 28103  1  0  0  0
 29104  1  0  0  0
 29105  1  0  0  0
 33 34  1  0  0  0
 33 66  1  0  0  0
 33 70  2  0  0  0
 34 36  1  0  0  0
 34 59  1  0  0  0
 34106  1  0  0  0
 35 44  2  0  0  0
 35 45  1  0  0  0
 35 68  1  0  0  0
 36 56  1  0  0  0
 36107  1  0  0  0
 37 39  1  0  0  0
 37 47  1  0  0  0
 37 66  1  0  0  0
 37108  1  0  0  0
 38 43  2  0  0  0
 38 46  1  0  0  0
 38 47  1  0  0  0
 39 64  1  0  0  0
 39 67  2  0  0  0
 40 52  1  0  0  0
 40 53  2  0  0  0
 40 58  1  0  0  0
 41109  1  0  0  0
 41110  1  0  0  0
 41111  1  0  0  0
 41 48  1  0  0  0
 42 43  1  0  0  0
 42 66  1  0  0  0
 42112  1  0  0  0
 42113  1  0  0  0
 43 44  1  0  0  0
 44114  1  0  0  0
 45 46  2  0  0  0
 45115  1  0  0  0
 46116  1  0  0  0
 47117  1  0  0  0
 47118  1  0  0  0
 48 56  1  0  0  0
 48 65  1  0  0  0
 48119  1  0  0  0
 49 50  1  0  0  0
 49 53  1  0  0  0
 49 64  1  0  0  0
 49120  1  0  0  0
 50 51  1  0  0  0
 50121  1  0  0  0
 50122  1  0  0  0
 51 52  1  0  0  0
 51123  1  0  0  0
 51124  1  0  0  0
 52125  1  0  0  0
 52126  1  0  0  0
 53 54  1  0  0  0
 54 55  2  0  0  0
 54127  1  0  0  0
 55 57  1  0  0  0
 55128  1  0  0  0
 56 69  2  0  0  0
 57 58  2  0  0  0
 57129  1  0  0  0
 58130  1  0  0  0
 59 60  1  0  0  0
 59 61  1  0  0  0
 59 62  1  0  0  0
 60131  1  0  0  0
 60132  1  0  0  0
 60133  1  0  0  0
 61134  1  0  0  0
 61135  1  0  0  0
 61136  1  0  0  0
 62137  1  0  0  0
 62138  1  0  0  0
 62139  1  0  0  0
 63 65  1  0  0  0
 63140  1  0  0  0
 63141  1  0  0  0
 63142  1  0  0  0
 64143  1  0  0  0
 65144  1  0  0  0
 68 82  1  0  0  0
 71 72  2  0  0  0
 71 73  1  0  0  0
 71145  1  0  0  0
 72 75  1  0  0  0
 72146  1  0  0  0
 73 74  2  0  0  0
 73 78  1  0  0  0
 74 76  1  0  0  0
 74 84  1  0  0  0
 75 84  2  0  0  0
 75 85  1  0  0  0
 76 77  1  0  0  0
 76147  1  0  0  0
 76148  1  0  0  0
 77149  1  0  0  0
 77150  1  0  0  0
 77 79  1  0  0  0
 78 79  1  0  0  0
 78 82  1  0  0  0
 78151  1  0  0  0
 79 83  1  0  0  0
 79152  1  0  0  0
 80153  1  0  0  0
 80154  1  0  0  0
 80155  1  0  0  0
 80 83  1  0  0  0
 81 83  1  0  0  0
 81156  1  0  0  0
 81157  1  0  0  0
 81158  1  0  0  0
 82159  1  0  0  0
 82160  1  0  0  0
 83161  1  0  0  0
 85162  1  0  0  0
M  ISO  4   1 100  68 101  82 101  85 100
M  END
> <chiral flag>
0

> <version>
0

> <s_m_source_file>
/data/baiqing/PycharmProjects/Reinvent-master-3.2/result/LINK_invent/BTK/process_docking_weight1_custom_sum_contain_oxygen_bond_distance_aromatic_linkinvent_7_9_3/rearranged_h_0142.sdf

> <i_m_source_file_index>
19

> <r_mmod_Potential_Energy-OPLS-2005>
969.906066894531

> <r_mmod_Stretch_Energy-OPLS-2005>
477.854217529297

> <r_mmod_Bend_Energy-OPLS-2005>
425.737121582031

> <r_mmod_Torsional_Energy-OPLS-2005>
252.367813110352

> <r_mmod_Improper_Torsional_Energy-OPLS-2005>
8.30394172668457

> <r_mmod_Van_der_Waal_Energy-OPLS-2005>
138.251098632812

> <r_mmod_Electrostatic_Energy-OPLS-2005>
-501.214233398438

> <r_mmod_Solvation_Energy-OPLS-2005>
-226.114242553711

> <b_mmod_Minimization_Converged-OPLS-2005>
0

> <r_mmod_RMS_Derivative-OPLS-2005>
0.637230575084686

$$$$
19
                    3D
 Structure written by MMmdl.
150158  0  0  1  0            999 V2000
  -30.4326  -15.2033   20.3802 C   0  0  0  0  0  0
  -30.4472  -12.7595   19.5225 C   0  0  0  0  0  0
  -29.5368  -12.5733   18.2818 C   0  0  0  0  0  0
  -28.0806  -12.3072   18.7042 C   0  0  0  0  0  0
  -27.6190  -13.2659   19.8299 C   0  0  2  0  0  0
  -28.6559  -13.3935   20.9669 C   0  0  0  0  0  0
  -25.2411  -13.8234   20.5718 C   0  0  0  0  0  0
  -24.1760  -13.0437   20.9254 C   0  0  0  0  0  0
  -24.6406  -11.6928   20.8762 C   0  0  0  0  0  0
  -23.9093  -10.4295   21.0410 C   0  0  0  0  0  0
  -24.3637   -9.4205   21.9185 C   0  0  0  0  0  0
  -23.6302   -8.2244   22.0759 C   0  0  0  0  0  0
  -22.4283   -8.0286   21.3549 C   0  0  0  0  0  0
  -21.9923   -9.0259   20.4648 C   0  0  0  0  0  0
  -22.7263  -10.2134   20.3056 C   0  0  0  0  0  0
  -21.6856   -6.0735   22.5279 C   0  0  0  0  0  0
  -21.4015   -6.5638   23.8211 C   0  0  0  0  0  0
  -21.3661   -5.6794   24.9173 C   0  0  0  0  0  0
  -21.6045   -4.3056   24.7227 C   0  0  0  0  0  0
  -21.8818   -3.8145   23.4348 C   0  0  0  0  0  0
  -21.9193   -4.6962   22.3401 C   0  0  0  0  0  0
  -22.7778  -13.5194   21.1901 C   0  0  0  0  0  0
  -22.1661   -4.2145   21.0980 F   0  0  0  0  0  0
  -21.5628   -3.4540   25.7739 F   0  0  0  0  0  0
  -29.9002  -13.8874   20.3552 N   0  0  0  0  0  0
  -26.2844  -12.9494   20.3221 N   0  0  0  0  0  0
  -25.9344  -11.6609   20.5726 N   0  0  0  0  0  0
  -22.0429  -12.8176   22.0449 N   0  0  0  0  0  0
  -25.4032  -15.1965   20.4094 N   0  0  0  0  0  0
  -31.6474  -15.2495   20.1303 O   0  0  0  0  0  0
  -21.6646   -6.8882   21.4242 O   0  0  0  0  0  0
  -22.3460  -14.5503   20.6749 O   0  0  0  0  0  0
  -24.6586  -31.8281   23.1722 C   0  0  0  0  0  0
  -25.9289  -32.4609   23.8181 C   0  0  1  0  0  0
  -27.2226  -26.9724   20.1815 C   0  0  0  0  0  0
  -25.5971  -33.8417   24.2092 N   0  0  0  0  0  0
  -23.4710  -30.4396   21.5208 C   0  0  2  0  0  0
  -24.9245  -28.8323   20.1107 C   0  0  0  0  0  0
  -22.7646  -29.4458   22.4792 C   0  0  0  0  0  0
  -18.0326  -28.1409   22.8474 C   0  0  0  0  0  0
  -24.1493  -36.7218   23.2642 C   0  0  0  0  0  0
  -26.0366  -30.6504   21.3935 C   0  0  0  0  0  0
  -26.1063  -29.2434   20.7399 C   0  0  0  0  0  0
  -27.2508  -28.3334   20.7500 C   0  0  0  0  0  0
  -26.0123  -26.6996   19.5062 C   0  0  0  0  0  0
  -24.9001  -27.5799   19.4743 C   0  0  0  0  0  0
  -23.7073  -29.7547   20.1461 C   0  0  0  0  0  0
  -25.4131  -36.2977   24.0301 C   0  0  1  0  0  0
  -20.5944  -28.3747   23.1202 C   0  0  2  0  0  0
  -20.6797  -26.9432   22.5405 C   0  0  0  0  0  0
  -19.5771  -26.6385   21.5214 C   0  0  0  0  0  0
  -18.1956  -26.7944   22.1628 C   0  0  0  0  0  0
  -19.1585  -28.8900   23.2828 C   0  0  0  0  0  0
  -18.9492  -30.1491   23.8862 C   0  0  0  0  0  0
  -17.6484  -30.6597   24.0560 C   0  0  0  0  0  0
  -25.9094  -34.9355   23.5020 C   0  0  0  0  0  0
  -16.5374  -29.9087   23.6340 C   0  0  0  0  0  0
  -16.7306  -28.6506   23.0362 C   0  0  0  0  0  0
  -26.4550  -31.6529   25.0686 C   0  0  0  0  0  0
  -25.3685  -31.3790   26.1351 C   0  0  0  0  0  0
  -27.0414  -30.2893   24.6381 C   0  0  0  0  0  0
  -27.6068  -32.4311   25.7481 C   0  0  0  0  0  0
  -27.5574  -37.1767   24.8469 C   0  0  0  0  0  0
  -21.4320  -29.3040   22.3548 N   0  0  0  0  0  0
  -26.4284  -37.3706   23.9408 N   0  0  0  0  0  0
  -24.7431  -30.9988   22.0832 N   0  0  0  0  0  0
  -23.4211  -28.8026   23.3020 O   0  0  0  0  0  0
  -28.2450  -25.9032   20.2664 O   0  0  0  0  0  0
  -26.5701  -34.8885   22.4612 O   0  0  0  0  0  0
  -23.5670  -32.1222   23.6852 O   0  0  0  0  0  0
  -28.1109  -20.2024   20.6965 C   0  0  0  0  0  0
  -28.3049  -18.7344   20.7125 C   0  0  0  0  0  0
  -29.1218  -21.1940   20.3896 C   0  0  0  0  0  0
  -30.3180  -20.3835   20.1112 C   0  0  0  0  0  0
  -29.5304  -17.9999   20.4377 C   0  0  0  0  0  0
  -31.6112  -21.1119   19.7968 C   0  0  0  0  0  0
  -28.0282  -24.2902   20.1140 C   0  0  0  0  0  0
  -29.0729  -22.9317   20.5835 C   0  0  1  0  0  0
  -30.4915  -18.9622   20.1272 N   0  0  0  0  0  0
  -29.5798  -16.3950   20.5165 N   0  0  0  0  0  0
  -29.1493  -23.1687   21.9751 O   0  0  0  0  0  0
  -31.4683  -12.9624   19.1963 H   0  0  0  0  0  0
  -30.5028  -11.8389   20.1054 H   0  0  0  0  0  0
  -29.9040  -11.7572   17.6583 H   0  0  0  0  0  0
  -29.5776  -13.4727   17.6650 H   0  0  0  0  0  0
  -28.0218  -11.2765   19.0554 H   0  0  0  0  0  0
  -27.4142  -12.3762   17.8437 H   0  0  0  0  0  0
  -27.5489  -14.2445   19.3547 H   0  0  0  0  0  0
  -28.8067  -12.4417   21.4779 H   0  0  0  0  0  0
  -28.3074  -14.0975   21.7241 H   0  0  0  0  0  0
  -25.2777   -9.5681   22.4768 H   0  0  0  0  0  0
  -24.0004   -7.4637   22.7482 H   0  0  0  0  0  0
  -21.0853   -8.8785   19.8955 H   0  0  0  0  0  0
  -22.3720  -10.9677   19.6167 H   0  0  0  0  0  0
  -21.2010   -7.6146   23.9712 H   0  0  0  0  0  0
  -21.1481   -6.0524   25.9077 H   0  0  0  0  0  0
  -22.0596   -2.7606   23.2851 H   0  0  0  0  0  0
  -22.4048  -11.9837   22.4837 H   0  0  0  0  0  0
  -21.1044  -13.1188   22.2657 H   0  0  0  0  0  0
  -24.6187  -15.8338   20.4978 H   0  0  0  0  0  0
  -26.2132  -15.6283   19.9855 H   0  0  0  0  0  0
  -26.7353  -32.5167   23.0898 H   0  0  0  0  0  0
  -25.0068  -33.9502   25.0212 H   0  0  0  0  0  0
  -22.7812  -31.2693   21.3517 H   0  0  0  0  0  0
  -23.3763  -35.9542   23.3278 H   0  0  0  0  0  0
  -24.3574  -36.8888   22.2060 H   0  0  0  0  0  0
  -23.7238  -37.6398   23.6710 H   0  0  0  0  0  0
  -26.2068  -31.3927   20.6122 H   0  0  0  0  0  0
  -26.9003  -30.7106   22.0438 H   0  0  0  0  0  0
  -28.1471  -28.6453   21.2675 H   0  0  0  0  0  0
  -25.8959  -25.7406   19.0222 H   0  0  0  0  0  0
  -24.0007  -27.2587   18.9681 H   0  0  0  0  0  0
  -23.8556  -30.5226   19.3855 H   0  0  0  0  0  0
  -22.8186  -29.2031   19.8343 H   0  0  0  0  0  0
  -25.1323  -36.1784   25.0792 H   0  0  0  0  0  0
  -21.0044  -28.3352   24.1321 H   0  0  0  0  0  0
  -20.5691  -26.2358   23.3640 H   0  0  0  0  0  0
  -21.6660  -26.7420   22.1199 H   0  0  0  0  0  0
  -19.6929  -25.6291   21.1264 H   0  0  0  0  0  0
  -19.6711  -27.3177   20.6729 H   0  0  0  0  0  0
  -17.4222  -26.6695   21.4030 H   0  0  0  0  0  0
  -18.0352  -26.0102   22.9039 H   0  0  0  0  0  0
  -19.7964  -30.7322   24.2215 H   0  0  0  0  0  0
  -17.5032  -31.6272   24.5165 H   0  0  0  0  0  0
  -15.5374  -30.2973   23.7684 H   0  0  0  0  0  0
  -15.8709  -28.0810   22.7098 H   0  0  0  0  0  0
  -24.5891  -30.7111   25.7672 H   0  0  0  0  0  0
  -24.8846  -32.2992   26.4631 H   0  0  0  0  0  0
  -25.7917  -30.9060   27.0223 H   0  0  0  0  0  0
  -26.3050  -29.6596   24.1378 H   0  0  0  0  0  0
  -27.3942  -29.7233   25.5013 H   0  0  0  0  0  0
  -27.9001  -30.4067   23.9769 H   0  0  0  0  0  0
  -27.2690  -33.3710   26.1866 H   0  0  0  0  0  0
  -28.3985  -32.6702   25.0365 H   0  0  0  0  0  0
  -28.0605  -31.8540   26.5552 H   0  0  0  0  0  0
  -28.2569  -38.0081   24.7508 H   0  0  0  0  0  0
  -28.1092  -36.2607   24.6309 H   0  0  0  0  0  0
  -27.2295  -37.1419   25.8872 H   0  0  0  0  0  0
  -20.9566  -29.8729   21.6681 H   0  0  0  0  0  0
  -26.0140  -38.2775   24.1400 H   0  0  0  0  0  0
  -27.1359  -20.5708   20.9802 H   0  0  0  0  0  0
  -27.4367  -18.1487   20.9807 H   0  0  0  0  0  0
  -31.8734  -21.7934   20.6063 H   0  0  0  0  0  0
  -31.5083  -21.6892   18.8782 H   0  0  0  0  0  0
  -32.4458  -20.4221   19.6658 H   0  0  0  0  0  0
  -27.8665  -24.1594   19.0435 H   0  0  0  0  0  0
  -27.0523  -24.0902   20.5575 H   0  0  0  0  0  0
  -30.0337  -23.2436   20.1767 H   0  0  0  0  0  0
  -28.6560  -16.0503   20.7193 H   0  0  0  0  0  0
  -29.2421  -24.1116   22.0899 H   0  0  0  0  0  0
  1 25  1  0  0  0
  1 30  2  0  0  0
  1 80  1  0  0  0
  2  3  1  0  0  0
  2 25  1  0  0  0
  2 82  1  0  0  0
  2 83  1  0  0  0
  3  4  1  0  0  0
  3 84  1  0  0  0
  3 85  1  0  0  0
  4  5  1  0  0  0
  4 86  1  0  0  0
  4 87  1  0  0  0
  5  6  1  0  0  0
  5 26  1  0  0  0
  5 88  1  0  0  0
  6 25  1  0  0  0
  6 89  1  0  0  0
  6 90  1  0  0  0
  7  8  2  0  0  0
  7 26  1  0  0  0
  7 29  1  0  0  0
  8  9  1  0  0  0
  8 22  1  0  0  0
  9 10  1  0  0  0
  9 27  2  0  0  0
 10 11  2  0  0  0
 10 15  1  0  0  0
 11 12  1  0  0  0
 11 91  1  0  0  0
 12 13  2  0  0  0
 12 92  1  0  0  0
 13 14  1  0  0  0
 13 31  1  0  0  0
 14 15  2  0  0  0
 14 93  1  0  0  0
 15 94  1  0  0  0
 16 17  2  0  0  0
 16 21  1  0  0  0
 16 31  1  0  0  0
 17 18  1  0  0  0
 17 95  1  0  0  0
 18 19  2  0  0  0
 18 96  1  0  0  0
 19 20  1  0  0  0
 19 24  1  0  0  0
 20 21  2  0  0  0
 20 97  1  0  0  0
 21 23  1  0  0  0
 22 28  1  0  0  0
 22 32  2  0  0  0
 26 27  1  0  0  0
 28 98  1  0  0  0
 28 99  1  0  0  0
 29100  1  0  0  0
 29101  1  0  0  0
 33 34  1  0  0  0
 33 66  1  0  0  0
 33 70  2  0  0  0
 34 36  1  0  0  0
 34 59  1  0  0  0
 34102  1  0  0  0
 35 44  2  0  0  0
 35 45  1  0  0  0
 35 68  1  0  0  0
 36 56  1  0  0  0
 36103  1  0  0  0
 37 39  1  0  0  0
 37 47  1  0  0  0
 37 66  1  0  0  0
 37104  1  0  0  0
 38 43  2  0  0  0
 38 46  1  0  0  0
 38 47  1  0  0  0
 39 64  1  0  0  0
 39 67  2  0  0  0
 40 52  1  0  0  0
 40 53  2  0  0  0
 40 58  1  0  0  0
 41105  1  0  0  0
 41106  1  0  0  0
 41107  1  0  0  0
 41 48  1  0  0  0
 42 43  1  0  0  0
 42 66  1  0  0  0
 42108  1  0  0  0
 42109  1  0  0  0
 43 44  1  0  0  0
 44110  1  0  0  0
 45 46  2  0  0  0
 45111  1  0  0  0
 46112  1  0  0  0
 47113  1  0  0  0
 47114  1  0  0  0
 48 56  1  0  0  0
 48 65  1  0  0  0
 48115  1  0  0  0
 49 50  1  0  0  0
 49 53  1  0  0  0
 49 64  1  0  0  0
 49116  1  0  0  0
 50 51  1  0  0  0
 50117  1  0  0  0
 50118  1  0  0  0
 51 52  1  0  0  0
 51119  1  0  0  0
 51120  1  0  0  0
 52121  1  0  0  0
 52122  1  0  0  0
 53 54  1  0  0  0
 54 55  2  0  0  0
 54123  1  0  0  0
 55 57  1  0  0  0
 55124  1  0  0  0
 56 69  2  0  0  0
 57 58  2  0  0  0
 57125  1  0  0  0
 58126  1  0  0  0
 59 60  1  0  0  0
 59 61  1  0  0  0
 59 62  1  0  0  0
 60127  1  0  0  0
 60128  1  0  0  0
 60129  1  0  0  0
 61130  1  0  0  0
 61131  1  0  0  0
 61132  1  0  0  0
 62133  1  0  0  0
 62134  1  0  0  0
 62135  1  0  0  0
 63 65  1  0  0  0
 63136  1  0  0  0
 63137  1  0  0  0
 63138  1  0  0  0
 64139  1  0  0  0
 65140  1  0  0  0
 68 77  1  0  0  0
 71 72  2  0  0  0
 71 73  1  0  0  0
 71141  1  0  0  0
 72 75  1  0  0  0
 72142  1  0  0  0
 73 74  2  0  0  0
 73 78  1  0  0  0
 74 76  1  0  0  0
 74 79  1  0  0  0
 75 79  2  0  0  0
 75 80  1  0  0  0
 76143  1  0  0  0
 76144  1  0  0  0
 76145  1  0  0  0
 77 78  1  0  0  0
 77146  1  0  0  0
 77147  1  0  0  0
 78 81  1  0  0  0
 78148  1  0  0  0
 80149  1  0  0  0
 81150  1  0  0  0
M  ISO  4   1 100  68 101  77 101  80 100
M  END
> <chiral flag>
0

> <version>
0

> <s_m_source_file>
/data/baiqing/PycharmProjects/Reinvent-master-3.2/result/LINK_invent/BTK/process_docking_weight1_custom_sum_contain_oxygen_bond_distance_aromatic_linkinvent_7_9_3/rearranged_h_0142.sdf

> <i_m_source_file_index>
20

> <r_mmod_Potential_Energy-OPLS-2005>
891.842834472656

> <r_mmod_Stretch_Energy-OPLS-2005>
470.077423095703

> <r_mmod_Bend_Energy-OPLS-2005>
421.909149169922

> <r_mmod_Torsional_Energy-OPLS-2005>
219.088165283203

> <r_mmod_Improper_Torsional_Energy-OPLS-2005>
5.56255960464478

> <r_mmod_Van_der_Waal_Energy-OPLS-2005>
128.618240356445

> <r_mmod_Electrostatic_Energy-OPLS-2005>
-489.497772216797

> <r_mmod_Solvation_Energy-OPLS-2005>
-257.139190673828

> <b_mmod_Minimization_Converged-OPLS-2005>
0

> <r_mmod_RMS_Derivative-OPLS-2005>
0.983833789825439

$$$$
20
                    3D
 Structure written by MMmdl.
168178  0  0  1  0            999 V2000
  -30.5788  -14.7587   20.4840 C   0  0  0  0  0  0
  -30.4523  -12.4663   19.4818 C   0  0  0  0  0  0
  -29.5251  -12.5201   18.2456 C   0  0  0  0  0  0
  -28.0534  -12.3203   18.6576 C   0  0  0  0  0  0
  -27.6512  -13.2104   19.8627 C   0  0  2  0  0  0
  -28.6937  -13.1302   21.0002 C   0  0  0  0  0  0
  -25.2560  -13.8106   20.5669 C   0  0  0  0  0  0
  -24.1829  -13.0404   20.9221 C   0  0  0  0  0  0
  -24.6377  -11.6873   20.8757 C   0  0  0  0  0  0
  -23.9030  -10.4270   21.0398 C   0  0  0  0  0  0
  -24.3578   -9.4189   21.9167 C   0  0  0  0  0  0
  -23.6264   -8.2223   22.0734 C   0  0  0  0  0  0
  -22.4246   -8.0249   21.3531 C   0  0  0  0  0  0
  -21.9873   -9.0222   20.4636 C   0  0  0  0  0  0
  -22.7201  -10.2108   20.3049 C   0  0  0  0  0  0
  -21.6843   -6.0709   22.5276 C   0  0  0  0  0  0
  -21.4009   -6.5606   23.8210 C   0  0  0  0  0  0
  -21.3669   -5.6760   24.9172 C   0  0  0  0  0  0
  -21.6039   -4.3024   24.7225 C   0  0  0  0  0  0
  -21.8814   -3.8121   23.4344 C   0  0  0  0  0  0
  -21.9191   -4.6941   22.3405 C   0  0  0  0  0  0
  -22.7850  -13.5232   21.1863 C   0  0  0  0  0  0
  -22.1667   -4.2130   21.0987 F   0  0  0  0  0  0
  -21.5633   -3.4511   25.7741 F   0  0  0  0  0  0
  -29.9984  -13.5079   20.4328 N   0  0  0  0  0  0
  -26.2978  -12.9278   20.3306 N   0  0  0  0  0  0
  -25.9314  -11.6443   20.5769 N   0  0  0  0  0  0
  -22.0450  -12.8256   22.0402 N   0  0  0  0  0  0
  -25.4259  -15.1799   20.3976 N   0  0  0  0  0  0
  -31.7392  -14.9200   20.0910 O   0  0  0  0  0  0
  -21.6625   -6.8846   21.4230 O   0  0  0  0  0  0
  -22.3574  -14.5543   20.6699 O   0  0  0  0  0  0
  -24.6312  -31.8566   23.1994 C   0  0  0  0  0  0
  -25.9141  -32.4754   23.8338 C   0  0  1  0  0  0
  -27.2128  -27.2590   20.1250 C   0  0  0  0  0  0
  -25.5950  -33.8558   24.2269 N   0  0  0  0  0  0
  -23.4271  -30.4826   21.5416 C   0  0  2  0  0  0
  -24.8721  -28.9335   20.1070 C   0  0  0  0  0  0
  -22.7500  -29.4623   22.4887 C   0  0  0  0  0  0
  -18.0305  -28.1381   22.8473 C   0  0  0  0  0  0
  -24.1495  -36.7277   23.2635 C   0  0  0  0  0  0
  -25.9742  -30.7685   21.3801 C   0  0  0  0  0  0
  -26.0451  -29.3922   20.7192 C   0  0  0  0  0  0
  -27.2183  -28.5682   20.7164 C   0  0  0  0  0  0
  -26.0157  -26.8766   19.4735 C   0  0  0  0  0  0
  -24.8631  -27.6834   19.4731 C   0  0  0  0  0  0
  -23.6452  -29.8234   20.1556 C   0  0  0  0  0  0
  -25.4117  -36.3064   24.0325 C   0  0  1  0  0  0
  -20.5906  -28.3706   23.1242 C   0  0  2  0  0  0
  -20.6784  -26.9417   22.5399 C   0  0  0  0  0  0
  -19.5758  -26.6380   21.5196 C   0  0  0  0  0  0
  -18.1941  -26.7920   22.1614 C   0  0  0  0  0  0
  -19.1556  -28.8855   23.2858 C   0  0  0  0  0  0
  -18.9482  -30.1451   23.8887 C   0  0  0  0  0  0
  -17.6482  -30.6576   24.0565 C   0  0  0  0  0  0
  -25.9059  -34.9439   23.5096 C   0  0  0  0  0  0
  -16.5373  -29.9079   23.6324 C   0  0  0  0  0  0
  -16.7291  -28.6497   23.0338 C   0  0  0  0  0  0
  -26.4510  -31.6561   25.0716 C   0  0  0  0  0  0
  -25.3753  -31.3735   26.1458 C   0  0  0  0  0  0
  -27.0320  -30.2962   24.6194 C   0  0  0  0  0  0
  -27.6088  -32.4276   25.7479 C   0  0  0  0  0  0
  -27.5573  -37.1796   24.8466 C   0  0  0  0  0  0
  -21.4207  -29.3060   22.3626 N   0  0  0  0  0  0
  -26.4286  -37.3765   23.9411 N   0  0  0  0  0  0
  -24.6966  -31.0541   22.0964 N   0  0  0  0  0  0
  -23.4208  -28.8162   23.2979 O   0  0  0  0  0  0
  -28.2961  -26.3470   20.1994 O   0  0  0  0  0  0
  -26.5624  -34.8909   22.4662 O   0  0  0  0  0  0
  -23.5461  -32.1400   23.7285 O   0  0  0  0  0  0
  -30.5497  -20.9042   20.5706 C   0  0  0  0  0  0
  -31.2087  -19.7566   20.9763 C   0  0  0  0  0  0
  -28.6051  -20.0470   19.4270 C   0  0  0  0  0  0
  -29.4140  -19.0272   18.7389 C   0  0  0  0  0  0
  -29.1799  -21.1028   20.0677 C   0  0  0  0  0  0
  -29.2447  -17.8073   19.2628 C   0  0  0  0  0  0
  -30.9789  -18.1889   21.1211 C   0  0  0  0  0  0
  -29.0615  -18.9151   17.2633 C   0  0  0  0  0  0
  -28.0883  -17.7199   17.2174 C   0  0  0  0  0  0
  -26.8102  -18.2445   19.3558 C   0  0  0  0  0  0
  -27.0883  -19.7945   19.2607 C   0  0  1  0  0  0
  -27.9227  -17.3508   18.7014 C   0  0  2  0  0  0
  -29.7181  -17.3539   20.6461 C   0  0  2  0  0  0
  -26.1772  -20.5562   20.2427 C   0  0  0  0  0  0
  -28.0016  -24.8748   20.0559 C   0  0  0  0  0  0
  -29.0164  -23.6601   20.4137 C   0  0  0  0  0  0
  -29.7496  -15.8198   20.8105 N   0  0  0  0  0  0
  -28.4320  -22.3032   20.2338 O   0  0  0  0  0  0
  -31.4919  -12.6101   19.1821 H   0  0  0  0  0  0
  -30.4130  -11.4811   19.9503 H   0  0  0  0  0  0
  -29.8179  -11.7611   17.5187 H   0  0  0  0  0  0
  -29.6374  -13.4842   17.7448 H   0  0  0  0  0  0
  -27.9238  -11.2694   18.9214 H   0  0  0  0  0  0
  -27.3974  -12.5039   17.8072 H   0  0  0  0  0  0
  -27.6496  -14.2297   19.4868 H   0  0  0  0  0  0
  -28.7346  -12.1216   21.4140 H   0  0  0  0  0  0
  -28.4141  -13.7809   21.8307 H   0  0  0  0  0  0
  -25.2712   -9.5679   22.4747 H   0  0  0  0  0  0
  -23.9965   -7.4608   22.7444 H   0  0  0  0  0  0
  -21.0797   -8.8726   19.8947 H   0  0  0  0  0  0
  -22.3621  -10.9634   19.6162 H   0  0  0  0  0  0
  -21.1990   -7.6109   23.9712 H   0  0  0  0  0  0
  -21.1509   -6.0487   25.9079 H   0  0  0  0  0  0
  -22.0592   -2.7583   23.2848 H   0  0  0  0  0  0
  -22.4010  -11.9941   22.4882 H   0  0  0  0  0  0
  -21.1066  -13.1317   22.2564 H   0  0  0  0  0  0
  -24.6429  -15.8206   20.4609 H   0  0  0  0  0  0
  -26.2420  -15.5954   19.9702 H   0  0  0  0  0  0
  -26.7203  -32.5406   23.1073 H   0  0  0  0  0  0
  -25.0111  -33.9705   25.0425 H   0  0  0  0  0  0
  -22.7231  -31.3057   21.3991 H   0  0  0  0  0  0
  -23.3758  -35.9604   23.3274 H   0  0  0  0  0  0
  -24.3605  -36.8923   22.2057 H   0  0  0  0  0  0
  -23.7244  -37.6469   23.6677 H   0  0  0  0  0  0
  -26.1159  -31.5310   20.6130 H   0  0  0  0  0  0
  -26.8505  -30.8156   22.0149 H   0  0  0  0  0  0
  -28.1144  -28.9104   21.2153 H   0  0  0  0  0  0
  -25.9297  -25.9279   18.9671 H   0  0  0  0  0  0
  -23.9670  -27.3306   18.9819 H   0  0  0  0  0  0
  -23.7762  -30.6039   19.4047 H   0  0  0  0  0  0
  -22.7603  -29.2644   19.8452 H   0  0  0  0  0  0
  -25.1294  -36.1909   25.0815 H   0  0  0  0  0  0
  -21.0018  -28.3301   24.1353 H   0  0  0  0  0  0
  -20.5654  -26.2330   23.3619 H   0  0  0  0  0  0
  -21.6658  -26.7415   22.1218 H   0  0  0  0  0  0
  -19.6921  -25.6290   21.1228 H   0  0  0  0  0  0
  -19.6675  -27.3186   20.6719 H   0  0  0  0  0  0
  -17.4206  -26.6657   21.4022 H   0  0  0  0  0  0
  -18.0349  -26.0063   22.9014 H   0  0  0  0  0  0
  -19.7965  -30.7260   24.2250 H   0  0  0  0  0  0
  -17.5044  -31.6253   24.5176 H   0  0  0  0  0  0
  -15.5373  -30.2979   23.7641 H   0  0  0  0  0  0
  -15.8698  -28.0815   22.7045 H   0  0  0  0  0  0
  -24.5912  -30.7082   25.7821 H   0  0  0  0  0  0
  -24.8961  -32.2911   26.4880 H   0  0  0  0  0  0
  -25.8087  -30.8929   27.0240 H   0  0  0  0  0  0
  -26.2870  -29.6718   24.1236 H   0  0  0  0  0  0
  -27.4007  -29.7217   25.4704 H   0  0  0  0  0  0
  -27.8766  -30.4204   23.9413 H   0  0  0  0  0  0
  -27.2738  -33.3620   26.1996 H   0  0  0  0  0  0
  -28.3932  -32.6746   25.0312 H   0  0  0  0  0  0
  -28.0701  -31.8416   26.5442 H   0  0  0  0  0  0
  -28.2596  -38.0085   24.7495 H   0  0  0  0  0  0
  -28.1057  -36.2617   24.6301 H   0  0  0  0  0  0
  -27.2295  -37.1465   25.8870 H   0  0  0  0  0  0
  -20.9383  -29.8803   21.6855 H   0  0  0  0  0  0
  -26.0155  -38.2835   24.1410 H   0  0  0  0  0  0
  -31.1407  -21.8054   20.6432 H   0  0  0  0  0  0
  -32.2138  -19.9815   21.3070 H   0  0  0  0  0  0
  -31.1165  -17.9751   22.1816 H   0  0  0  0  0  0
  -31.8459  -17.7412   20.6328 H   0  0  0  0  0  0
  -29.9607  -18.7149   16.6797 H   0  0  0  0  0  0
  -28.6129  -19.8272   16.8651 H   0  0  0  0  0  0
  -28.5311  -16.8906   16.6646 H   0  0  0  0  0  0
  -27.1396  -17.9669   16.7396 H   0  0  0  0  0  0
  -25.8385  -18.0136   18.9186 H   0  0  0  0  0  0
  -26.7302  -17.9667   20.4081 H   0  0  0  0  0  0
  -26.8146  -20.1264   18.2587 H   0  0  0  0  0  0
  -27.7514  -16.2873   18.8379 H   0  0  0  0  0  0
  -28.9186  -17.6645   21.3197 H   0  0  0  0  0  0
  -26.5288  -20.4651   21.2716 H   0  0  0  0  0  0
  -25.1580  -20.1678   20.2089 H   0  0  0  0  0  0
  -26.1150  -21.6168   19.9974 H   0  0  0  0  0  0
  -27.1000  -24.6779   20.6391 H   0  0  0  0  0  0
  -27.7208  -24.7113   19.0156 H   0  0  0  0  0  0
  -29.3449  -23.7575   21.4489 H   0  0  0  0  0  0
  -29.9095  -23.7497   19.7955 H   0  0  0  0  0  0
  -28.8658  -15.4728   21.1528 H   0  0  0  0  0  0
  1 25  1  0  0  0
  1 30  2  0  0  0
  1 87  1  0  0  0
  2  3  1  0  0  0
  2 25  1  0  0  0
  2 89  1  0  0  0
  2 90  1  0  0  0
  3  4  1  0  0  0
  3 91  1  0  0  0
  3 92  1  0  0  0
  4  5  1  0  0  0
  4 93  1  0  0  0
  4 94  1  0  0  0
  5  6  1  0  0  0
  5 26  1  0  0  0
  5 95  1  0  0  0
  6 25  1  0  0  0
  6 96  1  0  0  0
  6 97  1  0  0  0
  7  8  2  0  0  0
  7 26  1  0  0  0
  7 29  1  0  0  0
  8  9  1  0  0  0
  8 22  1  0  0  0
  9 10  1  0  0  0
  9 27  2  0  0  0
 10 11  2  0  0  0
 10 15  1  0  0  0
 11 12  1  0  0  0
 11 98  1  0  0  0
 12 13  2  0  0  0
 12 99  1  0  0  0
 13 14  1  0  0  0
 13 31  1  0  0  0
 14 15  2  0  0  0
 14100  1  0  0  0
 15101  1  0  0  0
 16 17  2  0  0  0
 16 21  1  0  0  0
 16 31  1  0  0  0
 17 18  1  0  0  0
 17102  1  0  0  0
 18 19  2  0  0  0
 18103  1  0  0  0
 19 20  1  0  0  0
 19 24  1  0  0  0
 20 21  2  0  0  0
 20104  1  0  0  0
 21 23  1  0  0  0
 22 28  1  0  0  0
 22 32  2  0  0  0
 26 27  1  0  0  0
 28105  1  0  0  0
 28106  1  0  0  0
 29107  1  0  0  0
 29108  1  0  0  0
 33 34  1  0  0  0
 33 66  1  0  0  0
 33 70  2  0  0  0
 34 36  1  0  0  0
 34 59  1  0  0  0
 34109  1  0  0  0
 35 44  2  0  0  0
 35 45  1  0  0  0
 35 68  1  0  0  0
 36 56  1  0  0  0
 36110  1  0  0  0
 37 39  1  0  0  0
 37 47  1  0  0  0
 37 66  1  0  0  0
 37111  1  0  0  0
 38 43  2  0  0  0
 38 46  1  0  0  0
 38 47  1  0  0  0
 39 64  1  0  0  0
 39 67  2  0  0  0
 40 52  1  0  0  0
 40 53  2  0  0  0
 40 58  1  0  0  0
 41112  1  0  0  0
 41113  1  0  0  0
 41114  1  0  0  0
 41 48  1  0  0  0
 42 43  1  0  0  0
 42 66  1  0  0  0
 42115  1  0  0  0
 42116  1  0  0  0
 43 44  1  0  0  0
 44117  1  0  0  0
 45 46  2  0  0  0
 45118  1  0  0  0
 46119  1  0  0  0
 47120  1  0  0  0
 47121  1  0  0  0
 48 56  1  0  0  0
 48 65  1  0  0  0
 48122  1  0  0  0
 49 50  1  0  0  0
 49 53  1  0  0  0
 49 64  1  0  0  0
 49123  1  0  0  0
 50 51  1  0  0  0
 50124  1  0  0  0
 50125  1  0  0  0
 51 52  1  0  0  0
 51126  1  0  0  0
 51127  1  0  0  0
 52128  1  0  0  0
 52129  1  0  0  0
 53 54  1  0  0  0
 54 55  2  0  0  0
 54130  1  0  0  0
 55 57  1  0  0  0
 55131  1  0  0  0
 56 69  2  0  0  0
 57 58  2  0  0  0
 57132  1  0  0  0
 58133  1  0  0  0
 59 60  1  0  0  0
 59 61  1  0  0  0
 59 62  1  0  0  0
 60134  1  0  0  0
 60135  1  0  0  0
 60136  1  0  0  0
 61137  1  0  0  0
 61138  1  0  0  0
 61139  1  0  0  0
 62140  1  0  0  0
 62141  1  0  0  0
 62142  1  0  0  0
 63 65  1  0  0  0
 63143  1  0  0  0
 63144  1  0  0  0
 63145  1  0  0  0
 64146  1  0  0  0
 65147  1  0  0  0
 68 85  1  0  0  0
 71 72  2  0  0  0
 71 75  1  0  0  0
 71148  1  0  0  0
 72 77  1  0  0  0
 72149  1  0  0  0
 73 74  1  0  0  0
 73 75  2  0  0  0
 73 81  1  0  0  0
 74 76  2  0  0  0
 74 78  1  0  0  0
 75 88  1  0  0  0
 76 82  1  0  0  0
 76 83  1  0  0  0
 77 83  1  0  0  0
 77150  1  0  0  0
 77151  1  0  0  0
 78 79  1  0  0  0
 78152  1  0  0  0
 78153  1  0  0  0
 79154  1  0  0  0
 79155  1  0  0  0
 79 82  1  0  0  0
 80 81  1  0  0  0
 80 82  1  0  0  0
 80156  1  0  0  0
 80157  1  0  0  0
 81 84  1  0  0  0
 81158  1  0  0  0
 82159  1  0  0  0
 83 87  1  0  0  0
 83160  1  0  0  0
 84161  1  0  0  0
 84162  1  0  0  0
 84163  1  0  0  0
 85 86  1  0  0  0
 85164  1  0  0  0
 85165  1  0  0  0
 86 88  1  0  0  0
 86166  1  0  0  0
 86167  1  0  0  0
 87168  1  0  0  0
M  ISO  4   1 100  68 101  85 101  87 100
M  END
> <chiral flag>
0

> <version>
0

> <s_m_source_file>
/data/baiqing/PycharmProjects/Reinvent-master-3.2/result/LINK_invent/BTK/process_docking_weight1_custom_sum_contain_oxygen_bond_distance_aromatic_linkinvent_7_9_3/rearranged_h_0142.sdf

> <i_m_source_file_index>
21

> <r_mmod_Potential_Energy-OPLS-2005>
657.044128417969

> <r_mmod_Stretch_Energy-OPLS-2005>
128.435653686523

> <r_mmod_Bend_Energy-OPLS-2005>
374.550720214844

> <r_mmod_Torsional_Energy-OPLS-2005>
453.352508544922

> <r_mmod_Improper_Torsional_Energy-OPLS-2005>
15.0048084259033

> <r_mmod_Van_der_Waal_Energy-OPLS-2005>
145.639938354492

> <r_mmod_Electrostatic_Energy-OPLS-2005>
-349.023101806641

> <r_mmod_Solvation_Energy-OPLS-2005>
-201.910339355469

> <b_mmod_Minimization_Converged-OPLS-2005>
0

> <r_mmod_RMS_Derivative-OPLS-2005>
2.45947432518005

$$$$
21
                    3D
 Structure written by MMmdl.
164173  0  0  1  0            999 V2000
  -30.0263  -16.3727   20.4491 C   0  0  0  0  0  0
  -30.3964  -13.5913   19.6050 C   0  0  0  0  0  0
  -29.5998  -12.9010   18.4171 C   0  0  0  0  0  0
  -28.2307  -12.3670   18.8466 C   0  0  0  0  0  0
  -27.6080  -13.3848   19.8072 C   0  0  2  0  0  0
  -28.5721  -13.9000   20.9246 C   0  0  0  0  0  0
  -25.2350  -13.8361   20.5786 C   0  0  0  0  0  0
  -24.1787  -13.0440   20.9199 C   0  0  0  0  0  0
  -24.6588  -11.6989   20.8657 C   0  0  0  0  0  0
  -23.9286  -10.4297   21.0323 C   0  0  0  0  0  0
  -24.3748   -9.4231   21.9161 C   0  0  0  0  0  0
  -23.6366   -8.2282   22.0763 C   0  0  0  0  0  0
  -22.4338   -8.0327   21.3554 C   0  0  0  0  0  0
  -22.0013   -9.0317   20.4650 C   0  0  0  0  0  0
  -22.7415  -10.2158   20.3038 C   0  0  0  0  0  0
  -21.6884   -6.0776   22.5264 C   0  0  0  0  0  0
  -21.4037   -6.5680   23.8199 C   0  0  0  0  0  0
  -21.3664   -5.6830   24.9160 C   0  0  0  0  0  0
  -21.6051   -4.3093   24.7212 C   0  0  0  0  0  0
  -21.8812   -3.8183   23.4336 C   0  0  0  0  0  0
  -21.9201   -4.6997   22.3390 C   0  0  0  0  0  0
  -22.7786  -13.5124   21.1843 C   0  0  0  0  0  0
  -22.1676   -4.2209   21.0967 F   0  0  0  0  0  0
  -21.5613   -3.4556   25.7709 F   0  0  0  0  0  0
  -29.6957  -14.7981   20.3847 N   0  0  0  0  0  0
  -26.2922  -12.9877   20.3145 N   0  0  0  0  0  0
  -25.9589  -11.6881   20.5498 N   0  0  0  0  0  0
  -22.0481  -12.8106   22.0422 N   0  0  0  0  0  0
  -25.3786  -15.2111   20.4329 N   0  0  0  0  0  0
  -31.0509  -16.1753   19.6983 O   0  0  0  0  0  0
  -21.6685   -6.8942   21.4244 O   0  0  0  0  0  0
  -22.3429  -14.5426   20.6701 O   0  0  0  0  0  0
  -24.7285  -31.7457   23.1122 C   0  0  0  0  0  0
  -25.9648  -32.4205   23.7829 C   0  0  1  0  0  0
  -27.2570  -26.2224   20.2993 C   0  0  0  0  0  0
  -25.5999  -33.8054   24.1647 N   0  0  0  0  0  0
  -23.5765  -30.3238   21.4784 C   0  0  2  0  0  0
  -25.0395  -28.5598   20.1440 C   0  0  0  0  0  0
  -22.7967  -29.4020   22.4590 C   0  0  0  0  0  0
  -18.0373  -28.1444   22.8446 C   0  0  0  0  0  0
  -24.1497  -36.7047   23.2658 C   0  0  0  0  0  0
  -26.1717  -30.3163   21.4522 C   0  0  0  0  0  0
  -26.2343  -28.8261   20.8210 C   0  0  0  0  0  0
  -27.3060  -27.7099   20.8426 C   0  0  0  0  0  0
  -26.0217  -26.2832   19.5568 C   0  0  0  0  0  0
  -25.0018  -27.3148   19.4847 C   0  0  0  0  0  0
  -23.8602  -29.5752   20.1378 C   0  0  0  0  0  0
  -25.4173  -36.2734   24.0223 C   0  0  1  0  0  0
  -20.6040  -28.3829   23.1058 C   0  0  2  0  0  0
  -20.6812  -26.9439   22.5404 C   0  0  0  0  0  0
  -19.5794  -26.6348   21.5236 C   0  0  0  0  0  0
  -18.1986  -26.7966   22.1624 C   0  0  0  0  0  0
  -19.1652  -28.8984   23.2710 C   0  0  0  0  0  0
  -18.9542  -30.1562   23.8778 C   0  0  0  0  0  0
  -17.6516  -30.6616   24.0566 C   0  0  0  0  0  0
  -25.9189  -34.9141   23.4817 C   0  0  0  0  0  0
  -16.5408  -29.9089   23.6350 C   0  0  0  0  0  0
  -16.7344  -28.6504   23.0384 C   0  0  0  0  0  0
  -26.4658  -31.6467   25.0666 C   0  0  0  0  0  0
  -25.3552  -31.3941   26.1152 C   0  0  0  0  0  0
  -27.0645  -30.2751   24.6909 C   0  0  0  0  0  0
  -27.6017  -32.4428   25.7495 C   0  0  0  0  0  0
  -27.5552  -37.1670   24.8448 C   0  0  0  0  0  0
  -21.4585  -29.2976   22.3322 N   0  0  0  0  0  0
  -26.4259  -37.3550   23.9394 N   0  0  0  0  0  0
  -24.8541  -30.8426   22.0628 N   0  0  0  0  0  0
  -23.4170  -28.7698   23.3156 O   0  0  0  0  0  0
  -28.2058  -24.8167   20.2796 O   0  0  0  0  0  0
  -26.5896  -34.8826   22.4483 O   0  0  0  0  0  0
  -23.6198  -32.0756   23.5759 O   0  0  0  0  0  0
  -29.3802  -16.1560   22.6114 C   0  0  0  0  0  0
  -31.2549  -18.2653   21.0936 C   0  0  0  0  0  0
  -31.3221  -16.8207   22.2953 C   0  0  0  0  0  0
  -28.2261  -17.3138   21.5832 C   0  0  0  0  0  0
  -27.7079  -17.6795   24.0424 C   0  0  0  0  0  0
  -27.5690  -19.5202   22.5760 C   0  0  0  0  0  0
  -29.2525  -18.0568   24.1878 C   0  0  0  0  0  0
  -29.1228  -19.7117   22.8735 C   0  0  0  0  0  0
  -27.2491  -17.9955   22.5626 C   0  0  0  0  0  0
  -32.6017  -16.2967   22.8946 C   0  0  0  0  0  0
  -30.1136  -21.0367   19.1455 C   0  0  0  0  0  0
  -28.3676  -22.8266   20.6014 C   0  0  0  0  0  0
  -28.9282  -20.7161   20.0630 C   0  0  1  0  0  0
  -29.3778  -18.7589   20.5875 N   0  0  0  0  0  0
  -29.7795  -18.3032   22.7130 N   0  0  0  0  0  0
  -31.3350  -13.9237   19.1636 H   0  0  0  0  0  0
  -30.7128  -12.8340   20.3186 H   0  0  0  0  0  0
  -30.1870  -12.0920   17.9803 H   0  0  0  0  0  0
  -29.4537  -13.6297   17.6141 H   0  0  0  0  0  0
  -28.3658  -11.4035   19.3425 H   0  0  0  0  0  0
  -27.5874  -12.1807   17.9861 H   0  0  0  0  0  0
  -27.4093  -14.2470   19.1666 H   0  0  0  0  0  0
  -28.9390  -13.0790   21.5404 H   0  0  0  0  0  0
  -27.9391  -14.4796   21.5885 H   0  0  0  0  0  0
  -25.2896   -9.5703   22.4741 H   0  0  0  0  0  0
  -24.0079   -7.4694   22.7501 H   0  0  0  0  0  0
  -21.0940   -8.8893   19.8944 H   0  0  0  0  0  0
  -22.3909  -10.9716   19.6137 H   0  0  0  0  0  0
  -21.2052   -7.6197   23.9732 H   0  0  0  0  0  0
  -21.1480   -6.0552   25.9074 H   0  0  0  0  0  0
  -22.0578   -2.7658   23.2805 H   0  0  0  0  0  0
  -22.4186  -11.9873   22.4901 H   0  0  0  0  0  0
  -21.1070  -13.1046   22.2552 H   0  0  0  0  0  0
  -24.6005  -15.8420   20.5840 H   0  0  0  0  0  0
  -26.2438  -15.6848   20.1993 H   0  0  0  0  0  0
  -26.7782  -32.4583   23.0560 H   0  0  0  0  0  0
  -24.9951  -33.9022   24.9671 H   0  0  0  0  0  0
  -22.9295  -31.1715   21.2482 H   0  0  0  0  0  0
  -23.3788  -35.9345   23.3201 H   0  0  0  0  0  0
  -24.3553  -36.8875   22.2104 H   0  0  0  0  0  0
  -23.7257  -37.6157   23.6880 H   0  0  0  0  0  0
  -26.4330  -31.0072   20.6510 H   0  0  0  0  0  0
  -27.0020  -30.3996   22.1371 H   0  0  0  0  0  0
  -28.2057  -27.9593   21.3891 H   0  0  0  0  0  0
  -25.7848  -25.3804   19.0100 H   0  0  0  0  0  0
  -24.1190  -27.0899   18.9019 H   0  0  0  0  0  0
  -24.0751  -30.3139   19.3644 H   0  0  0  0  0  0
  -22.9549  -29.0685   19.8050 H   0  0  0  0  0  0
  -25.1421  -36.1396   25.0710 H   0  0  0  0  0  0
  -21.0121  -28.3497   24.1202 H   0  0  0  0  0  0
  -20.5677  -26.2468   23.3719 H   0  0  0  0  0  0
  -21.6672  -26.7335   22.1259 H   0  0  0  0  0  0
  -19.6943  -25.6232   21.1365 H   0  0  0  0  0  0
  -19.6760  -27.3091   20.6731 H   0  0  0  0  0  0
  -17.4255  -26.6729   21.4026 H   0  0  0  0  0  0
  -18.0335  -26.0149   22.9051 H   0  0  0  0  0  0
  -19.8020  -30.7417   24.2091 H   0  0  0  0  0  0
  -17.5062  -31.6310   24.5166 H   0  0  0  0  0  0
  -15.5403  -30.2954   23.7766 H   0  0  0  0  0  0
  -15.8745  -28.0804   22.7145 H   0  0  0  0  0  0
  -24.5731  -30.7357   25.7341 H   0  0  0  0  0  0
  -24.8791  -32.3252   26.4244 H   0  0  0  0  0  0
  -25.7555  -30.9224   27.0141 H   0  0  0  0  0  0
  -26.3437  -29.6195   24.2021 H   0  0  0  0  0  0
  -27.3997  -29.7420   25.5811 H   0  0  0  0  0  0
  -27.9458  -30.3741   24.0575 H   0  0  0  0  0  0
  -27.2518  -33.3868   26.1665 H   0  0  0  0  0  0
  -28.4038  -32.6750   25.0481 H   0  0  0  0  0  0
  -28.0452  -31.8836   26.5733 H   0  0  0  0  0  0
  -28.2460  -38.0046   24.7526 H   0  0  0  0  0  0
  -28.1142  -36.2573   24.6241 H   0  0  0  0  0  0
  -27.2264  -37.1256   25.8836 H   0  0  0  0  0  0
  -20.9968  -29.8536   21.6273 H   0  0  0  0  0  0
  -26.0017  -38.2559   24.1431 H   0  0  0  0  0  0
  -29.0649  -15.4126   23.3315 H   0  0  0  0  0  0
  -32.0591  -18.9230   20.7872 H   0  0  0  0  0  0
  -27.1241  -18.2437   24.7670 H   0  0  0  0  0  0
  -27.5187  -16.6341   24.3096 H   0  0  0  0  0  0
  -27.2194  -19.9663   21.6514 H   0  0  0  0  0  0
  -26.9927  -20.0300   23.3485 H   0  0  0  0  0  0
  -29.7992  -17.2393   24.6650 H   0  0  0  0  0  0
  -29.4306  -18.7912   24.9787 H   0  0  0  0  0  0
  -29.2480  -20.3016   23.7844 H   0  0  0  0  0  0
  -29.6412  -20.4529   22.2745 H   0  0  0  0  0  0
  -26.1988  -17.7728   22.3690 H   0  0  0  0  0  0
  -33.1722  -17.1051   23.3528 H   0  0  0  0  0  0
  -33.2246  -15.8589   22.1117 H   0  0  0  0  0  0
  -32.3951  -15.5415   23.6487 H   0  0  0  0  0  0
  -29.8807  -21.8731   18.4851 H   0  0  0  0  0  0
  -30.3892  -20.1814   18.5299 H   0  0  0  0  0  0
  -30.9880  -21.3159   19.7377 H   0  0  0  0  0  0
  -29.1748  -22.9659   21.3253 H   0  0  0  0  0  0
  -27.4852  -22.6637   21.2203 H   0  0  0  0  0  0
  -28.0756  -20.5159   19.4131 H   0  0  0  0  0  0
  1 25  1  0  0  0
  1 30  2  0  0  0
  1 85  1  0  0  0
  2  3  1  0  0  0
  2 25  1  0  0  0
  2 86  1  0  0  0
  2 87  1  0  0  0
  3  4  1  0  0  0
  3 88  1  0  0  0
  3 89  1  0  0  0
  4  5  1  0  0  0
  4 90  1  0  0  0
  4 91  1  0  0  0
  5  6  1  0  0  0
  5 26  1  0  0  0
  5 92  1  0  0  0
  6 25  1  0  0  0
  6 93  1  0  0  0
  6 94  1  0  0  0
  7  8  2  0  0  0
  7 26  1  0  0  0
  7 29  1  0  0  0
  8  9  1  0  0  0
  8 22  1  0  0  0
  9 10  1  0  0  0
  9 27  2  0  0  0
 10 11  2  0  0  0
 10 15  1  0  0  0
 11 12  1  0  0  0
 11 95  1  0  0  0
 12 13  2  0  0  0
 12 96  1  0  0  0
 13 14  1  0  0  0
 13 31  1  0  0  0
 14 15  2  0  0  0
 14 97  1  0  0  0
 15 98  1  0  0  0
 16 17  2  0  0  0
 16 21  1  0  0  0
 16 31  1  0  0  0
 17 18  1  0  0  0
 17 99  1  0  0  0
 18 19  2  0  0  0
 18100  1  0  0  0
 19 20  1  0  0  0
 19 24  1  0  0  0
 20 21  2  0  0  0
 20101  1  0  0  0
 21 23  1  0  0  0
 22 28  1  0  0  0
 22 32  2  0  0  0
 26 27  1  0  0  0
 28102  1  0  0  0
 28103  1  0  0  0
 29104  1  0  0  0
 29105  1  0  0  0
 33 34  1  0  0  0
 33 66  1  0  0  0
 33 70  2  0  0  0
 34 36  1  0  0  0
 34 59  1  0  0  0
 34106  1  0  0  0
 35 44  2  0  0  0
 35 45  1  0  0  0
 35 68  1  0  0  0
 36 56  1  0  0  0
 36107  1  0  0  0
 37 39  1  0  0  0
 37 47  1  0  0  0
 37 66  1  0  0  0
 37108  1  0  0  0
 38 43  2  0  0  0
 38 46  1  0  0  0
 38 47  1  0  0  0
 39 64  1  0  0  0
 39 67  2  0  0  0
 40 52  1  0  0  0
 40 53  2  0  0  0
 40 58  1  0  0  0
 41109  1  0  0  0
 41110  1  0  0  0
 41111  1  0  0  0
 41 48  1  0  0  0
 42 43  1  0  0  0
 42 66  1  0  0  0
 42112  1  0  0  0
 42113  1  0  0  0
 43 44  1  0  0  0
 44114  1  0  0  0
 45 46  2  0  0  0
 45115  1  0  0  0
 46116  1  0  0  0
 47117  1  0  0  0
 47118  1  0  0  0
 48 56  1  0  0  0
 48 65  1  0  0  0
 48119  1  0  0  0
 49 50  1  0  0  0
 49 53  1  0  0  0
 49 64  1  0  0  0
 49120  1  0  0  0
 50 51  1  0  0  0
 50121  1  0  0  0
 50122  1  0  0  0
 51 52  1  0  0  0
 51123  1  0  0  0
 51124  1  0  0  0
 52125  1  0  0  0
 52126  1  0  0  0
 53 54  1  0  0  0
 54 55  2  0  0  0
 54127  1  0  0  0
 55 57  1  0  0  0
 55128  1  0  0  0
 56 69  2  0  0  0
 57 58  2  0  0  0
 57129  1  0  0  0
 58130  1  0  0  0
 59 60  1  0  0  0
 59 61  1  0  0  0
 59 62  1  0  0  0
 60131  1  0  0  0
 60132  1  0  0  0
 60133  1  0  0  0
 61134  1  0  0  0
 61135  1  0  0  0
 61136  1  0  0  0
 62137  1  0  0  0
 62138  1  0  0  0
 62139  1  0  0  0
 63 65  1  0  0  0
 63140  1  0  0  0
 63141  1  0  0  0
 63142  1  0  0  0
 64143  1  0  0  0
 65144  1  0  0  0
 68 82  1  0  0  0
 71 73  1  0  0  0
 71 74  2  0  0  0
 71145  1  0  0  0
 72 73  2  0  0  0
 72 84  1  0  0  0
 72146  1  0  0  0
 73 80  1  0  0  0
 74 84  1  0  0  0
 74 79  1  0  0  0
 75 77  1  0  0  0
 75 79  1  0  0  0
 75147  1  0  0  0
 75148  1  0  0  0
 76 78  1  0  0  0
 76 79  1  0  0  0
 76149  1  0  0  0
 76150  1  0  0  0
 77 85  1  0  0  0
 77151  1  0  0  0
 77152  1  0  0  0
 78 85  1  0  0  0
 78153  1  0  0  0
 78154  1  0  0  0
 79155  1  0  0  0
 80156  1  0  0  0
 80157  1  0  0  0
 80158  1  0  0  0
 81159  1  0  0  0
 81160  1  0  0  0
 81161  1  0  0  0
 81 83  1  0  0  0
 82 83  1  0  0  0
 82162  1  0  0  0
 82163  1  0  0  0
 83 84  1  0  0  0
 83164  1  0  0  0
M  ISO  4   1 100  68 101  82 101  85 100
M  END
> <chiral flag>
0

> <version>
0

> <s_m_source_file>
/data/baiqing/PycharmProjects/Reinvent-master-3.2/result/LINK_invent/BTK/process_docking_weight1_custom_sum_contain_oxygen_bond_distance_aromatic_linkinvent_7_9_3/rearranged_h_0142.sdf

> <i_m_source_file_index>
22

> <r_mmod_Potential_Energy-OPLS-2005>
18619.625

> <r_mmod_Stretch_Energy-OPLS-2005>
11650.2216796875

> <r_mmod_Bend_Energy-OPLS-2005>
1154.63500976562

> <r_mmod_Torsional_Energy-OPLS-2005>
490.053497314453

> <r_mmod_Improper_Torsional_Energy-OPLS-2005>
95.8517684936523

> <r_mmod_Van_der_Waal_Energy-OPLS-2005>
3528.12377929688

> <r_mmod_Electrostatic_Energy-OPLS-2005>
-325.397308349609

> <r_mmod_Solvation_Energy-OPLS-2005>
-197.649444580078

> <b_mmod_Minimization_Converged-OPLS-2005>
0

> <r_mmod_RMS_Derivative-OPLS-2005>
10.7907485961914

$$$$
22
                    3D
 Structure written by MMmdl.
165175  0  0  1  0            999 V2000
  -30.6819  -14.5615   20.5284 C   0  0  0  0  0  0
  -30.4234  -12.3587   19.4350 C   0  0  0  0  0  0
  -29.4938  -12.5173   18.2106 C   0  0  0  0  0  0
  -28.0163  -12.3676   18.6267 C   0  0  0  0  0  0
  -27.6527  -13.2186   19.8768 C   0  0  2  0  0  0
  -28.7008  -13.0585   20.9990 C   0  0  0  0  0  0
  -25.2546  -13.8081   20.5887 C   0  0  0  0  0  0
  -24.1785  -13.0378   20.9258 C   0  0  0  0  0  0
  -24.6335  -11.6859   20.8759 C   0  0  0  0  0  0
  -23.9007  -10.4278   21.0362 C   0  0  0  0  0  0
  -24.3559   -9.4223   21.9173 C   0  0  0  0  0  0
  -23.6265   -8.2238   22.0725 C   0  0  0  0  0  0
  -22.4263   -8.0270   21.3503 C   0  0  0  0  0  0
  -21.9884   -9.0196   20.4567 C   0  0  0  0  0  0
  -22.7188  -10.2093   20.2965 C   0  0  0  0  0  0
  -21.6876   -6.0709   22.5286 C   0  0  0  0  0  0
  -21.4031   -6.5615   23.8211 C   0  0  0  0  0  0
  -21.3619   -5.6780   24.9189 C   0  0  0  0  0  0
  -21.6014   -4.3034   24.7260 C   0  0  0  0  0  0
  -21.8838   -3.8111   23.4381 C   0  0  0  0  0  0
  -21.9214   -4.6928   22.3435 C   0  0  0  0  0  0
  -22.7799  -13.5196   21.1930 C   0  0  0  0  0  0
  -22.1699   -4.2089   21.1017 F   0  0  0  0  0  0
  -21.5564   -3.4528   25.7772 F   0  0  0  0  0  0
  -30.0263  -13.3661   20.4329 N   0  0  0  0  0  0
  -26.3001  -12.9302   20.3441 N   0  0  0  0  0  0
  -25.9274  -11.6455   20.5788 N   0  0  0  0  0  0
  -22.0409  -12.8156   22.0439 N   0  0  0  0  0  0
  -25.4305  -15.1801   20.4610 N   0  0  0  0  0  0
  -31.8259  -14.7225   20.0978 O   0  0  0  0  0  0
  -21.6644   -6.8850   21.4235 O   0  0  0  0  0  0
  -22.3519  -14.5527   20.6798 O   0  0  0  0  0  0
  -24.6235  -31.8609   23.2026 C   0  0  0  0  0  0
  -25.9105  -32.4773   23.8364 C   0  0  1  0  0  0
  -27.2520  -27.3663   20.1225 C   0  0  0  0  0  0
  -25.5927  -33.8578   24.2288 N   0  0  0  0  0  0
  -23.4144  -30.4820   21.5428 C   0  0  2  0  0  0
  -24.8696  -28.9397   20.1127 C   0  0  0  0  0  0
  -22.7450  -29.4634   22.4952 C   0  0  0  0  0  0
  -18.0266  -28.1374   22.8482 C   0  0  0  0  0  0
  -24.1500  -36.7314   23.2647 C   0  0  0  0  0  0
  -25.9520  -30.8071   21.3690 C   0  0  0  0  0  0
  -26.0301  -29.4352   20.7187 C   0  0  0  0  0  0
  -27.2200  -28.6586   20.7183 C   0  0  0  0  0  0
  -26.0747  -26.9189   19.4756 C   0  0  0  0  0  0
  -24.8931  -27.6852   19.4860 C   0  0  0  0  0  0
  -23.6301  -29.8098   20.1598 C   0  0  0  0  0  0
  -25.4120  -36.3086   24.0336 C   0  0  1  0  0  0
  -20.5870  -28.3650   23.1309 C   0  0  2  0  0  0
  -20.6764  -26.9377   22.5423 C   0  0  0  0  0  0
  -19.5745  -26.6367   21.5226 C   0  0  0  0  0  0
  -18.1916  -26.7910   22.1628 C   0  0  0  0  0  0
  -19.1520  -28.8835   23.2884 C   0  0  0  0  0  0
  -18.9443  -30.1448   23.8893 C   0  0  0  0  0  0
  -17.6440  -30.6577   24.0567 C   0  0  0  0  0  0
  -25.9045  -34.9447   23.5103 C   0  0  0  0  0  0
  -16.5333  -29.9083   23.6328 C   0  0  0  0  0  0
  -16.7252  -28.6510   23.0339 C   0  0  0  0  0  0
  -26.4501  -31.6573   25.0710 C   0  0  0  0  0  0
  -25.3777  -31.3707   26.1472 C   0  0  0  0  0  0
  -27.0351  -30.3016   24.6128 C   0  0  0  0  0  0
  -27.6041  -32.4316   25.7478 C   0  0  0  0  0  0
  -27.5577  -37.1808   24.8457 C   0  0  0  0  0  0
  -21.4166  -29.3018   22.3719 N   0  0  0  0  0  0
  -26.4296  -37.3776   23.9387 N   0  0  0  0  0  0
  -24.6804  -31.0682   22.0940 N   0  0  0  0  0  0
  -23.4190  -28.8185   23.3020 O   0  0  0  0  0  0
  -28.4076  -26.5840   20.1946 O   0  0  0  0  0  0
  -26.5626  -34.8926   22.4671 O   0  0  0  0  0  0
  -23.5406  -32.1399   23.7374 O   0  0  0  0  0  0
  -26.9527  -20.7966   19.4280 C   0  0  0  0  0  0
  -27.7662  -21.9188   19.6154 C   0  0  0  0  0  0
  -29.3792  -20.5171   20.7546 C   0  0  0  0  0  0
  -27.2847  -19.5243   19.9393 C   0  0  0  0  0  0
  -28.5552  -19.3520   20.5799 C   0  0  0  0  0  0
  -28.9711  -21.8240   20.3211 C   0  0  0  0  0  0
  -25.9304  -17.8408   18.4290 C   0  0  0  0  0  0
  -24.8739  -18.5993   19.1966 C   0  0  0  0  0  0
  -29.3675  -17.8691   22.6371 C   0  0  0  0  0  0
  -30.8028  -17.6098   22.1633 C   0  0  0  0  0  0
  -26.2576  -18.4158   19.7892 C   0  0  0  0  0  0
  -28.9518  -17.9490   21.1601 C   0  0  2  0  0  0
  -30.2157  -17.0717   20.8477 C   0  0  2  0  0  0
  -28.3390  -25.1360   19.9704 C   0  0  0  0  0  0
  -29.1916  -24.2361   20.9410 C   0  0  0  0  0  0
  -29.9327  -15.6084   20.9498 N   0  0  0  0  0  0
  -29.7616  -22.9618   20.4977 O   0  0  0  0  0  0
  -31.4665  -12.4633   19.1353 H   0  0  0  0  0  0
  -30.3321  -11.3608   19.8616 H   0  0  0  0  0  0
  -29.7451  -11.7834   17.4422 H   0  0  0  0  0  0
  -29.6448  -13.4965   17.7503 H   0  0  0  0  0  0
  -27.8269  -11.3137   18.8316 H   0  0  0  0  0  0
  -27.3673  -12.6369   17.7919 H   0  0  0  0  0  0
  -27.6741  -14.2635   19.5684 H   0  0  0  0  0  0
  -28.6909  -12.0436   21.3959 H   0  0  0  0  0  0
  -28.4515  -13.7067   21.8422 H   0  0  0  0  0  0
  -25.2682   -9.5820   22.4784 H   0  0  0  0  0  0
  -23.9939   -7.4643   22.7479 H   0  0  0  0  0  0
  -21.0838   -8.8602   19.8847 H   0  0  0  0  0  0
  -22.3616  -10.9583   19.6046 H   0  0  0  0  0  0
  -21.2050   -7.6125   23.9714 H   0  0  0  0  0  0
  -21.1388   -6.0493   25.9081 H   0  0  0  0  0  0
  -22.0637   -2.7572   23.2873 H   0  0  0  0  0  0
  -22.4011  -11.9788   22.4804 H   0  0  0  0  0  0
  -21.1056  -13.1219   22.2724 H   0  0  0  0  0  0
  -24.6660  -15.8290   20.6109 H   0  0  0  0  0  0
  -26.2912  -15.6341   20.1948 H   0  0  0  0  0  0
  -26.7180  -32.5441   23.1127 H   0  0  0  0  0  0
  -25.0005  -33.9717   25.0389 H   0  0  0  0  0  0
  -22.7056  -31.3003   21.4006 H   0  0  0  0  0  0
  -23.3740  -35.9663   23.3320 H   0  0  0  0  0  0
  -24.3622  -36.8913   22.2055 H   0  0  0  0  0  0
  -23.7269  -37.6528   23.6676 H   0  0  0  0  0  0
  -26.0912  -31.5665   20.5975 H   0  0  0  0  0  0
  -26.8288  -30.8522   22.0008 H   0  0  0  0  0  0
  -28.1062  -29.0443   21.2021 H   0  0  0  0  0  0
  -26.0381  -25.9769   18.9482 H   0  0  0  0  0  0
  -24.0110  -27.3008   18.9959 H   0  0  0  0  0  0
  -23.7339  -30.5853   19.3992 H   0  0  0  0  0  0
  -22.7511  -29.2320   19.8598 H   0  0  0  0  0  0
  -25.1308  -36.1934   25.0830 H   0  0  0  0  0  0
  -20.9975  -28.3222   24.1430 H   0  0  0  0  0  0
  -20.5684  -26.2249   23.3614 H   0  0  0  0  0  0
  -21.6621  -26.7419   22.1209 H   0  0  0  0  0  0
  -19.6905  -25.6296   21.1214 H   0  0  0  0  0  0
  -19.6683  -27.3201   20.6784 H   0  0  0  0  0  0
  -17.4189  -26.6644   21.4033 H   0  0  0  0  0  0
  -18.0326  -26.0061   22.9034 H   0  0  0  0  0  0
  -19.7925  -30.7260   24.2253 H   0  0  0  0  0  0
  -17.5003  -31.6246   24.5162 H   0  0  0  0  0  0
  -15.5346  -30.2977   23.7668 H   0  0  0  0  0  0
  -15.8656  -28.0842   22.7047 H   0  0  0  0  0  0
  -24.5869  -30.7155   25.7829 H   0  0  0  0  0  0
  -24.9101  -32.2881   26.5043 H   0  0  0  0  0  0
  -25.8132  -30.8761   27.0158 H   0  0  0  0  0  0
  -26.2924  -29.6760   24.1172 H   0  0  0  0  0  0
  -27.4108  -29.7259   25.4588 H   0  0  0  0  0  0
  -27.8770  -30.4343   23.9337 H   0  0  0  0  0  0
  -27.2604  -33.3546   26.2169 H   0  0  0  0  0  0
  -28.3793  -32.6999   25.0292 H   0  0  0  0  0  0
  -28.0825  -31.8411   26.5303 H   0  0  0  0  0  0
  -28.2591  -38.0103   24.7496 H   0  0  0  0  0  0
  -28.1070  -36.2627   24.6298 H   0  0  0  0  0  0
  -27.2308  -37.1478   25.8867 H   0  0  0  0  0  0
  -20.9372  -29.8730   21.6913 H   0  0  0  0  0  0
  -26.0175  -38.2850   24.1369 H   0  0  0  0  0  0
  -26.0478  -20.9612   18.8734 H   0  0  0  0  0  0
  -27.4454  -22.8425   19.1703 H   0  0  0  0  0  0
  -30.3360  -20.4112   21.2449 H   0  0  0  0  0  0
  -26.3805  -18.3302   17.5675 H   0  0  0  0  0  0
  -25.7749  -16.7701   18.3226 H   0  0  0  0  0  0
  -24.0786  -18.0061   19.6441 H   0  0  0  0  0  0
  -24.5499  -19.5582   18.8047 H   0  0  0  0  0  0
  -29.1991  -18.7792   23.2123 H   0  0  0  0  0  0
  -28.9449  -16.9991   23.1435 H   0  0  0  0  0  0
  -31.3663  -16.8917   22.7638 H   0  0  0  0  0  0
  -31.3587  -18.5393   22.0285 H   0  0  0  0  0  0
  -26.1904  -17.8068   20.6846 H   0  0  0  0  0  0
  -28.1145  -17.2772   21.0187 H   0  0  0  0  0  0
  -30.7475  -17.3690   19.9431 H   0  0  0  0  0  0
  -27.3196  -24.7685   20.0583 H   0  0  0  0  0  0
  -28.6599  -24.9549   18.9440 H   0  0  0  0  0  0
  -28.6505  -24.0793   21.8759 H   0  0  0  0  0  0
  -30.0648  -24.8257   21.2234 H   0  0  0  0  0  0
  -29.0104  -15.3662   21.2760 H   0  0  0  0  0  0
  1 25  1  0  0  0
  1 30  2  0  0  0
  1 86  1  0  0  0
  2  3  1  0  0  0
  2 25  1  0  0  0
  2 88  1  0  0  0
  2 89  1  0  0  0
  3  4  1  0  0  0
  3 90  1  0  0  0
  3 91  1  0  0  0
  4  5  1  0  0  0
  4 92  1  0  0  0
  4 93  1  0  0  0
  5  6  1  0  0  0
  5 26  1  0  0  0
  5 94  1  0  0  0
  6 25  1  0  0  0
  6 95  1  0  0  0
  6 96  1  0  0  0
  7  8  2  0  0  0
  7 26  1  0  0  0
  7 29  1  0  0  0
  8  9  1  0  0  0
  8 22  1  0  0  0
  9 10  1  0  0  0
  9 27  2  0  0  0
 10 11  2  0  0  0
 10 15  1  0  0  0
 11 12  1  0  0  0
 11 97  1  0  0  0
 12 13  2  0  0  0
 12 98  1  0  0  0
 13 14  1  0  0  0
 13 31  1  0  0  0
 14 15  2  0  0  0
 14 99  1  0  0  0
 15100  1  0  0  0
 16 17  2  0  0  0
 16 21  1  0  0  0
 16 31  1  0  0  0
 17 18  1  0  0  0
 17101  1  0  0  0
 18 19  2  0  0  0
 18102  1  0  0  0
 19 20  1  0  0  0
 19 24  1  0  0  0
 20 21  2  0  0  0
 20103  1  0  0  0
 21 23  1  0  0  0
 22 28  1  0  0  0
 22 32  2  0  0  0
 26 27  1  0  0  0
 28104  1  0  0  0
 28105  1  0  0  0
 29106  1  0  0  0
 29107  1  0  0  0
 33 34  1  0  0  0
 33 66  1  0  0  0
 33 70  2  0  0  0
 34 36  1  0  0  0
 34 59  1  0  0  0
 34108  1  0  0  0
 35 44  2  0  0  0
 35 45  1  0  0  0
 35 68  1  0  0  0
 36 56  1  0  0  0
 36109  1  0  0  0
 37 39  1  0  0  0
 37 47  1  0  0  0
 37 66  1  0  0  0
 37110  1  0  0  0
 38 43  2  0  0  0
 38 46  1  0  0  0
 38 47  1  0  0  0
 39 64  1  0  0  0
 39 67  2  0  0  0
 40 52  1  0  0  0
 40 53  2  0  0  0
 40 58  1  0  0  0
 41111  1  0  0  0
 41112  1  0  0  0
 41113  1  0  0  0
 41 48  1  0  0  0
 42 43  1  0  0  0
 42 66  1  0  0  0
 42114  1  0  0  0
 42115  1  0  0  0
 43 44  1  0  0  0
 44116  1  0  0  0
 45 46  2  0  0  0
 45117  1  0  0  0
 46118  1  0  0  0
 47119  1  0  0  0
 47120  1  0  0  0
 48 56  1  0  0  0
 48 65  1  0  0  0
 48121  1  0  0  0
 49 50  1  0  0  0
 49 53  1  0  0  0
 49 64  1  0  0  0
 49122  1  0  0  0
 50 51  1  0  0  0
 50123  1  0  0  0
 50124  1  0  0  0
 51 52  1  0  0  0
 51125  1  0  0  0
 51126  1  0  0  0
 52127  1  0  0  0
 52128  1  0  0  0
 53 54  1  0  0  0
 54 55  2  0  0  0
 54129  1  0  0  0
 55 57  1  0  0  0
 55130  1  0  0  0
 56 69  2  0  0  0
 57 58  2  0  0  0
 57131  1  0  0  0
 58132  1  0  0  0
 59 60  1  0  0  0
 59 61  1  0  0  0
 59 62  1  0  0  0
 60133  1  0  0  0
 60134  1  0  0  0
 60135  1  0  0  0
 61136  1  0  0  0
 61137  1  0  0  0
 61138  1  0  0  0
 62139  1  0  0  0
 62140  1  0  0  0
 62141  1  0  0  0
 63 65  1  0  0  0
 63142  1  0  0  0
 63143  1  0  0  0
 63144  1  0  0  0
 64145  1  0  0  0
 65146  1  0  0  0
 68 84  1  0  0  0
 71 72  2  0  0  0
 71 74  1  0  0  0
 71147  1  0  0  0
 72 76  1  0  0  0
 72148  1  0  0  0
 73 75  1  0  0  0
 73 76  2  0  0  0
 73149  1  0  0  0
 74 75  2  0  0  0
 74 81  1  0  0  0
 75 82  1  0  0  0
 76 87  1  0  0  0
 77 78  1  0  0  0
 77 81  1  0  0  0
 77150  1  0  0  0
 77151  1  0  0  0
 78 81  1  0  0  0
 78152  1  0  0  0
 78153  1  0  0  0
 79 80  1  0  0  0
 79 82  1  0  0  0
 79154  1  0  0  0
 79155  1  0  0  0
 80 83  1  0  0  0
 80156  1  0  0  0
 80157  1  0  0  0
 81158  1  0  0  0
 82 83  1  0  0  0
 82159  1  0  0  0
 83 86  1  0  0  0
 83160  1  0  0  0
 84 85  1  0  0  0
 84161  1  0  0  0
 84162  1  0  0  0
 85 87  1  0  0  0
 85163  1  0  0  0
 85164  1  0  0  0
 86165  1  0  0  0
M  ISO  4   1 100  68 101  84 101  86 100
M  END
> <chiral flag>
0

> <version>
0

> <s_m_source_file>
/data/baiqing/PycharmProjects/Reinvent-master-3.2/result/LINK_invent/BTK/process_docking_weight1_custom_sum_contain_oxygen_bond_distance_aromatic_linkinvent_7_9_3/rearranged_h_0142.sdf

> <i_m_source_file_index>
23

> <r_mmod_Potential_Energy-OPLS-2005>
110.304512023926

> <r_mmod_Stretch_Energy-OPLS-2005>
66.7520294189453

> <r_mmod_Bend_Energy-OPLS-2005>
157.607925415039

> <r_mmod_Torsional_Energy-OPLS-2005>
284.565551757812

> <r_mmod_Improper_Torsional_Energy-OPLS-2005>
4.55371332168579

> <r_mmod_Van_der_Waal_Energy-OPLS-2005>
157.355712890625

> <r_mmod_Electrostatic_Energy-OPLS-2005>
-380.190521240234

> <r_mmod_Solvation_Energy-OPLS-2005>
-209.904647827148

> <b_mmod_Minimization_Converged-OPLS-2005>
0

> <r_mmod_RMS_Derivative-OPLS-2005>
5.75556182861328

$$$$
23
                    3D
 Structure written by MMmdl.
159168  0  0  1  0            999 V2000
  -30.6335  -14.8338   20.4470 C   0  0  0  0  0  0
  -30.4206  -12.5250   19.4749 C   0  0  0  0  0  0
  -29.5005  -12.5026   18.2371 C   0  0  0  0  0  0
  -28.0371  -12.2937   18.6656 C   0  0  0  0  0  0
  -27.6226  -13.2255   19.8338 C   0  0  2  0  0  0
  -28.6721  -13.2622   20.9653 C   0  0  0  0  0  0
  -25.2444  -13.8153   20.5722 C   0  0  0  0  0  0
  -24.1748  -13.0408   20.9249 C   0  0  0  0  0  0
  -24.6347  -11.6886   20.8787 C   0  0  0  0  0  0
  -23.9033  -10.4270   21.0434 C   0  0  0  0  0  0
  -24.3596   -9.4192   21.9200 C   0  0  0  0  0  0
  -23.6290   -8.2224   22.0754 C   0  0  0  0  0  0
  -22.4273   -8.0266   21.3547 C   0  0  0  0  0  0
  -21.9901   -9.0233   20.4647 C   0  0  0  0  0  0
  -22.7215  -10.2118   20.3068 C   0  0  0  0  0  0
  -21.6849   -6.0726   22.5281 C   0  0  0  0  0  0
  -21.4003   -6.5630   23.8213 C   0  0  0  0  0  0
  -21.3659   -5.6785   24.9175 C   0  0  0  0  0  0
  -21.6050   -4.3047   24.7227 C   0  0  0  0  0  0
  -21.8822   -3.8140   23.4347 C   0  0  0  0  0  0
  -21.9192   -4.6957   22.3402 C   0  0  0  0  0  0
  -22.7776  -13.5205   21.1889 C   0  0  0  0  0  0
  -22.1666   -4.2143   21.0981 F   0  0  0  0  0  0
  -21.5635   -3.4531   25.7742 F   0  0  0  0  0  0
  -29.9556  -13.6282   20.3557 N   0  0  0  0  0  0
  -26.2842  -12.9343   20.3267 N   0  0  0  0  0  0
  -25.9270  -11.6499   20.5782 N   0  0  0  0  0  0
  -22.0414  -12.8203   22.0443 N   0  0  0  0  0  0
  -25.4104  -15.1879   20.4120 N   0  0  0  0  0  0
  -31.8465  -14.8261   20.2122 O   0  0  0  0  0  0
  -21.6635   -6.8867   21.4244 O   0  0  0  0  0  0
  -22.3475  -14.5508   20.6724 O   0  0  0  0  0  0
  -24.6346  -31.8516   23.1946 C   0  0  0  0  0  0
  -25.9150  -32.4742   23.8305 C   0  0  1  0  0  0
  -27.2170  -27.2284   20.1480 C   0  0  0  0  0  0
  -25.5934  -33.8544   24.2231 N   0  0  0  0  0  0
  -23.4334  -30.4737   21.5379 C   0  0  2  0  0  0
  -24.8821  -28.9126   20.1108 C   0  0  0  0  0  0
  -22.7513  -29.4590   22.4884 C   0  0  0  0  0  0
  -18.0298  -28.1390   22.8494 C   0  0  0  0  0  0
  -24.1480  -36.7266   23.2629 C   0  0  0  0  0  0
  -25.9813  -30.7574   21.3765 C   0  0  0  0  0  0
  -26.0552  -29.3762   20.7198 C   0  0  0  0  0  0
  -27.2285  -28.5493   20.7205 C   0  0  0  0  0  0
  -26.0235  -26.8392   19.5048 C   0  0  0  0  0  0
  -24.8728  -27.6547   19.4882 C   0  0  0  0  0  0
  -23.6540  -29.8042   20.1556 C   0  0  0  0  0  0
  -25.4106  -36.3055   24.0323 C   0  0  1  0  0  0
  -20.5910  -28.3703   23.1265 C   0  0  2  0  0  0
  -20.6787  -26.9418   22.5413 C   0  0  0  0  0  0
  -19.5755  -26.6394   21.5219 C   0  0  0  0  0  0
  -18.1938  -26.7939   22.1634 C   0  0  0  0  0  0
  -19.1550  -28.8864   23.2882 C   0  0  0  0  0  0
  -18.9471  -30.1467   23.8896 C   0  0  0  0  0  0
  -17.6469  -30.6598   24.0569 C   0  0  0  0  0  0
  -25.9065  -34.9432   23.5078 C   0  0  0  0  0  0
  -16.5361  -29.9095   23.6342 C   0  0  0  0  0  0
  -16.7284  -28.6513   23.0370 C   0  0  0  0  0  0
  -26.4514  -31.6584   25.0704 C   0  0  0  0  0  0
  -25.3729  -31.3758   26.1421 C   0  0  0  0  0  0
  -27.0355  -30.2989   24.6209 C   0  0  0  0  0  0
  -27.6054  -32.4338   25.7484 C   0  0  0  0  0  0
  -27.5597  -37.1757   24.8443 C   0  0  0  0  0  0
  -21.4218  -29.3043   22.3631 N   0  0  0  0  0  0
  -26.4263  -37.3783   23.9451 N   0  0  0  0  0  0
  -24.7023  -31.0460   22.0929 N   0  0  0  0  0  0
  -23.4203  -28.8132   23.2995 O   0  0  0  0  0  0
  -28.2922  -26.3017   20.1927 O   0  0  0  0  0  0
  -26.5644  -34.8921   22.4654 O   0  0  0  0  0  0
  -23.5489  -32.1350   23.7228 O   0  0  0  0  0  0
  -27.0571  -21.7055   20.1549 C   0  0  0  0  0  0
  -30.6098  -18.6582   21.0678 C   0  0  0  0  0  0
  -28.7761  -18.1781   19.6065 C   0  0  0  0  0  0
  -29.0905  -24.4271   21.4564 C   0  0  0  0  0  0
  -30.6159  -17.1412   21.5689 C   0  0  0  0  0  0
  -28.7801  -16.6382   20.0579 C   0  0  0  0  0  0
  -28.8800  -23.4842   20.2901 C   0  0  2  0  0  0
  -29.2401  -19.2842   20.6274 C   0  0  0  0  0  0
  -27.9937  -24.8446   20.5135 C   0  0  2  0  0  0
  -28.4917  -21.9324   20.6440 C   0  0  2  0  0  0
  -29.9955  -16.0684   20.7191 N   0  0  0  0  0  0
  -29.3085  -20.7458   20.0694 N   0  3  0  0  0  0
  -26.9101  -21.3036   18.9811 O   0  5  0  0  0  0
  -26.1068  -21.9168   20.9340 O   0  0  0  0  0  0
  -31.4576  -12.6511   19.1588 H   0  0  0  0  0  0
  -30.3837  -11.5722   20.0050 H   0  0  0  0  0  0
  -29.8055  -11.7100   17.5531 H   0  0  0  0  0  0
  -29.5960  -13.4399   17.6860 H   0  0  0  0  0  0
  -27.9301  -11.2521   18.9710 H   0  0  0  0  0  0
  -27.3680  -12.4311   17.8144 H   0  0  0  0  0  0
  -27.5699  -14.2127   19.3900 H   0  0  0  0  0  0
  -28.7418  -12.2989   21.4725 H   0  0  0  0  0  0
  -28.3881  -13.9949   21.7226 H   0  0  0  0  0  0
  -25.2741   -9.5682   22.4769 H   0  0  0  0  0  0
  -24.0006   -7.4611   22.7464 H   0  0  0  0  0  0
  -21.0834   -8.8745   19.8949 H   0  0  0  0  0  0
  -22.3673  -10.9658   19.6177 H   0  0  0  0  0  0
  -21.1984   -7.6137   23.9715 H   0  0  0  0  0  0
  -21.1482   -6.0512   25.9081 H   0  0  0  0  0  0
  -22.0601   -2.7603   23.2842 H   0  0  0  0  0  0
  -22.4034  -11.9877   22.4853 H   0  0  0  0  0  0
  -21.1032  -13.1234   22.2630 H   0  0  0  0  0  0
  -24.6414  -15.8383   20.5276 H   0  0  0  0  0  0
  -26.2553  -15.6286   20.0760 H   0  0  0  0  0  0
  -26.7204  -32.5383   23.1036 H   0  0  0  0  0  0
  -25.0084  -33.9671   25.0374 H   0  0  0  0  0  0
  -22.7330  -31.2981   21.3884 H   0  0  0  0  0  0
  -23.3778  -35.9561   23.3226 H   0  0  0  0  0  0
  -24.3599  -36.8960   22.2063 H   0  0  0  0  0  0
  -23.7185  -37.6423   23.6698 H   0  0  0  0  0  0
  -26.1239  -31.5163   20.6068 H   0  0  0  0  0  0
  -26.8574  -30.8075   22.0124 H   0  0  0  0  0  0
  -28.1263  -28.8993   21.2108 H   0  0  0  0  0  0
  -25.9658  -25.8717   19.0259 H   0  0  0  0  0  0
  -23.9741  -27.2963   19.0049 H   0  0  0  0  0  0
  -23.7822  -30.5794   19.3991 H   0  0  0  0  0  0
  -22.7721  -29.2385   19.8499 H   0  0  0  0  0  0
  -25.1282  -36.1876   25.0815 H   0  0  0  0  0  0
  -21.0022  -28.3282   24.1377 H   0  0  0  0  0  0
  -20.5691  -26.2308   23.3621 H   0  0  0  0  0  0
  -21.6649  -26.7444   22.1192 H   0  0  0  0  0  0
  -19.6914  -25.6304   21.1254 H   0  0  0  0  0  0
  -19.6695  -27.3203   20.6751 H   0  0  0  0  0  0
  -17.4214  -26.6694   21.4036 H   0  0  0  0  0  0
  -18.0332  -26.0083   22.9031 H   0  0  0  0  0  0
  -19.7944  -30.7286   24.2261 H   0  0  0  0  0  0
  -17.5025  -31.6275   24.5165 H   0  0  0  0  0  0
  -15.5361  -30.2999   23.7660 H   0  0  0  0  0  0
  -15.8689  -28.0828   22.7091 H   0  0  0  0  0  0
  -24.5893  -30.7118   25.7751 H   0  0  0  0  0  0
  -24.8929  -32.2938   26.4819 H   0  0  0  0  0  0
  -25.8035  -30.8954   27.0212 H   0  0  0  0  0  0
  -26.2929  -29.6739   24.1226 H   0  0  0  0  0  0
  -27.4013  -29.7264   25.4744 H   0  0  0  0  0  0
  -27.8828  -30.4256   23.9467 H   0  0  0  0  0  0
  -27.2648  -33.3655   26.2021 H   0  0  0  0  0  0
  -28.3885  -32.6881   25.0326 H   0  0  0  0  0  0
  -28.0692  -31.8487   26.5440 H   0  0  0  0  0  0
  -28.2508  -38.0159   24.7665 H   0  0  0  0  0  0
  -28.1201  -36.2710   24.6039 H   0  0  0  0  0  0
  -27.2352  -37.1118   25.8842 H   0  0  0  0  0  0
  -20.9390  -29.8755   21.6828 H   0  0  0  0  0  0
  -26.0130  -38.2823   24.1573 H   0  0  0  0  0  0
  -31.3117  -18.7355   20.2363 H   0  0  0  0  0  0
  -31.0332  -19.2777   21.8594 H   0  0  0  0  0  0
  -27.7680  -18.4247   19.2702 H   0  0  0  0  0  0
  -29.3990  -18.2567   18.7136 H   0  0  0  0  0  0
  -30.0158  -24.9993   21.4505 H   0  0  0  0  0  0
  -28.7717  -24.1020   22.4452 H   0  0  0  0  0  0
  -30.0948  -17.1034   22.5265 H   0  0  0  0  0  0
  -31.6462  -16.8683   21.8050 H   0  0  0  0  0  0
  -28.5759  -16.0546   19.1625 H   0  0  0  0  0  0
  -27.9467  -16.4728   20.7409 H   0  0  0  0  0  0
  -29.5825  -23.5616   19.4633 H   0  0  0  0  0  0
  -28.5574  -19.2816   21.4783 H   0  0  0  0  0  0
  -26.9814  -24.7192   20.8946 H   0  0  0  0  0  0
  -28.5210  -21.8286   21.7301 H   0  0  0  0  0  0
  -28.8841  -20.6986   19.1515 H   0  0  0  0  0  0
  -30.2682  -21.0217   19.9629 H   0  0  0  0  0  0
  1 25  1  0  0  0
  1 30  2  0  0  0
  1 81  1  0  0  0
  2  3  1  0  0  0
  2 25  1  0  0  0
  2 85  1  0  0  0
  2 86  1  0  0  0
  3  4  1  0  0  0
  3 87  1  0  0  0
  3 88  1  0  0  0
  4  5  1  0  0  0
  4 89  1  0  0  0
  4 90  1  0  0  0
  5  6  1  0  0  0
  5 26  1  0  0  0
  5 91  1  0  0  0
  6 25  1  0  0  0
  6 92  1  0  0  0
  6 93  1  0  0  0
  7  8  2  0  0  0
  7 26  1  0  0  0
  7 29  1  0  0  0
  8  9  1  0  0  0
  8 22  1  0  0  0
  9 10  1  0  0  0
  9 27  2  0  0  0
 10 11  2  0  0  0
 10 15  1  0  0  0
 11 12  1  0  0  0
 11 94  1  0  0  0
 12 13  2  0  0  0
 12 95  1  0  0  0
 13 14  1  0  0  0
 13 31  1  0  0  0
 14 15  2  0  0  0
 14 96  1  0  0  0
 15 97  1  0  0  0
 16 17  2  0  0  0
 16 21  1  0  0  0
 16 31  1  0  0  0
 17 18  1  0  0  0
 17 98  1  0  0  0
 18 19  2  0  0  0
 18 99  1  0  0  0
 19 20  1  0  0  0
 19 24  1  0  0  0
 20 21  2  0  0  0
 20100  1  0  0  0
 21 23  1  0  0  0
 22 28  1  0  0  0
 22 32  2  0  0  0
 26 27  1  0  0  0
 28101  1  0  0  0
 28102  1  0  0  0
 29103  1  0  0  0
 29104  1  0  0  0
 33 34  1  0  0  0
 33 66  1  0  0  0
 33 70  2  0  0  0
 34 36  1  0  0  0
 34 59  1  0  0  0
 34105  1  0  0  0
 35 44  2  0  0  0
 35 45  1  0  0  0
 35 68  1  0  0  0
 36 56  1  0  0  0
 36106  1  0  0  0
 37 39  1  0  0  0
 37 47  1  0  0  0
 37 66  1  0  0  0
 37107  1  0  0  0
 38 43  2  0  0  0
 38 46  1  0  0  0
 38 47  1  0  0  0
 39 64  1  0  0  0
 39 67  2  0  0  0
 40 52  1  0  0  0
 40 53  2  0  0  0
 40 58  1  0  0  0
 41108  1  0  0  0
 41109  1  0  0  0
 41110  1  0  0  0
 41 48  1  0  0  0
 42 43  1  0  0  0
 42 66  1  0  0  0
 42111  1  0  0  0
 42112  1  0  0  0
 43 44  1  0  0  0
 44113  1  0  0  0
 45 46  2  0  0  0
 45114  1  0  0  0
 46115  1  0  0  0
 47116  1  0  0  0
 47117  1  0  0  0
 48 56  1  0  0  0
 48 65  1  0  0  0
 48118  1  0  0  0
 49 50  1  0  0  0
 49 53  1  0  0  0
 49 64  1  0  0  0
 49119  1  0  0  0
 50 51  1  0  0  0
 50120  1  0  0  0
 50121  1  0  0  0
 51 52  1  0  0  0
 51122  1  0  0  0
 51123  1  0  0  0
 52124  1  0  0  0
 52125  1  0  0  0
 53 54  1  0  0  0
 54 55  2  0  0  0
 54126  1  0  0  0
 55 57  1  0  0  0
 55127  1  0  0  0
 56 69  2  0  0  0
 57 58  2  0  0  0
 57128  1  0  0  0
 58129  1  0  0  0
 59 60  1  0  0  0
 59 61  1  0  0  0
 59 62  1  0  0  0
 60130  1  0  0  0
 60131  1  0  0  0
 60132  1  0  0  0
 61133  1  0  0  0
 61134  1  0  0  0
 61135  1  0  0  0
 62136  1  0  0  0
 62137  1  0  0  0
 62138  1  0  0  0
 63 65  1  0  0  0
 63139  1  0  0  0
 63140  1  0  0  0
 63141  1  0  0  0
 64142  1  0  0  0
 65143  1  0  0  0
 68 79  1  0  0  0
 71 80  1  0  0  0
 71 83  1  0  0  0
 71 84  2  0  0  0
 72 75  1  0  0  0
 72 78  1  0  0  0
 72144  1  0  0  0
 72145  1  0  0  0
 73 76  1  0  0  0
 73 78  1  0  0  0
 73146  1  0  0  0
 73147  1  0  0  0
 74 79  1  0  0  0
 74148  1  0  0  0
 74149  1  0  0  0
 74 77  1  0  0  0
 75 81  1  0  0  0
 75150  1  0  0  0
 75151  1  0  0  0
 76 81  1  0  0  0
 76152  1  0  0  0
 76153  1  0  0  0
 77 79  1  0  0  0
 77 80  1  0  0  0
 77154  1  0  0  0
 78 82  1  0  0  0
 78155  1  0  0  0
 79156  1  0  0  0
 80 82  1  0  0  0
 80157  1  0  0  0
 82158  1  0  0  0
 82159  1  0  0  0
M  CHG  2  82   1  83  -1
M  ISO  4   1 100  68 101  79 101  81 100
M  END
> <chiral flag>
0

> <version>
0

> <s_m_source_file>
/data/baiqing/PycharmProjects/Reinvent-master-3.2/result/LINK_invent/BTK/process_docking_weight1_custom_sum_contain_oxygen_bond_distance_aromatic_linkinvent_7_9_3/rearranged_h_0142.sdf

> <i_m_source_file_index>
24

> <r_mmod_Potential_Energy-OPLS-2005>
-56.0792999267578

> <r_mmod_Stretch_Energy-OPLS-2005>
161.51496887207

> <r_mmod_Bend_Energy-OPLS-2005>
235.103073120117

> <r_mmod_Torsional_Energy-OPLS-2005>
374.363800048828

> <r_mmod_Improper_Torsional_Energy-OPLS-2005>
2.13134694099426

> <r_mmod_Van_der_Waal_Energy-OPLS-2005>
120.872520446777

> <r_mmod_Electrostatic_Energy-OPLS-2005>
-668.710876464844

> <r_mmod_Solvation_Energy-OPLS-2005>
-405.768890380859

> <b_mmod_Minimization_Converged-OPLS-2005>
0

> <r_mmod_RMS_Derivative-OPLS-2005>
1.63530039787292

$$$$
24
                    3D
 Structure written by MMmdl.
153162  0  0  1  0            999 V2000
  -30.3681  -15.4885   20.3064 C   0  0  0  0  0  0
  -30.4387  -12.9593   19.5336 C   0  0  0  0  0  0
  -29.5448  -12.6305   18.3059 C   0  0  0  0  0  0
  -28.1129  -12.2988   18.7530 C   0  0  0  0  0  0
  -27.6101  -13.2940   19.8245 C   0  0  2  0  0  0
  -28.6413  -13.5610   20.9489 C   0  0  0  0  0  0
  -25.2402  -13.8279   20.5796 C   0  0  0  0  0  0
  -24.1748  -13.0452   20.9271 C   0  0  0  0  0  0
  -24.6422  -11.6952   20.8754 C   0  0  0  0  0  0
  -23.9097  -10.4306   21.0409 C   0  0  0  0  0  0
  -24.3628   -9.4217   21.9188 C   0  0  0  0  0  0
  -23.6287   -8.2258   22.0751 C   0  0  0  0  0  0
  -22.4274   -8.0303   21.3541 C   0  0  0  0  0  0
  -21.9922   -9.0277   20.4648 C   0  0  0  0  0  0
  -22.7269  -10.2150   20.3065 C   0  0  0  0  0  0
  -21.6860   -6.0747   22.5279 C   0  0  0  0  0  0
  -21.4027   -6.5643   23.8220 C   0  0  0  0  0  0
  -21.3657   -5.6798   24.9166 C   0  0  0  0  0  0
  -21.6040   -4.3058   24.7224 C   0  0  0  0  0  0
  -21.8818   -3.8147   23.4345 C   0  0  0  0  0  0
  -21.9198   -4.6962   22.3406 C   0  0  0  0  0  0
  -22.7765  -13.5212   21.1888 C   0  0  0  0  0  0
  -22.1666   -4.2151   21.0981 F   0  0  0  0  0  0
  -21.5598   -3.4544   25.7729 F   0  0  0  0  0  0
  -29.8438  -14.1338   20.3055 N   0  0  0  0  0  0
  -26.2854  -12.9585   20.3295 N   0  0  0  0  0  0
  -25.9391  -11.6660   20.5735 N   0  0  0  0  0  0
  -22.0403  -12.8224   22.0441 N   0  0  0  0  0  0
  -25.4000  -15.2024   20.4199 N   0  0  0  0  0  0
  -31.5891  -15.4510   20.0721 O   0  0  0  0  0  0
  -21.6652   -6.8896   21.4246 O   0  0  0  0  0  0
  -22.3454  -14.5501   20.6678 O   0  0  0  0  0  0
  -24.6774  -31.8015   23.1533 C   0  0  0  0  0  0
  -25.9374  -32.4463   23.8076 C   0  0  1  0  0  0
  -27.2455  -26.7794   20.1879 C   0  0  0  0  0  0
  -25.5973  -33.8279   24.1974 N   0  0  0  0  0  0
  -23.5000  -30.4057   21.5044 C   0  0  2  0  0  0
  -24.9583  -28.7550   20.1127 C   0  0  0  0  0  0
  -22.7719  -29.4322   22.4686 C   0  0  0  0  0  0
  -18.0327  -28.1404   22.8446 C   0  0  0  0  0  0
  -24.1513  -36.7190   23.2663 C   0  0  0  0  0  0
  -26.0764  -30.5607   21.4031 C   0  0  0  0  0  0
  -26.1435  -29.1331   20.7512 C   0  0  0  0  0  0
  -27.2725  -28.1720   20.7530 C   0  0  0  0  0  0
  -26.0223  -26.5794   19.5049 C   0  0  0  0  0  0
  -24.9300  -27.5020   19.4720 C   0  0  0  0  0  0
  -23.7482  -29.7019   20.1385 C   0  0  0  0  0  0
  -25.4161  -36.2900   24.0282 C   0  0  1  0  0  0
  -20.5956  -28.3757   23.1143 C   0  0  2  0  0  0
  -20.6793  -26.9412   22.5393 C   0  0  0  0  0  0
  -19.5769  -26.6355   21.5203 C   0  0  0  0  0  0
  -18.1964  -26.7925   22.1624 C   0  0  0  0  0  0
  -19.1586  -28.8900   23.2785 C   0  0  0  0  0  0
  -18.9497  -30.1491   23.8821 C   0  0  0  0  0  0
  -17.6481  -30.6581   24.0547 C   0  0  0  0  0  0
  -25.9122  -34.9272   23.4974 C   0  0  0  0  0  0
  -16.5371  -29.9066   23.6327 C   0  0  0  0  0  0
  -16.7306  -28.6490   23.0336 C   0  0  0  0  0  0
  -26.4583  -31.6465   25.0662 C   0  0  0  0  0  0
  -25.3682  -31.3779   26.1307 C   0  0  0  0  0  0
  -27.0499  -30.2804   24.6509 C   0  0  0  0  0  0
  -27.6038  -32.4312   25.7486 C   0  0  0  0  0  0
  -27.5535  -37.1806   24.8499 C   0  0  0  0  0  0
  -21.4356  -29.3029   22.3468 N   0  0  0  0  0  0
  -26.4324  -37.3610   23.9325 N   0  0  0  0  0  0
  -24.7745  -30.9540   22.0744 N   0  0  0  0  0  0
  -23.4194  -28.7902   23.2997 O   0  0  0  0  0  0
  -28.2970  -25.6686   20.2680 O   0  0  0  0  0  0
  -26.5763  -34.8831   22.4593 O   0  0  0  0  0  0
  -23.5803  -32.1055   23.6536 O   0  0  0  0  0  0
  -30.5328  -19.0822   19.2771 C   0  0  0  0  0  0
  -29.7167  -21.5279   19.4383 C   0  0  0  0  0  0
  -30.5922  -20.5015   18.8977 C   0  0  0  0  0  0
  -28.8106  -21.0384   20.3611 C   0  0  0  0  0  0
  -29.6126  -18.4686   20.1991 C   0  0  0  0  0  0
  -27.9587  -22.4245   20.7996 C   0  0  0  0  0  0
  -29.5479  -23.1382   19.1410 C   0  0  1  0  0  0
  -28.5303  -23.9406   20.1731 C   0  0  1  0  0  0
  -31.6425  -20.8874   17.8655 C   0  0  0  0  0  0
  -30.8953  -23.8845   19.0408 C   0  0  0  0  0  0
  -28.7634  -19.5851   20.6993 N   0  0  0  0  0  0
  -29.5865  -16.8001   20.4452 N   0  0  0  0  0  0
  -31.4483  -13.1842   19.1844 H   0  0  0  0  0  0
  -30.5453  -12.0827   20.1721 H   0  0  0  0  0  0
  -29.9605  -11.7998   17.7332 H   0  0  0  0  0  0
  -29.5265  -13.4899   17.6342 H   0  0  0  0  0  0
  -28.1231  -11.2893   19.1677 H   0  0  0  0  0  0
  -27.4377  -12.2813   17.8954 H   0  0  0  0  0  0
  -27.4961  -14.2318   19.2815 H   0  0  0  0  0  0
  -28.8640  -12.6544   21.5109 H   0  0  0  0  0  0
  -28.2444  -14.2828   21.6651 H   0  0  0  0  0  0
  -25.2773   -9.5665   22.4763 H   0  0  0  0  0  0
  -23.9977   -7.4661   22.7487 H   0  0  0  0  0  0
  -21.0825   -8.8808   19.8989 H   0  0  0  0  0  0
  -22.3712  -10.9680   19.6168 H   0  0  0  0  0  0
  -21.2045   -7.6156   23.9715 H   0  0  0  0  0  0
  -21.1463   -6.0528   25.9069 H   0  0  0  0  0  0
  -22.0594   -2.7604   23.2863 H   0  0  0  0  0  0
  -22.4030  -11.9915   22.4893 H   0  0  0  0  0  0
  -21.1014  -13.1235   22.2609 H   0  0  0  0  0  0
  -24.6150  -15.8402   20.5056 H   0  0  0  0  0  0
  -26.2281  -15.6451   20.0438 H   0  0  0  0  0  0
  -26.7436  -32.4957   23.0774 H   0  0  0  0  0  0
  -25.0026  -33.9315   25.0065 H   0  0  0  0  0  0
  -22.8239  -31.2425   21.3193 H   0  0  0  0  0  0
  -23.3679  -35.9633   23.3461 H   0  0  0  0  0  0
  -24.3535  -36.8689   22.2045 H   0  0  0  0  0  0
  -23.7424  -37.6484   23.6642 H   0  0  0  0  0  0
  -26.2691  -31.2881   20.6143 H   0  0  0  0  0  0
  -26.9311  -30.6299   22.0626 H   0  0  0  0  0  0
  -28.1730  -28.4714   21.2686 H   0  0  0  0  0  0
  -25.8797  -25.6288   19.0104 H   0  0  0  0  0  0
  -24.0283  -27.2021   18.9563 H   0  0  0  0  0  0
  -23.9168  -30.4640   19.3770 H   0  0  0  0  0  0
  -22.8537  -29.1644   19.8179 H   0  0  0  0  0  0
  -25.1388  -36.1715   25.0778 H   0  0  0  0  0  0
  -21.0062  -28.3387   24.1256 H   0  0  0  0  0  0
  -20.5654  -26.2356   23.3641 H   0  0  0  0  0  0
  -21.6656  -26.7343   22.1209 H   0  0  0  0  0  0
  -19.6930  -25.6254   21.1261 H   0  0  0  0  0  0
  -19.6727  -27.3125   20.6708 H   0  0  0  0  0  0
  -17.4213  -26.6599   21.4067 H   0  0  0  0  0  0
  -18.0411  -26.0104   22.9060 H   0  0  0  0  0  0
  -19.7968  -30.7339   24.2152 H   0  0  0  0  0  0
  -17.5023  -31.6252   24.5169 H   0  0  0  0  0  0
  -15.5370  -30.2948   23.7707 H   0  0  0  0  0  0
  -15.8697  -28.0812   22.7070 H   0  0  0  0  0  0
  -24.5823  -30.7178   25.7618 H   0  0  0  0  0  0
  -24.8940  -32.3012   26.4638 H   0  0  0  0  0  0
  -25.7882  -30.8979   27.0150 H   0  0  0  0  0  0
  -26.3184  -29.6423   24.1528 H   0  0  0  0  0  0
  -27.3973  -29.7245   25.5230 H   0  0  0  0  0  0
  -27.9154  -30.3933   23.9976 H   0  0  0  0  0  0
  -27.2555  -33.3646   26.1919 H   0  0  0  0  0  0
  -28.3931  -32.6798   25.0381 H   0  0  0  0  0  0
  -28.0606  -31.8532   26.5528 H   0  0  0  0  0  0
  -28.2695  -37.9936   24.7228 H   0  0  0  0  0  0
  -28.0876  -36.2454   24.6759 H   0  0  0  0  0  0
  -27.2186  -37.1956   25.8883 H   0  0  0  0  0  0
  -20.9626  -29.8717   21.6577 H   0  0  0  0  0  0
  -26.0172  -38.2714   24.1100 H   0  0  0  0  0  0
  -31.2355  -18.4140   18.7978 H   0  0  0  0  0  0
  -27.9267  -22.4644   21.8885 H   0  0  0  0  0  0
  -26.9265  -22.2791   20.4787 H   0  0  0  0  0  0
  -29.0876  -23.1854   18.1528 H   0  0  0  0  0  0
  -29.2378  -24.0557   20.9942 H   0  0  0  0  0  0
  -32.0379  -20.0178   17.3389 H   0  0  0  0  0  0
  -32.4881  -21.3872   18.3422 H   0  0  0  0  0  0
  -31.2293  -21.5538   17.1077 H   0  0  0  0  0  0
  -31.4629  -23.8124   19.9681 H   0  0  0  0  0  0
  -30.7267  -24.9430   18.8397 H   0  0  0  0  0  0
  -31.5291  -23.5282   18.2307 H   0  0  0  0  0  0
  -28.6783  -16.5398   20.7947 H   0  0  0  0  0  0
  1 25  1  0  0  0
  1 30  2  0  0  0
  1 82  1  0  0  0
  2  3  1  0  0  0
  2 25  1  0  0  0
  2 83  1  0  0  0
  2 84  1  0  0  0
  3  4  1  0  0  0
  3 85  1  0  0  0
  3 86  1  0  0  0
  4  5  1  0  0  0
  4 87  1  0  0  0
  4 88  1  0  0  0
  5  6  1  0  0  0
  5 26  1  0  0  0
  5 89  1  0  0  0
  6 25  1  0  0  0
  6 90  1  0  0  0
  6 91  1  0  0  0
  7  8  2  0  0  0
  7 26  1  0  0  0
  7 29  1  0  0  0
  8  9  1  0  0  0
  8 22  1  0  0  0
  9 10  1  0  0  0
  9 27  2  0  0  0
 10 11  2  0  0  0
 10 15  1  0  0  0
 11 12  1  0  0  0
 11 92  1  0  0  0
 12 13  2  0  0  0
 12 93  1  0  0  0
 13 14  1  0  0  0
 13 31  1  0  0  0
 14 15  2  0  0  0
 14 94  1  0  0  0
 15 95  1  0  0  0
 16 17  2  0  0  0
 16 21  1  0  0  0
 16 31  1  0  0  0
 17 18  1  0  0  0
 17 96  1  0  0  0
 18 19  2  0  0  0
 18 97  1  0  0  0
 19 20  1  0  0  0
 19 24  1  0  0  0
 20 21  2  0  0  0
 20 98  1  0  0  0
 21 23  1  0  0  0
 22 28  1  0  0  0
 22 32  2  0  0  0
 26 27  1  0  0  0
 28 99  1  0  0  0
 28100  1  0  0  0
 29101  1  0  0  0
 29102  1  0  0  0
 33 34  1  0  0  0
 33 66  1  0  0  0
 33 70  2  0  0  0
 34 36  1  0  0  0
 34 59  1  0  0  0
 34103  1  0  0  0
 35 44  2  0  0  0
 35 45  1  0  0  0
 35 68  1  0  0  0
 36 56  1  0  0  0
 36104  1  0  0  0
 37 39  1  0  0  0
 37 47  1  0  0  0
 37 66  1  0  0  0
 37105  1  0  0  0
 38 43  2  0  0  0
 38 46  1  0  0  0
 38 47  1  0  0  0
 39 64  1  0  0  0
 39 67  2  0  0  0
 40 52  1  0  0  0
 40 53  2  0  0  0
 40 58  1  0  0  0
 41106  1  0  0  0
 41107  1  0  0  0
 41108  1  0  0  0
 41 48  1  0  0  0
 42 43  1  0  0  0
 42 66  1  0  0  0
 42109  1  0  0  0
 42110  1  0  0  0
 43 44  1  0  0  0
 44111  1  0  0  0
 45 46  2  0  0  0
 45112  1  0  0  0
 46113  1  0  0  0
 47114  1  0  0  0
 47115  1  0  0  0
 48 56  1  0  0  0
 48 65  1  0  0  0
 48116  1  0  0  0
 49 50  1  0  0  0
 49 53  1  0  0  0
 49 64  1  0  0  0
 49117  1  0  0  0
 50 51  1  0  0  0
 50118  1  0  0  0
 50119  1  0  0  0
 51 52  1  0  0  0
 51120  1  0  0  0
 51121  1  0  0  0
 52122  1  0  0  0
 52123  1  0  0  0
 53 54  1  0  0  0
 54 55  2  0  0  0
 54124  1  0  0  0
 55 57  1  0  0  0
 55125  1  0  0  0
 56 69  2  0  0  0
 57 58  2  0  0  0
 57126  1  0  0  0
 58127  1  0  0  0
 59 60  1  0  0  0
 59 61  1  0  0  0
 59 62  1  0  0  0
 60128  1  0  0  0
 60129  1  0  0  0
 60130  1  0  0  0
 61131  1  0  0  0
 61132  1  0  0  0
 61133  1  0  0  0
 62134  1  0  0  0
 62135  1  0  0  0
 62136  1  0  0  0
 63 65  1  0  0  0
 63137  1  0  0  0
 63138  1  0  0  0
 63139  1  0  0  0
 64140  1  0  0  0
 65141  1  0  0  0
 68 78  1  0  0  0
 71 73  2  0  0  0
 71 75  1  0  0  0
 71142  1  0  0  0
 72 73  1  0  0  0
 72 74  2  0  0  0
 72 77  1  0  0  0
 73 79  1  0  0  0
 74 76  1  0  0  0
 74 81  1  0  0  0
 75 81  2  0  0  0
 75 82  1  0  0  0
 76 78  1  0  0  0
 76143  1  0  0  0
 76144  1  0  0  0
 77 78  1  0  0  0
 77 80  1  0  0  0
 77145  1  0  0  0
 78146  1  0  0  0
 79147  1  0  0  0
 79148  1  0  0  0
 79149  1  0  0  0
 80150  1  0  0  0
 80151  1  0  0  0
 80152  1  0  0  0
 82153  1  0  0  0
M  ISO  4   1 100  68 101  78 101  82 100
M  END
> <chiral flag>
0

> <version>
0

> <s_m_source_file>
/data/baiqing/PycharmProjects/Reinvent-master-3.2/result/LINK_invent/BTK/process_docking_weight1_custom_sum_contain_oxygen_bond_distance_aromatic_linkinvent_7_9_3/rearranged_h_0142.sdf

> <i_m_source_file_index>
25

> <r_mmod_Potential_Energy-OPLS-2005>
1759.13403320312

> <r_mmod_Stretch_Energy-OPLS-2005>
765.474975585938

> <r_mmod_Bend_Energy-OPLS-2005>
682.835693359375

> <r_mmod_Torsional_Energy-OPLS-2005>
218.879241943359

> <r_mmod_Improper_Torsional_Energy-OPLS-2005>
2.79852795600891

> <r_mmod_Van_der_Waal_Energy-OPLS-2005>
121.047958374023

> <r_mmod_Electrostatic_Energy-OPLS-2005>
-499.780120849609

> <r_mmod_Solvation_Energy-OPLS-2005>
-228.629272460938

> <b_mmod_Minimization_Converged-OPLS-2005>
0

> <r_mmod_RMS_Derivative-OPLS-2005>
4.13540983200073

$$$$
25
                    3D
 Structure written by MMmdl.
160169  0  0  1  0            999 V2000
  -30.5581  -14.8665   20.4035 C   0  0  0  0  0  0
  -30.4306  -12.5243   19.5023 C   0  0  0  0  0  0
  -29.5152  -12.5137   18.2567 C   0  0  0  0  0  0
  -28.0451  -12.3168   18.6709 C   0  0  0  0  0  0
  -27.6308  -13.2415   19.8457 C   0  0  2  0  0  0
  -28.6704  -13.2398   20.9871 C   0  0  0  0  0  0
  -25.2454  -13.8218   20.5685 C   0  0  0  0  0  0
  -24.1779  -13.0446   20.9209 C   0  0  0  0  0  0
  -24.6389  -11.6922   20.8762 C   0  0  0  0  0  0
  -23.9083  -10.4295   21.0422 C   0  0  0  0  0  0
  -24.3629   -9.4207   21.9201 C   0  0  0  0  0  0
  -23.6300   -8.2240   22.0756 C   0  0  0  0  0  0
  -22.4286   -8.0287   21.3534 C   0  0  0  0  0  0
  -21.9920   -9.0268   20.4645 C   0  0  0  0  0  0
  -22.7254  -10.2145   20.3070 C   0  0  0  0  0  0
  -21.6850   -6.0740   22.5278 C   0  0  0  0  0  0
  -21.4016   -6.5639   23.8212 C   0  0  0  0  0  0
  -21.3661   -5.6796   24.9176 C   0  0  0  0  0  0
  -21.6048   -4.3056   24.7239 C   0  0  0  0  0  0
  -21.8819   -3.8148   23.4358 C   0  0  0  0  0  0
  -21.9190   -4.6966   22.3411 C   0  0  0  0  0  0
  -22.7803  -13.5218   21.1885 C   0  0  0  0  0  0
  -22.1656   -4.2144   21.0994 F   0  0  0  0  0  0
  -21.5629   -3.4543   25.7752 F   0  0  0  0  0  0
  -29.9566  -13.6179   20.3928 N   0  0  0  0  0  0
  -26.2877  -12.9438   20.3268 N   0  0  0  0  0  0
  -25.9313  -11.6567   20.5762 N   0  0  0  0  0  0
  -22.0458  -12.8206   22.0449 N   0  0  0  0  0  0
  -25.4156  -15.1944   20.4092 N   0  0  0  0  0  0
  -31.7621  -14.9220   20.1346 O   0  0  0  0  0  0
  -21.6640   -6.8884   21.4239 O   0  0  0  0  0  0
  -22.3485  -14.5531   20.6742 O   0  0  0  0  0  0
  -24.6365  -31.8467   23.1913 C   0  0  0  0  0  0
  -25.9173  -32.4698   23.8285 C   0  0  1  0  0  0
  -27.2210  -27.1793   20.1554 C   0  0  0  0  0  0
  -25.5945  -33.8508   24.2190 N   0  0  0  0  0  0
  -23.4377  -30.4646   21.5354 C   0  0  2  0  0  0
  -24.8866  -28.8908   20.1182 C   0  0  0  0  0  0
  -22.7527  -29.4554   22.4889 C   0  0  0  0  0  0
  -18.0288  -28.1370   22.8467 C   0  0  0  0  0  0
  -24.1495  -36.7262   23.2648 C   0  0  0  0  0  0
  -25.9892  -30.7340   21.3838 C   0  0  0  0  0  0
  -26.0601  -29.3469   20.7311 C   0  0  0  0  0  0
  -27.2295  -28.5080   20.7276 C   0  0  0  0  0  0
  -26.0239  -26.8074   19.5126 C   0  0  0  0  0  0
  -24.8779  -27.6320   19.4946 C   0  0  0  0  0  0
  -23.6598  -29.7870   20.1562 C   0  0  0  0  0  0
  -25.4124  -36.3025   24.0310 C   0  0  1  0  0  0
  -20.5897  -28.3697   23.1247 C   0  0  2  0  0  0
  -20.6763  -26.9402   22.5410 C   0  0  0  0  0  0
  -19.5752  -26.6359   21.5201 C   0  0  0  0  0  0
  -18.1931  -26.7901   22.1612 C   0  0  0  0  0  0
  -19.1545  -28.8850   23.2843 C   0  0  0  0  0  0
  -18.9466  -30.1449   23.8863 C   0  0  0  0  0  0
  -17.6466  -30.6574   24.0549 C   0  0  0  0  0  0
  -25.9073  -34.9409   23.5052 C   0  0  0  0  0  0
  -16.5355  -29.9066   23.6333 C   0  0  0  0  0  0
  -16.7271  -28.6483   23.0348 C   0  0  0  0  0  0
  -26.4507  -31.6564   25.0729 C   0  0  0  0  0  0
  -25.3711  -31.3774   26.1442 C   0  0  0  0  0  0
  -27.0371  -30.2948   24.6328 C   0  0  0  0  0  0
  -27.6019  -32.4339   25.7523 C   0  0  0  0  0  0
  -27.5568  -37.1787   24.8455 C   0  0  0  0  0  0
  -21.4228  -29.3034   22.3636 N   0  0  0  0  0  0
  -26.4279  -37.3735   23.9402 N   0  0  0  0  0  0
  -24.7068  -31.0367   22.0914 N   0  0  0  0  0  0
  -23.4196  -28.8110   23.3028 O   0  0  0  0  0  0
  -28.3345  -26.2852   20.1309 O   0  0  0  0  0  0
  -26.5659  -34.8902   22.4634 O   0  0  0  0  0  0
  -23.5504  -32.1322   23.7176 O   0  0  0  0  0  0
  -29.4090  -18.7574   20.3547 C   0  0  0  0  0  0
  -30.9486  -17.5481   18.9422 C   0  0  0  0  0  0
  -29.7505  -20.0374   19.6856 C   0  0  0  0  0  0
  -30.0340  -17.4532   20.0032 C   0  0  0  0  0  0
  -30.7328  -19.8643   18.6705 C   0  0  0  0  0  0
  -27.7421  -22.1038   19.9924 C   0  0  0  0  0  0
  -30.0335  -22.6228   20.7323 C   0  0  0  0  0  0
  -27.5115  -23.6761   19.6536 C   0  0  0  0  0  0
  -29.7894  -24.1792   20.4299 C   0  0  0  0  0  0
  -29.2253  -21.6033   19.8531 C   0  0  2  0  0  0
  -28.3246  -24.7768   20.4677 C   0  0  1  0  0  0
  -32.0003  -20.7536   16.8066 C   0  0  0  0  0  0
  -31.2785  -18.6835   18.3154 N   0  0  0  0  0  0
  -29.7880  -16.0497   20.5399 N   0  0  0  0  0  0
  -31.1879  -20.9601   17.9625 O   0  0  0  0  0  0
  -31.4703  -12.6615   19.2010 H   0  0  0  0  0  0
  -30.3969  -11.5644   20.0210 H   0  0  0  0  0  0
  -29.8196  -11.7256   17.5677 H   0  0  0  0  0  0
  -29.6210  -13.4537   17.7135 H   0  0  0  0  0  0
  -27.9276  -11.2748   18.9662 H   0  0  0  0  0  0
  -27.3833  -12.4641   17.8159 H   0  0  0  0  0  0
  -27.6087  -14.2501   19.4320 H   0  0  0  0  0  0
  -28.7274  -12.2614   21.4686 H   0  0  0  0  0  0
  -28.3897  -13.9503   21.7660 H   0  0  0  0  0  0
  -25.2768   -9.5687   22.4785 H   0  0  0  0  0  0
  -24.0002   -7.4636   22.7480 H   0  0  0  0  0  0
  -21.0836   -8.8810   19.8950 H   0  0  0  0  0  0
  -22.3717  -10.9702   19.6188 H   0  0  0  0  0  0
  -21.2007   -7.6147   23.9718 H   0  0  0  0  0  0
  -21.1473   -6.0523   25.9075 H   0  0  0  0  0  0
  -22.0592   -2.7610   23.2866 H   0  0  0  0  0  0
  -22.4056  -11.9865   22.4856 H   0  0  0  0  0  0
  -21.1092  -13.1236   22.2681 H   0  0  0  0  0  0
  -24.6480  -15.8488   20.5232 H   0  0  0  0  0  0
  -26.2629  -15.6335   20.0748 H   0  0  0  0  0  0
  -26.7250  -32.5306   23.1031 H   0  0  0  0  0  0
  -25.0049  -33.9615   25.0305 H   0  0  0  0  0  0
  -22.7385  -31.2882   21.3819 H   0  0  0  0  0  0
  -23.3737  -35.9610   23.3291 H   0  0  0  0  0  0
  -24.3567  -36.8915   22.2062 H   0  0  0  0  0  0
  -23.7273  -37.6467   23.6695 H   0  0  0  0  0  0
  -26.1413  -31.4910   20.6128 H   0  0  0  0  0  0
  -26.8602  -30.7811   22.0260 H   0  0  0  0  0  0
  -28.1337  -28.8635   21.2013 H   0  0  0  0  0  0
  -25.9690  -25.8582   19.0056 H   0  0  0  0  0  0
  -23.9843  -27.2811   18.9973 H   0  0  0  0  0  0
  -23.7879  -30.5577   19.3949 H   0  0  0  0  0  0
  -22.7773  -29.2197   19.8522 H   0  0  0  0  0  0
  -25.1311  -36.1842   25.0796 H   0  0  0  0  0  0
  -20.9969  -28.3268   24.1375 H   0  0  0  0  0  0
  -20.5611  -26.2310   23.3622 H   0  0  0  0  0  0
  -21.6634  -26.7376   22.1246 H   0  0  0  0  0  0
  -19.6916  -25.6262   21.1244 H   0  0  0  0  0  0
  -19.6691  -27.3154   20.6722 H   0  0  0  0  0  0
  -17.4193  -26.6627   21.4024 H   0  0  0  0  0  0
  -18.0354  -26.0048   22.9020 H   0  0  0  0  0  0
  -19.7951  -30.7268   24.2210 H   0  0  0  0  0  0
  -17.5027  -31.6250   24.5153 H   0  0  0  0  0  0
  -15.5353  -30.2958   23.7676 H   0  0  0  0  0  0
  -15.8672  -28.0790   22.7083 H   0  0  0  0  0  0
  -24.5875  -30.7119   25.7795 H   0  0  0  0  0  0
  -24.8925  -32.2980   26.4801 H   0  0  0  0  0  0
  -25.8014  -30.9006   27.0262 H   0  0  0  0  0  0
  -26.3009  -29.6683   24.1283 H   0  0  0  0  0  0
  -27.3903  -29.7224   25.4918 H   0  0  0  0  0  0
  -27.8942  -30.4142   23.9696 H   0  0  0  0  0  0
  -27.2566  -33.3631   26.2066 H   0  0  0  0  0  0
  -28.3865  -32.6919   25.0399 H   0  0  0  0  0  0
  -28.0662  -31.8511   26.5492 H   0  0  0  0  0  0
  -28.2568  -38.0097   24.7479 H   0  0  0  0  0  0
  -28.1078  -36.2616   24.6293 H   0  0  0  0  0  0
  -27.2283  -37.1451   25.8860 H   0  0  0  0  0  0
  -20.9426  -29.8753   21.6825 H   0  0  0  0  0  0
  -26.0136  -38.2799   24.1395 H   0  0  0  0  0  0
  -28.6619  -18.7746   21.1350 H   0  0  0  0  0  0
  -31.4254  -16.6781   18.5194 H   0  0  0  0  0  0
  -27.3757  -21.8773   20.9935 H   0  0  0  0  0  0
  -27.1165  -21.5282   19.3075 H   0  0  0  0  0  0
  -29.8454  -22.4210   21.7867 H   0  0  0  0  0  0
  -31.0964  -22.4287   20.5860 H   0  0  0  0  0  0
  -26.4444  -23.8673   19.7615 H   0  0  0  0  0  0
  -27.7290  -23.8321   18.5968 H   0  0  0  0  0  0
  -30.4077  -24.7618   21.1149 H   0  0  0  0  0  0
  -30.2008  -24.3806   19.4395 H   0  0  0  0  0  0
  -29.3873  -21.9840   18.8478 H   0  0  0  0  0  0
  -27.9805  -24.7188   21.5017 H   0  0  0  0  0  0
  -32.2259  -21.7122   16.3395 H   0  0  0  0  0  0
  -31.4806  -20.1424   16.0649 H   0  0  0  0  0  0
  -32.9506  -20.2793   17.0593 H   0  0  0  0  0  0
  -28.8695  -15.8965   20.9291 H   0  0  0  0  0  0
  1 25  1  0  0  0
  1 30  2  0  0  0
  1 84  1  0  0  0
  2  3  1  0  0  0
  2 25  1  0  0  0
  2 86  1  0  0  0
  2 87  1  0  0  0
  3  4  1  0  0  0
  3 88  1  0  0  0
  3 89  1  0  0  0
  4  5  1  0  0  0
  4 90  1  0  0  0
  4 91  1  0  0  0
  5  6  1  0  0  0
  5 26  1  0  0  0
  5 92  1  0  0  0
  6 25  1  0  0  0
  6 93  1  0  0  0
  6 94  1  0  0  0
  7  8  2  0  0  0
  7 26  1  0  0  0
  7 29  1  0  0  0
  8  9  1  0  0  0
  8 22  1  0  0  0
  9 10  1  0  0  0
  9 27  2  0  0  0
 10 11  2  0  0  0
 10 15  1  0  0  0
 11 12  1  0  0  0
 11 95  1  0  0  0
 12 13  2  0  0  0
 12 96  1  0  0  0
 13 14  1  0  0  0
 13 31  1  0  0  0
 14 15  2  0  0  0
 14 97  1  0  0  0
 15 98  1  0  0  0
 16 17  2  0  0  0
 16 21  1  0  0  0
 16 31  1  0  0  0
 17 18  1  0  0  0
 17 99  1  0  0  0
 18 19  2  0  0  0
 18100  1  0  0  0
 19 20  1  0  0  0
 19 24  1  0  0  0
 20 21  2  0  0  0
 20101  1  0  0  0
 21 23  1  0  0  0
 22 28  1  0  0  0
 22 32  2  0  0  0
 26 27  1  0  0  0
 28102  1  0  0  0
 28103  1  0  0  0
 29104  1  0  0  0
 29105  1  0  0  0
 33 34  1  0  0  0
 33 66  1  0  0  0
 33 70  2  0  0  0
 34 36  1  0  0  0
 34 59  1  0  0  0
 34106  1  0  0  0
 35 44  2  0  0  0
 35 45  1  0  0  0
 35 68  1  0  0  0
 36 56  1  0  0  0
 36107  1  0  0  0
 37 39  1  0  0  0
 37 47  1  0  0  0
 37 66  1  0  0  0
 37108  1  0  0  0
 38 43  2  0  0  0
 38 46  1  0  0  0
 38 47  1  0  0  0
 39 64  1  0  0  0
 39 67  2  0  0  0
 40 52  1  0  0  0
 40 53  2  0  0  0
 40 58  1  0  0  0
 41109  1  0  0  0
 41110  1  0  0  0
 41111  1  0  0  0
 41 48  1  0  0  0
 42 43  1  0  0  0
 42 66  1  0  0  0
 42112  1  0  0  0
 42113  1  0  0  0
 43 44  1  0  0  0
 44114  1  0  0  0
 45 46  2  0  0  0
 45115  1  0  0  0
 46116  1  0  0  0
 47117  1  0  0  0
 47118  1  0  0  0
 48 56  1  0  0  0
 48 65  1  0  0  0
 48119  1  0  0  0
 49 50  1  0  0  0
 49 53  1  0  0  0
 49 64  1  0  0  0
 49120  1  0  0  0
 50 51  1  0  0  0
 50121  1  0  0  0
 50122  1  0  0  0
 51 52  1  0  0  0
 51123  1  0  0  0
 51124  1  0  0  0
 52125  1  0  0  0
 52126  1  0  0  0
 53 54  1  0  0  0
 54 55  2  0  0  0
 54127  1  0  0  0
 55 57  1  0  0  0
 55128  1  0  0  0
 56 69  2  0  0  0
 57 58  2  0  0  0
 57129  1  0  0  0
 58130  1  0  0  0
 59 60  1  0  0  0
 59 61  1  0  0  0
 59 62  1  0  0  0
 60131  1  0  0  0
 60132  1  0  0  0
 60133  1  0  0  0
 61134  1  0  0  0
 61135  1  0  0  0
 61136  1  0  0  0
 62137  1  0  0  0
 62138  1  0  0  0
 62139  1  0  0  0
 63 65  1  0  0  0
 63140  1  0  0  0
 63141  1  0  0  0
 63142  1  0  0  0
 64143  1  0  0  0
 65144  1  0  0  0
 68 81  1  0  0  0
 71 73  2  0  0  0
 71 74  1  0  0  0
 71145  1  0  0  0
 72 74  2  0  0  0
 72 83  1  0  0  0
 72146  1  0  0  0
 73 75  1  0  0  0
 73 80  1  0  0  0
 74 84  1  0  0  0
 75 83  2  0  0  0
 75 85  1  0  0  0
 76 78  1  0  0  0
 76 80  1  0  0  0
 76147  1  0  0  0
 76148  1  0  0  0
 77 79  1  0  0  0
 77 80  1  0  0  0
 77149  1  0  0  0
 77150  1  0  0  0
 78 81  1  0  0  0
 78151  1  0  0  0
 78152  1  0  0  0
 79 81  1  0  0  0
 79153  1  0  0  0
 79154  1  0  0  0
 80155  1  0  0  0
 81156  1  0  0  0
 82 85  1  0  0  0
 82157  1  0  0  0
 82158  1  0  0  0
 82159  1  0  0  0
 84160  1  0  0  0
M  ISO  4   1 100  68 101  81 101  84 100
M  END
> <chiral flag>
0

> <version>
0

> <s_m_source_file>
/data/baiqing/PycharmProjects/Reinvent-master-3.2/result/LINK_invent/BTK/process_docking_weight1_custom_sum_contain_oxygen_bond_distance_aromatic_linkinvent_7_9_3/rearranged_h_0142.sdf

> <i_m_source_file_index>
26

> <r_mmod_Potential_Energy-OPLS-2005>
209.312637329102

> <r_mmod_Stretch_Energy-OPLS-2005>
201.655258178711

> <r_mmod_Bend_Energy-OPLS-2005>
276.065216064453

> <r_mmod_Torsional_Energy-OPLS-2005>
242.783309936523

> <r_mmod_Improper_Torsional_Energy-OPLS-2005>
4.25452184677124

> <r_mmod_Van_der_Waal_Energy-OPLS-2005>
155.069152832031

> <r_mmod_Electrostatic_Energy-OPLS-2005>
-597.151794433594

> <r_mmod_Solvation_Energy-OPLS-2005>
-212.072723388672

> <b_mmod_Minimization_Converged-OPLS-2005>
0

> <r_mmod_RMS_Derivative-OPLS-2005>
2.60552024841309

$$$$
26
                    3D
 Structure written by MMmdl.
161170  0  0  1  0            999 V2000
  -30.5765  -15.0507   20.4052 C   0  0  0  0  0  0
  -30.4201  -12.6714   19.4843 C   0  0  0  0  0  0
  -29.5057  -12.5286   18.2501 C   0  0  0  0  0  0
  -28.0496  -12.2981   18.6882 C   0  0  0  0  0  0
  -27.6103  -13.2509   19.8286 C   0  0  2  0  0  0
  -28.6638  -13.3890   20.9470 C   0  0  0  0  0  0
  -25.2455  -13.8203   20.5831 C   0  0  0  0  0  0
  -24.1766  -13.0424   20.9249 C   0  0  0  0  0  0
  -24.6394  -11.6914   20.8822 C   0  0  0  0  0  0
  -23.9112  -10.4281   21.0470 C   0  0  0  0  0  0
  -24.3716   -9.4142   21.9167 C   0  0  0  0  0  0
  -23.6384   -8.2173   22.0672 C   0  0  0  0  0  0
  -22.4309   -8.0276   21.3531 C   0  0  0  0  0  0
  -21.9929   -9.0301   20.4691 C   0  0  0  0  0  0
  -22.7281  -10.2163   20.3122 C   0  0  0  0  0  0
  -21.6886   -6.0751   22.5279 C   0  0  0  0  0  0
  -21.4078   -6.5662   23.8215 C   0  0  0  0  0  0
  -21.3697   -5.6817   24.9180 C   0  0  0  0  0  0
  -21.6043   -4.3073   24.7224 C   0  0  0  0  0  0
  -21.8839   -3.8163   23.4348 C   0  0  0  0  0  0
  -21.9200   -4.6979   22.3409 C   0  0  0  0  0  0
  -22.7773  -13.5205   21.1833 C   0  0  0  0  0  0
  -22.1645   -4.2158   21.0980 F   0  0  0  0  0  0
  -21.5604   -3.4563   25.7731 F   0  0  0  0  0  0
  -29.9101  -13.8187   20.3020 N   0  0  0  0  0  0
  -26.2838  -12.9420   20.3316 N   0  0  0  0  0  0
  -25.9308  -11.6545   20.5780 N   0  0  0  0  0  0
  -22.0361  -12.8180   22.0307 N   0  0  0  0  0  0
  -25.4204  -15.1946   20.4379 N   0  0  0  0  0  0
  -31.7924  -14.9971   20.1943 O   0  0  0  0  0  0
  -21.6662   -6.8882   21.4223 O   0  0  0  0  0  0
  -22.3518  -14.5521   20.6657 O   0  0  0  0  0  0
  -24.6508  -31.8382   23.1829 C   0  0  0  0  0  0
  -25.9234  -32.4670   23.8250 C   0  0  1  0  0  0
  -27.1983  -27.0612   20.1587 C   0  0  0  0  0  0
  -25.5949  -33.8483   24.2162 N   0  0  0  0  0  0
  -23.4582  -30.4570   21.5333 C   0  0  2  0  0  0
  -24.9022  -28.8728   20.1133 C   0  0  0  0  0  0
  -22.7607  -29.4524   22.4859 C   0  0  0  0  0  0
  -18.0306  -28.1408   22.8468 C   0  0  0  0  0  0
  -24.1494  -36.7244   23.2644 C   0  0  0  0  0  0
  -26.0197  -30.6875   21.3935 C   0  0  0  0  0  0
  -26.0845  -29.2911   20.7362 C   0  0  0  0  0  0
  -27.2343  -28.4029   20.7398 C   0  0  0  0  0  0
  -25.9921  -26.7694   19.4856 C   0  0  0  0  0  0
  -24.8719  -27.6278   19.4719 C   0  0  0  0  0  0
  -23.6856  -29.7858   20.1537 C   0  0  0  0  0  0
  -25.4130  -36.3029   24.0317 C   0  0  1  0  0  0
  -20.5925  -28.3733   23.1226 C   0  0  2  0  0  0
  -20.6793  -26.9431   22.5405 C   0  0  0  0  0  0
  -19.5773  -26.6385   21.5217 C   0  0  0  0  0  0
  -18.1948  -26.7937   22.1620 C   0  0  0  0  0  0
  -19.1563  -28.8891   23.2833 C   0  0  0  0  0  0
  -18.9473  -30.1476   23.8872 C   0  0  0  0  0  0
  -17.6472  -30.6593   24.0557 C   0  0  0  0  0  0
  -25.9091  -34.9400   23.5064 C   0  0  0  0  0  0
  -16.5365  -29.9084   23.6332 C   0  0  0  0  0  0
  -16.7291  -28.6505   23.0353 C   0  0  0  0  0  0
  -26.4526  -31.6571   25.0725 C   0  0  0  0  0  0
  -25.3676  -31.3778   26.1395 C   0  0  0  0  0  0
  -27.0412  -30.2966   24.6356 C   0  0  0  0  0  0
  -27.6076  -32.4326   25.7483 C   0  0  0  0  0  0
  -27.5584  -37.1781   24.8469 C   0  0  0  0  0  0
  -21.4291  -29.3039   22.3586 N   0  0  0  0  0  0
  -26.4296  -37.3740   23.9407 N   0  0  0  0  0  0
  -24.7307  -31.0163   22.0911 N   0  0  0  0  0  0
  -23.4212  -28.8070   23.3036 O   0  0  0  0  0  0
  -28.2266  -26.0283   20.1931 O   0  0  0  0  0  0
  -26.5694  -34.8899   22.4651 O   0  0  0  0  0  0
  -23.5603  -32.1303   23.6987 O   0  0  0  0  0  0
  -28.6109  -16.5788   18.6362 C   0  0  0  0  0  0
  -27.9851  -19.2479   18.6290 C   0  0  0  0  0  0
  -27.7049  -17.0352   17.6634 C   0  0  0  0  0  0
  -27.3765  -18.4038   17.6853 C   0  0  0  0  0  0
  -29.1861  -17.3365   19.6902 C   0  0  0  0  0  0
  -28.8627  -18.8478   19.6721 C   0  0  0  0  0  0
  -26.1819  -16.1009   15.5662 C   0  0  0  0  0  0
  -25.7732  -15.4548   16.8655 C   0  0  0  0  0  0
  -27.1820  -15.9739   16.7036 C   0  0  0  0  0  0
  -26.3931  -19.0393   16.7168 C   0  0  0  0  0  0
  -28.8621  -23.0637   20.1005 C   0  0  0  0  0  0
  -27.9089  -24.4782   20.3601 C   0  0  0  0  0  0
  -28.4873  -21.4391   20.5429 C   0  0  0  0  0  0
  -29.9815  -16.3632   20.5825 N   0  0  0  0  0  0
  -29.2727  -20.0509   20.4238 O   0  0  0  0  0  0
  -31.4517  -12.8179   19.1593 H   0  0  0  0  0  0
  -30.4238  -11.7516   20.0714 H   0  0  0  0  0  0
  -29.8434  -11.7045   17.6212 H   0  0  0  0  0  0
  -29.5670  -13.4301   17.6401 H   0  0  0  0  0  0
  -27.9723  -11.2644   19.0265 H   0  0  0  0  0  0
  -27.3698  -12.3928   17.8400 H   0  0  0  0  0  0
  -27.5117  -14.2207   19.3549 H   0  0  0  0  0  0
  -28.7968  -12.4554   21.4948 H   0  0  0  0  0  0
  -28.3493  -14.1414   21.6718 H   0  0  0  0  0  0
  -25.2914   -9.5550   22.4676 H   0  0  0  0  0  0
  -24.0168   -7.4494   22.7276 H   0  0  0  0  0  0
  -21.0814   -8.8902   19.9058 H   0  0  0  0  0  0
  -22.3739  -10.9739   19.6278 H   0  0  0  0  0  0
  -21.2128   -7.6174   23.9726 H   0  0  0  0  0  0
  -21.1507   -6.0533   25.9084 H   0  0  0  0  0  0
  -22.0596   -2.7625   23.2834 H   0  0  0  0  0  0
  -22.3875  -11.9740   22.4584 H   0  0  0  0  0  0
  -21.0961  -13.1228   22.2446 H   0  0  0  0  0  0
  -24.6644  -15.8559   20.5622 H   0  0  0  0  0  0
  -26.2799  -15.6296   20.1262 H   0  0  0  0  0  0
  -26.7304  -32.5248   23.0975 H   0  0  0  0  0  0
  -25.0030  -33.9591   25.0266 H   0  0  0  0  0  0
  -22.7663  -31.2864   21.3753 H   0  0  0  0  0  0
  -23.3779  -35.9556   23.3295 H   0  0  0  0  0  0
  -24.3595  -36.8890   22.2068 H   0  0  0  0  0  0
  -23.7227  -37.6422   23.6689 H   0  0  0  0  0  0
  -26.1886  -31.4354   20.6180 H   0  0  0  0  0  0
  -26.8864  -30.7378   22.0409 H   0  0  0  0  0  0
  -28.1323  -28.7181   21.2503 H   0  0  0  0  0  0
  -25.8792  -25.8341   18.9613 H   0  0  0  0  0  0
  -23.9726  -27.3100   18.9606 H   0  0  0  0  0  0
  -23.8278  -30.5591   19.3987 H   0  0  0  0  0  0
  -22.7975  -29.2316   19.8415 H   0  0  0  0  0  0
  -25.1323  -36.1867   25.0811 H   0  0  0  0  0  0
  -21.0011  -28.3329   24.1350 H   0  0  0  0  0  0
  -20.5686  -26.2355   23.3635 H   0  0  0  0  0  0
  -21.6663  -26.7426   22.1211 H   0  0  0  0  0  0
  -19.6938  -25.6289   21.1265 H   0  0  0  0  0  0
  -19.6715  -27.3180   20.6739 H   0  0  0  0  0  0
  -17.4219  -26.6668   21.4023 H   0  0  0  0  0  0
  -18.0338  -26.0097   22.9038 H   0  0  0  0  0  0
  -19.7949  -30.7290   24.2247 H   0  0  0  0  0  0
  -17.5022  -31.6275   24.5156 H   0  0  0  0  0  0
  -15.5360  -30.2979   23.7671 H   0  0  0  0  0  0
  -15.8688  -28.0812   22.7088 H   0  0  0  0  0  0
  -24.5875  -30.7114   25.7684 H   0  0  0  0  0  0
  -24.8834  -32.2961   26.4721 H   0  0  0  0  0  0
  -25.7911  -30.9001   27.0242 H   0  0  0  0  0  0
  -26.3062  -29.6676   24.1321 H   0  0  0  0  0  0
  -27.3975  -29.7276   25.4958 H   0  0  0  0  0  0
  -27.8986  -30.4215   23.9741 H   0  0  0  0  0  0
  -27.2715  -33.3665   26.1989 H   0  0  0  0  0  0
  -28.3894  -32.6813   25.0297 H   0  0  0  0  0  0
  -28.0739  -31.8497   26.5438 H   0  0  0  0  0  0
  -28.2592  -38.0082   24.7517 H   0  0  0  0  0  0
  -28.1082  -36.2619   24.6290 H   0  0  0  0  0  0
  -27.2313  -37.1420   25.8870 H   0  0  0  0  0  0
  -20.9520  -29.8733   21.6738 H   0  0  0  0  0  0
  -26.0176  -38.2812   24.1390 H   0  0  0  0  0  0
  -28.8656  -15.5399   18.5410 H   0  0  0  0  0  0
  -27.7541  -20.2899   18.4989 H   0  0  0  0  0  0
  -25.6574  -17.0165   15.3236 H   0  0  0  0  0  0
  -26.3287  -15.4364   14.7157 H   0  0  0  0  0  0
  -25.6084  -14.3793   16.8504 H   0  0  0  0  0  0
  -25.0956  -16.0222   17.4999 H   0  0  0  0  0  0
  -27.9508  -15.2181   16.5444 H   0  0  0  0  0  0
  -26.2990  -20.1124   16.8807 H   0  0  0  0  0  0
  -25.3968  -18.6168   16.8509 H   0  0  0  0  0  0
  -26.7147  -18.9059   15.6842 H   0  0  0  0  0  0
  -29.8300  -23.2738   20.5538 H   0  0  0  0  0  0
  -29.0599  -23.0427   19.0284 H   0  0  0  0  0  0
  -27.5868  -24.4090   21.3990 H   0  0  0  0  0  0
  -26.9996  -24.2784   19.7975 H   0  0  0  0  0  0
  -27.4489  -21.2770   20.2620 H   0  0  0  0  0  0
  -28.3957  -21.5117   21.6267 H   0  0  0  0  0  0
  -30.5907  -16.9033   21.1821 H   0  0  0  0  0  0
  1 25  1  0  0  0
  1 30  2  0  0  0
  1 84  1  0  0  0
  2  3  1  0  0  0
  2 25  1  0  0  0
  2 86  1  0  0  0
  2 87  1  0  0  0
  3  4  1  0  0  0
  3 88  1  0  0  0
  3 89  1  0  0  0
  4  5  1  0  0  0
  4 90  1  0  0  0
  4 91  1  0  0  0
  5  6  1  0  0  0
  5 26  1  0  0  0
  5 92  1  0  0  0
  6 25  1  0  0  0
  6 93  1  0  0  0
  6 94  1  0  0  0
  7  8  2  0  0  0
  7 26  1  0  0  0
  7 29  1  0  0  0
  8  9  1  0  0  0
  8 22  1  0  0  0
  9 10  1  0  0  0
  9 27  2  0  0  0
 10 11  2  0  0  0
 10 15  1  0  0  0
 11 12  1  0  0  0
 11 95  1  0  0  0
 12 13  2  0  0  0
 12 96  1  0  0  0
 13 14  1  0  0  0
 13 31  1  0  0  0
 14 15  2  0  0  0
 14 97  1  0  0  0
 15 98  1  0  0  0
 16 17  2  0  0  0
 16 21  1  0  0  0
 16 31  1  0  0  0
 17 18  1  0  0  0
 17 99  1  0  0  0
 18 19  2  0  0  0
 18100  1  0  0  0
 19 20  1  0  0  0
 19 24  1  0  0  0
 20 21  2  0  0  0
 20101  1  0  0  0
 21 23  1  0  0  0
 22 28  1  0  0  0
 22 32  2  0  0  0
 26 27  1  0  0  0
 28102  1  0  0  0
 28103  1  0  0  0
 29104  1  0  0  0
 29105  1  0  0  0
 33 34  1  0  0  0
 33 66  1  0  0  0
 33 70  2  0  0  0
 34 36  1  0  0  0
 34 59  1  0  0  0
 34106  1  0  0  0
 35 44  2  0  0  0
 35 45  1  0  0  0
 35 68  1  0  0  0
 36 56  1  0  0  0
 36107  1  0  0  0
 37 39  1  0  0  0
 37 47  1  0  0  0
 37 66  1  0  0  0
 37108  1  0  0  0
 38 43  2  0  0  0
 38 46  1  0  0  0
 38 47  1  0  0  0
 39 64  1  0  0  0
 39 67  2  0  0  0
 40 52  1  0  0  0
 40 53  2  0  0  0
 40 58  1  0  0  0
 41109  1  0  0  0
 41110  1  0  0  0
 41111  1  0  0  0
 41 48  1  0  0  0
 42 43  1  0  0  0
 42 66  1  0  0  0
 42112  1  0  0  0
 42113  1  0  0  0
 43 44  1  0  0  0
 44114  1  0  0  0
 45 46  2  0  0  0
 45115  1  0  0  0
 46116  1  0  0  0
 47117  1  0  0  0
 47118  1  0  0  0
 48 56  1  0  0  0
 48 65  1  0  0  0
 48119  1  0  0  0
 49 50  1  0  0  0
 49 53  1  0  0  0
 49 64  1  0  0  0
 49120  1  0  0  0
 50 51  1  0  0  0
 50121  1  0  0  0
 50122  1  0  0  0
 51 52  1  0  0  0
 51123  1  0  0  0
 51124  1  0  0  0
 52125  1  0  0  0
 52126  1  0  0  0
 53 54  1  0  0  0
 54 55  2  0  0  0
 54127  1  0  0  0
 55 57  1  0  0  0
 55128  1  0  0  0
 56 69  2  0  0  0
 57 58  2  0  0  0
 57129  1  0  0  0
 58130  1  0  0  0
 59 60  1  0  0  0
 59 61  1  0  0  0
 59 62  1  0  0  0
 60131  1  0  0  0
 60132  1  0  0  0
 60133  1  0  0  0
 61134  1  0  0  0
 61135  1  0  0  0
 61136  1  0  0  0
 62137  1  0  0  0
 62138  1  0  0  0
 62139  1  0  0  0
 63 65  1  0  0  0
 63140  1  0  0  0
 63141  1  0  0  0
 63142  1  0  0  0
 64143  1  0  0  0
 65144  1  0  0  0
 68 82  1  0  0  0
 71 73  2  0  0  0
 71 75  1  0  0  0
 71145  1  0  0  0
 72 74  2  0  0  0
 72 76  1  0  0  0
 72146  1  0  0  0
 73 74  1  0  0  0
 73 79  1  0  0  0
 74 80  1  0  0  0
 75 76  2  0  0  0
 75 84  1  0  0  0
 76 85  1  0  0  0
 77 78  1  0  0  0
 77 79  1  0  0  0
 77147  1  0  0  0
 77148  1  0  0  0
 78 79  1  0  0  0
 78149  1  0  0  0
 78150  1  0  0  0
 79151  1  0  0  0
 80152  1  0  0  0
 80153  1  0  0  0
 80154  1  0  0  0
 81 82  1  0  0  0
 81 83  1  0  0  0
 81155  1  0  0  0
 81156  1  0  0  0
 82157  1  0  0  0
 82158  1  0  0  0
 83 85  1  0  0  0
 83159  1  0  0  0
 83160  1  0  0  0
 84161  1  0  0  0
M  ISO  4   1 100  68 101  82 101  84 100
M  END
> <chiral flag>
0

> <version>
0

> <s_m_source_file>
/data/baiqing/PycharmProjects/Reinvent-master-3.2/result/LINK_invent/BTK/process_docking_weight1_custom_sum_contain_oxygen_bond_distance_aromatic_linkinvent_7_9_3/rearranged_h_0142.sdf

> <i_m_source_file_index>
27

> <r_mmod_Potential_Energy-OPLS-2005>
902.110290527344

> <r_mmod_Stretch_Energy-OPLS-2005>
377.815734863281

> <r_mmod_Bend_Energy-OPLS-2005>
427.429840087891

> <r_mmod_Torsional_Energy-OPLS-2005>
294.165588378906

> <r_mmod_Improper_Torsional_Energy-OPLS-2005>
5.80765342712402

> <r_mmod_Van_der_Waal_Energy-OPLS-2005>
142.656631469727

> <r_mmod_Electrostatic_Energy-OPLS-2005>
-416.427429199219

> <r_mmod_Solvation_Energy-OPLS-2005>
-200.039733886719

> <b_mmod_Minimization_Converged-OPLS-2005>
0

> <r_mmod_RMS_Derivative-OPLS-2005>
3.18478536605835

$$$$
27
                    3D
 Structure written by MMmdl.
173182  0  0  1  0            999 V2000
  -30.7162  -14.5940   20.5149 C   0  0  0  0  0  0
  -30.4235  -12.3709   19.4446 C   0  0  0  0  0  0
  -29.4982  -12.4735   18.2156 C   0  0  0  0  0  0
  -28.0284  -12.2722   18.6348 C   0  0  0  0  0  0
  -27.6369  -13.1678   19.8332 C   0  0  2  0  0  0
  -28.6921  -13.0998   20.9721 C   0  0  0  0  0  0
  -25.2513  -13.8023   20.5599 C   0  0  0  0  0  0
  -24.1768  -13.0363   20.9197 C   0  0  0  0  0  0
  -24.6293  -11.6825   20.8775 C   0  0  0  0  0  0
  -23.8972  -10.4238   21.0445 C   0  0  0  0  0  0
  -24.3545   -9.4159   21.9210 C   0  0  0  0  0  0
  -23.6226   -8.2201   22.0769 C   0  0  0  0  0  0
  -22.4216   -8.0235   21.3551 C   0  0  0  0  0  0
  -21.9840   -9.0210   20.4665 C   0  0  0  0  0  0
  -22.7163  -10.2086   20.3075 C   0  0  0  0  0  0
  -21.6833   -6.0683   22.5270 C   0  0  0  0  0  0
  -21.4019   -6.5606   23.8200 C   0  0  0  0  0  0
  -21.3658   -5.6770   24.9170 C   0  0  0  0  0  0
  -21.6041   -4.3032   24.7230 C   0  0  0  0  0  0
  -21.8826   -3.8109   23.4361 C   0  0  0  0  0  0
  -21.9189   -4.6912   22.3406 C   0  0  0  0  0  0
  -22.7810  -13.5223   21.1848 C   0  0  0  0  0  0
  -22.1657   -4.2094   21.0984 F   0  0  0  0  0  0
  -21.5623   -3.4526   25.7751 F   0  0  0  0  0  0
  -30.0109  -13.4194   20.4001 N   0  0  0  0  0  0
  -26.2876  -12.9103   20.3191 N   0  0  0  0  0  0
  -25.9188  -11.6328   20.5753 N   0  0  0  0  0  0
  -22.0420  -12.8283   22.0428 N   0  0  0  0  0  0
  -25.4173  -15.1734   20.3915 N   0  0  0  0  0  0
  -31.8885  -14.6419   20.1456 O   0  0  0  0  0  0
  -21.6606   -6.8819   21.4230 O   0  0  0  0  0  0
  -22.3528  -14.5519   20.6651 O   0  0  0  0  0  0
  -24.6158  -31.8665   23.2086 C   0  0  0  0  0  0
  -25.9041  -32.4819   23.8399 C   0  0  1  0  0  0
  -27.2432  -27.4161   20.1197 C   0  0  0  0  0  0
  -25.5889  -33.8618   24.2326 N   0  0  0  0  0  0
  -23.4079  -30.4866   21.5485 C   0  0  2  0  0  0
  -24.8610  -28.9440   20.1213 C   0  0  0  0  0  0
  -22.7426  -29.4649   22.4990 C   0  0  0  0  0  0
  -18.0273  -28.1402   22.8492 C   0  0  0  0  0  0
  -24.1482  -36.7326   23.2643 C   0  0  0  0  0  0
  -25.9370  -30.8239   21.3682 C   0  0  0  0  0  0
  -26.0175  -29.4533   20.7258 C   0  0  0  0  0  0
  -27.2131  -28.6936   20.7277 C   0  0  0  0  0  0
  -26.0749  -26.9236   19.5051 C   0  0  0  0  0  0
  -24.8835  -27.6773   19.5091 C   0  0  0  0  0  0
  -23.6220  -29.8126   20.1658 C   0  0  0  0  0  0
  -25.4107  -36.3116   24.0333 C   0  0  1  0  0  0
  -20.5864  -28.3689   23.1314 C   0  0  2  0  0  0
  -20.6765  -26.9420   22.5428 C   0  0  0  0  0  0
  -19.5744  -26.6400   21.5224 C   0  0  0  0  0  0
  -18.1920  -26.7948   22.1626 C   0  0  0  0  0  0
  -19.1523  -28.8866   23.2899 C   0  0  0  0  0  0
  -18.9452  -30.1467   23.8906 C   0  0  0  0  0  0
  -17.6452  -30.6599   24.0585 C   0  0  0  0  0  0
  -25.9039  -34.9475   23.5137 C   0  0  0  0  0  0
  -16.5345  -29.9106   23.6338 C   0  0  0  0  0  0
  -16.7262  -28.6534   23.0347 C   0  0  0  0  0  0
  -26.4480  -31.6605   25.0730 C   0  0  0  0  0  0
  -25.3754  -31.3695   26.1487 C   0  0  0  0  0  0
  -27.0336  -30.3046   24.6133 C   0  0  0  0  0  0
  -27.6064  -32.4335   25.7469 C   0  0  0  0  0  0
  -27.5581  -37.1811   24.8459 C   0  0  0  0  0  0
  -21.4145  -29.3047   22.3711 N   0  0  0  0  0  0
  -26.4291  -37.3803   23.9409 N   0  0  0  0  0  0
  -24.6715  -31.0745   22.1010 N   0  0  0  0  0  0
  -23.4173  -28.8207   23.3056 O   0  0  0  0  0  0
  -28.3908  -26.6510   20.0675 O   0  0  0  0  0  0
  -26.5609  -34.8925   22.4697 O   0  0  0  0  0  0
  -23.5332  -32.1427   23.7456 O   0  0  0  0  0  0
  -29.8434  -20.7963   20.9957 C   0  0  0  0  0  0
  -29.3065  -19.4963   22.9827 C   0  0  0  0  0  0
  -29.1171  -21.9214   23.0323 C   0  0  0  0  0  0
  -29.7366  -19.5295   21.6388 C   0  0  0  0  0  0
  -29.5263  -22.0020   21.6841 C   0  0  0  0  0  0
  -28.9962  -20.6724   23.6876 C   0  0  0  0  0  0
  -28.6491  -17.6721   20.3503 C   0  0  0  0  0  0
  -28.8428  -16.1640   20.2244 C   0  0  0  0  0  0
  -29.9631  -18.2090   20.8676 C   0  0  2  0  0  0
  -30.5452  -16.9672   21.6255 C   0  0  2  0  0  0
  -32.5411  -16.0014   23.0032 C   0  0  0  0  0  0
  -33.0346  -17.4903   20.9763 C   0  0  0  0  0  0
  -28.1552  -21.6624   25.7077 C   0  0  0  0  0  0
  -29.6820  -23.3943   21.0361 C   0  0  0  0  0  0
  -28.4179  -24.3193   21.0700 C   0  0  0  0  0  0
  -28.6740  -25.8538   21.2315 C   0  0  0  0  0  0
  -32.0273  -17.1265   22.0844 C   0  0  0  0  0  0
  -30.0589  -15.7301   20.9289 N   0  0  0  0  0  0
  -28.5827  -20.5117   24.9913 O   0  0  0  0  0  0
  -31.4662  -12.4616   19.1359 H   0  0  0  0  0  0
  -30.3413  -11.3872   19.9094 H   0  0  0  0  0  0
  -29.7812  -11.7295   17.4701 H   0  0  0  0  0  0
  -29.6201  -13.4470   17.7387 H   0  0  0  0  0  0
  -27.8960  -11.2213   18.8941 H   0  0  0  0  0  0
  -27.3669  -12.4624   17.7883 H   0  0  0  0  0  0
  -27.6023  -14.1484   19.3799 H   0  0  0  0  0  0
  -28.7121  -12.0995   21.4073 H   0  0  0  0  0  0
  -28.4381  -13.7687   21.7949 H   0  0  0  0  0  0
  -25.2683   -9.5627   22.4790 H   0  0  0  0  0  0
  -23.9919   -7.4591   22.7490 H   0  0  0  0  0  0
  -21.0768   -8.8726   19.8978 H   0  0  0  0  0  0
  -22.3626  -10.9619   19.6183 H   0  0  0  0  0  0
  -21.2028   -7.6119   23.9689 H   0  0  0  0  0  0
  -21.1474   -6.0504   25.9072 H   0  0  0  0  0  0
  -22.0609   -2.7567   23.2874 H   0  0  0  0  0  0
  -22.3987  -11.9944   22.4849 H   0  0  0  0  0  0
  -21.1052  -13.1361   22.2626 H   0  0  0  0  0  0
  -24.6459  -15.8228   20.4960 H   0  0  0  0  0  0
  -26.2543  -15.6104   20.0305 H   0  0  0  0  0  0
  -26.7115  -32.5544   23.1167 H   0  0  0  0  0  0
  -25.0007  -33.9788   25.0449 H   0  0  0  0  0  0
  -22.6980  -31.3034   21.4039 H   0  0  0  0  0  0
  -23.3728  -35.9676   23.3316 H   0  0  0  0  0  0
  -24.3565  -36.8943   22.2057 H   0  0  0  0  0  0
  -23.7248  -37.6534   23.6659 H   0  0  0  0  0  0
  -26.0497  -31.5823   20.5925 H   0  0  0  0  0  0
  -26.8241  -30.8841   21.9864 H   0  0  0  0  0  0
  -28.1077  -29.0828   21.1941 H   0  0  0  0  0  0
  -26.0886  -25.9519   19.0313 H   0  0  0  0  0  0
  -23.9947  -27.2787   19.0403 H   0  0  0  0  0  0
  -23.7345  -30.5847   19.4047 H   0  0  0  0  0  0
  -22.7462  -29.2337   19.8674 H   0  0  0  0  0  0
  -25.1277  -36.1984   25.0824 H   0  0  0  0  0  0
  -20.9961  -28.3275   24.1431 H   0  0  0  0  0  0
  -20.5691  -26.2294   23.3623 H   0  0  0  0  0  0
  -21.6638  -26.7486   22.1207 H   0  0  0  0  0  0
  -19.6913  -25.6316   21.1248 H   0  0  0  0  0  0
  -19.6682  -27.3221   20.6761 H   0  0  0  0  0  0
  -17.4195  -26.6701   21.4022 H   0  0  0  0  0  0
  -18.0306  -26.0087   22.9016 H   0  0  0  0  0  0
  -19.7929  -30.7292   24.2262 H   0  0  0  0  0  0
  -17.5012  -31.6272   24.5204 H   0  0  0  0  0  0
  -15.5350  -30.3019   23.7666 H   0  0  0  0  0  0
  -15.8656  -28.0875   22.7040 H   0  0  0  0  0  0
  -24.5909  -30.7070   25.7810 H   0  0  0  0  0  0
  -24.8966  -32.2843   26.4990 H   0  0  0  0  0  0
  -25.8116  -30.8821   27.0217 H   0  0  0  0  0  0
  -26.2894  -29.6760   24.1227 H   0  0  0  0  0  0
  -27.4143  -29.7331   25.4610 H   0  0  0  0  0  0
  -27.8708  -30.4358   23.9272 H   0  0  0  0  0  0
  -27.2696  -33.3623   26.2084 H   0  0  0  0  0  0
  -28.3840  -32.6920   25.0269 H   0  0  0  0  0  0
  -28.0780  -31.8452   26.5351 H   0  0  0  0  0  0
  -28.2606  -38.0103   24.7517 H   0  0  0  0  0  0
  -28.1070  -36.2636   24.6270 H   0  0  0  0  0  0
  -27.2301  -37.1463   25.8864 H   0  0  0  0  0  0
  -20.9318  -29.8740   21.6900 H   0  0  0  0  0  0
  -26.0175  -38.2881   24.1406 H   0  0  0  0  0  0
  -30.1625  -20.8431   19.9633 H   0  0  0  0  0  0
  -29.1787  -18.5576   23.4976 H   0  0  0  0  0  0
  -28.9017  -22.8410   23.5554 H   0  0  0  0  0  0
  -27.8573  -17.8580   21.0789 H   0  0  0  0  0  0
  -28.3407  -18.1449   19.4165 H   0  0  0  0  0  0
  -28.8904  -15.8885   19.1679 H   0  0  0  0  0  0
  -27.9825  -15.7083   20.7007 H   0  0  0  0  0  0
  -30.5928  -18.4158   20.0017 H   0  0  0  0  0  0
  -29.9935  -16.8721   22.5578 H   0  0  0  0  0  0
  -31.8224  -15.7745   23.7912 H   0  0  0  0  0  0
  -33.4686  -16.3023   23.4932 H   0  0  0  0  0  0
  -32.7583  -15.0777   22.4716 H   0  0  0  0  0  0
  -32.7889  -18.4465   20.5142 H   0  0  0  0  0  0
  -33.0900  -16.7516   20.1820 H   0  0  0  0  0  0
  -34.0397  -17.5961   21.3864 H   0  0  0  0  0  0
  -28.9654  -22.3817   25.8342 H   0  0  0  0  0  0
  -27.8243  -21.3611   26.7022 H   0  0  0  0  0  0
  -27.3121  -22.1476   25.2143 H   0  0  0  0  0  0
  -30.0319  -23.2927   20.0077 H   0  0  0  0  0  0
  -30.4991  -23.8793   21.5710 H   0  0  0  0  0  0
  -27.8103  -24.0361   21.9283 H   0  0  0  0  0  0
  -27.7807  -24.1193   20.2087 H   0  0  0  0  0  0
  -29.7114  -26.0338   21.5112 H   0  0  0  0  0  0
  -28.0902  -26.2173   22.0798 H   0  0  0  0  0  0
  -32.0090  -18.0073   22.7287 H   0  0  0  0  0  0
  1 25  1  0  0  0
  1 30  2  0  0  0
  1 88  1  0  0  0
  2  3  1  0  0  0
  2 25  1  0  0  0
  2 90  1  0  0  0
  2 91  1  0  0  0
  3  4  1  0  0  0
  3 92  1  0  0  0
  3 93  1  0  0  0
  4  5  1  0  0  0
  4 94  1  0  0  0
  4 95  1  0  0  0
  5  6  1  0  0  0
  5 26  1  0  0  0
  5 96  1  0  0  0
  6 25  1  0  0  0
  6 97  1  0  0  0
  6 98  1  0  0  0
  7  8  2  0  0  0
  7 26  1  0  0  0
  7 29  1  0  0  0
  8  9  1  0  0  0
  8 22  1  0  0  0
  9 10  1  0  0  0
  9 27  2  0  0  0
 10 11  2  0  0  0
 10 15  1  0  0  0
 11 12  1  0  0  0
 11 99  1  0  0  0
 12 13  2  0  0  0
 12100  1  0  0  0
 13 14  1  0  0  0
 13 31  1  0  0  0
 14 15  2  0  0  0
 14101  1  0  0  0
 15102  1  0  0  0
 16 17  2  0  0  0
 16 21  1  0  0  0
 16 31  1  0  0  0
 17 18  1  0  0  0
 17103  1  0  0  0
 18 19  2  0  0  0
 18104  1  0  0  0
 19 20  1  0  0  0
 19 24  1  0  0  0
 20 21  2  0  0  0
 20105  1  0  0  0
 21 23  1  0  0  0
 22 28  1  0  0  0
 22 32  2  0  0  0
 26 27  1  0  0  0
 28106  1  0  0  0
 28107  1  0  0  0
 29108  1  0  0  0
 29109  1  0  0  0
 33 34  1  0  0  0
 33 66  1  0  0  0
 33 70  2  0  0  0
 34 36  1  0  0  0
 34 59  1  0  0  0
 34110  1  0  0  0
 35 44  2  0  0  0
 35 45  1  0  0  0
 35 68  1  0  0  0
 36 56  1  0  0  0
 36111  1  0  0  0
 37 39  1  0  0  0
 37 47  1  0  0  0
 37 66  1  0  0  0
 37112  1  0  0  0
 38 43  2  0  0  0
 38 46  1  0  0  0
 38 47  1  0  0  0
 39 64  1  0  0  0
 39 67  2  0  0  0
 40 52  1  0  0  0
 40 53  2  0  0  0
 40 58  1  0  0  0
 41113  1  0  0  0
 41114  1  0  0  0
 41115  1  0  0  0
 41 48  1  0  0  0
 42 43  1  0  0  0
 42 66  1  0  0  0
 42116  1  0  0  0
 42117  1  0  0  0
 43 44  1  0  0  0
 44118  1  0  0  0
 45 46  2  0  0  0
 45119  1  0  0  0
 46120  1  0  0  0
 47121  1  0  0  0
 47122  1  0  0  0
 48 56  1  0  0  0
 48 65  1  0  0  0
 48123  1  0  0  0
 49 50  1  0  0  0
 49 53  1  0  0  0
 49 64  1  0  0  0
 49124  1  0  0  0
 50 51  1  0  0  0
 50125  1  0  0  0
 50126  1  0  0  0
 51 52  1  0  0  0
 51127  1  0  0  0
 51128  1  0  0  0
 52129  1  0  0  0
 52130  1  0  0  0
 53 54  1  0  0  0
 54 55  2  0  0  0
 54131  1  0  0  0
 55 57  1  0  0  0
 55132  1  0  0  0
 56 69  2  0  0  0
 57 58  2  0  0  0
 57133  1  0  0  0
 58134  1  0  0  0
 59 60  1  0  0  0
 59 61  1  0  0  0
 59 62  1  0  0  0
 60135  1  0  0  0
 60136  1  0  0  0
 60137  1  0  0  0
 61138  1  0  0  0
 61139  1  0  0  0
 61140  1  0  0  0
 62141  1  0  0  0
 62142  1  0  0  0
 62143  1  0  0  0
 63 65  1  0  0  0
 63144  1  0  0  0
 63145  1  0  0  0
 63146  1  0  0  0
 64147  1  0  0  0
 65148  1  0  0  0
 68 86  1  0  0  0
 71 74  2  0  0  0
 71 75  1  0  0  0
 71149  1  0  0  0
 72 74  1  0  0  0
 72 76  2  0  0  0
 72150  1  0  0  0
 73 75  2  0  0  0
 73 76  1  0  0  0
 73151  1  0  0  0
 74 79  1  0  0  0
 75 84  1  0  0  0
 76 89  1  0  0  0
 77 78  1  0  0  0
 77 79  1  0  0  0
 77152  1  0  0  0
 77153  1  0  0  0
 78 88  1  0  0  0
 78154  1  0  0  0
 78155  1  0  0  0
 79 80  1  0  0  0
 79156  1  0  0  0
 80 87  1  0  0  0
 80 88  1  0  0  0
 80157  1  0  0  0
 81158  1  0  0  0
 81159  1  0  0  0
 81160  1  0  0  0
 81 87  1  0  0  0
 82 87  1  0  0  0
 82161  1  0  0  0
 82162  1  0  0  0
 82163  1  0  0  0
 83 89  1  0  0  0
 83164  1  0  0  0
 83165  1  0  0  0
 83166  1  0  0  0
 84 85  1  0  0  0
 84167  1  0  0  0
 84168  1  0  0  0
 85 86  1  0  0  0
 85169  1  0  0  0
 85170  1  0  0  0
 86171  1  0  0  0
 86172  1  0  0  0
 87173  1  0  0  0
M  ISO  4   1 100  68 101  86 101  88 100
M  END
> <chiral flag>
0

> <version>
0

> <s_m_source_file>
/data/baiqing/PycharmProjects/Reinvent-master-3.2/result/LINK_invent/BTK/process_docking_weight1_custom_sum_contain_oxygen_bond_distance_aromatic_linkinvent_7_9_3/rearranged_h_0142.sdf

> <i_m_source_file_index>
28

> <r_mmod_Potential_Energy-OPLS-2005>
307.754943847656

> <r_mmod_Stretch_Energy-OPLS-2005>
54.6657104492188

> <r_mmod_Bend_Energy-OPLS-2005>
175.779937744141

> <r_mmod_Torsional_Energy-OPLS-2005>
384.64697265625

> <r_mmod_Improper_Torsional_Energy-OPLS-2005>
4.84912729263306

> <r_mmod_Van_der_Waal_Energy-OPLS-2005>
154.482894897461

> <r_mmod_Electrostatic_Energy-OPLS-2005>
-307.058044433594

> <r_mmod_Solvation_Energy-OPLS-2005>
-190.577865600586

> <b_mmod_Minimization_Converged-OPLS-2005>
0

> <r_mmod_RMS_Derivative-OPLS-2005>
2.03152060508728

$$$$
28
                    3D
 Structure written by MMmdl.
169178  0  0  1  0            999 V2000
  -30.6931  -14.6356   20.4293 C   0  0  0  0  0  0
  -30.4117  -12.3827   19.4551 C   0  0  0  0  0  0
  -29.4987  -12.4787   18.2158 C   0  0  0  0  0  0
  -28.0208  -12.3350   18.6282 C   0  0  0  0  0  0
  -27.6386  -13.2337   19.8375 C   0  0  2  0  0  0
  -28.6857  -13.1667   20.9710 C   0  0  0  0  0  0
  -25.2499  -13.8210   20.5655 C   0  0  0  0  0  0
  -24.1804  -13.0462   20.9186 C   0  0  0  0  0  0
  -24.6396  -11.6934   20.8727 C   0  0  0  0  0  0
  -23.9085  -10.4303   21.0410 C   0  0  0  0  0  0
  -24.3629   -9.4209   21.9192 C   0  0  0  0  0  0
  -23.6295   -8.2249   22.0767 C   0  0  0  0  0  0
  -22.4283   -8.0282   21.3551 C   0  0  0  0  0  0
  -21.9915   -9.0257   20.4655 C   0  0  0  0  0  0
  -22.7257  -10.2130   20.3058 C   0  0  0  0  0  0
  -21.6858   -6.0733   22.5286 C   0  0  0  0  0  0
  -21.4022   -6.5639   23.8218 C   0  0  0  0  0  0
  -21.3657   -5.6789   24.9181 C   0  0  0  0  0  0
  -21.6042   -4.3051   24.7233 C   0  0  0  0  0  0
  -21.8822   -3.8143   23.4355 C   0  0  0  0  0  0
  -21.9194   -4.6959   22.3412 C   0  0  0  0  0  0
  -22.7821  -13.5231   21.1857 C   0  0  0  0  0  0
  -22.1662   -4.2146   21.0987 F   0  0  0  0  0  0
  -21.5623   -3.4533   25.7744 F   0  0  0  0  0  0
  -29.9978  -13.4572   20.3797 N   0  0  0  0  0  0
  -26.2925  -12.9430   20.3209 N   0  0  0  0  0  0
  -25.9321  -11.6575   20.5707 N   0  0  0  0  0  0
  -22.0465  -12.8220   22.0404 N   0  0  0  0  0  0
  -25.4200  -15.1943   20.4083 N   0  0  0  0  0  0
  -31.8954  -14.6600   20.1633 O   0  0  0  0  0  0
  -21.6647   -6.8882   21.4250 O   0  0  0  0  0  0
  -22.3510  -14.5550   20.6720 O   0  0  0  0  0  0
  -24.6219  -31.8599   23.2050 C   0  0  0  0  0  0
  -25.9069  -32.4761   23.8363 C   0  0  1  0  0  0
  -27.2203  -27.3403   20.1068 C   0  0  0  0  0  0
  -25.5898  -33.8568   24.2281 N   0  0  0  0  0  0
  -23.4147  -30.4805   21.5498 C   0  0  2  0  0  0
  -24.8594  -28.9365   20.1132 C   0  0  0  0  0  0
  -22.7438  -29.4586   22.4980 C   0  0  0  0  0  0
  -18.0266  -28.1330   22.8476 C   0  0  0  0  0  0
  -24.1506  -36.7302   23.2644 C   0  0  0  0  0  0
  -25.9533  -30.7943   21.3752 C   0  0  0  0  0  0
  -26.0281  -29.4249   20.7130 C   0  0  0  0  0  0
  -27.2131  -28.6387   20.6973 C   0  0  0  0  0  0
  -26.0343  -26.8937   19.4877 C   0  0  0  0  0  0
  -24.8630  -27.6746   19.4950 C   0  0  0  0  0  0
  -23.6260  -29.8127   20.1655 C   0  0  0  0  0  0
  -25.4128  -36.3085   24.0336 C   0  0  1  0  0  0
  -20.5856  -28.3620   23.1286 C   0  0  2  0  0  0
  -20.6751  -26.9342   22.5411 C   0  0  0  0  0  0
  -19.5745  -26.6348   21.5194 C   0  0  0  0  0  0
  -18.1922  -26.7876   22.1600 C   0  0  0  0  0  0
  -19.1515  -28.8789   23.2869 C   0  0  0  0  0  0
  -18.9455  -30.1402   23.8872 C   0  0  0  0  0  0
  -17.6458  -30.6545   24.0535 C   0  0  0  0  0  0
  -25.9056  -34.9442   23.5115 C   0  0  0  0  0  0
  -16.5342  -29.9042   23.6321 C   0  0  0  0  0  0
  -16.7251  -28.6451   23.0351 C   0  0  0  0  0  0
  -26.4484  -31.6561   25.0714 C   0  0  0  0  0  0
  -25.3732  -31.3673   26.1449 C   0  0  0  0  0  0
  -27.0342  -30.2994   24.6150 C   0  0  0  0  0  0
  -27.6057  -32.4293   25.7459 C   0  0  0  0  0  0
  -27.5597  -37.1791   24.8455 C   0  0  0  0  0  0
  -21.4156  -29.3019   22.3725 N   0  0  0  0  0  0
  -26.4312  -37.3776   23.9403 N   0  0  0  0  0  0
  -24.6829  -31.0614   22.1001 N   0  0  0  0  0  0
  -23.4172  -28.8124   23.3047 O   0  0  0  0  0  0
  -28.3540  -26.5276   20.1193 O   0  0  0  0  0  0
  -26.5639  -34.8912   22.4692 O   0  0  0  0  0  0
  -23.5388  -32.1402   23.7369 O   0  0  0  0  0  0
  -31.3104  -22.4800   16.6068 C   0  0  0  0  0  0
  -32.3505  -21.7535   17.1930 C   0  0  0  0  0  0
  -30.1196  -22.6449   17.3311 C   0  0  0  0  0  0
  -30.8108  -20.9759   19.0239 C   0  0  0  0  0  0
  -30.9770  -19.7382   19.8522 C   0  0  0  0  0  0
  -32.0860  -21.0504   18.3769 C   0  0  0  0  0  0
  -29.9151  -22.0547   18.6160 C   0  0  0  0  0  0
  -32.3409  -19.7070   20.0746 C   0  0  0  0  0  0
  -35.9545  -16.2683   21.0057 C   0  0  0  0  0  0
  -30.0410  -18.5981   20.3597 C   0  0  0  0  0  0
  -33.2100  -19.0305   21.0863 C   0  0  0  0  0  0
  -34.8746  -17.1847   21.5871 C   0  0  0  0  0  0
  -34.1403  -17.9637   20.4923 C   0  0  0  0  0  0
  -30.6928  -17.1369   20.1826 C   0  0  0  0  0  0
  -28.1987  -25.0772   20.3497 C   0  0  0  0  0  0
  -28.7833  -24.1428   19.2286 C   0  0  0  0  0  0
  -30.0112  -15.8282   20.4995 N   0  0  0  0  0  0
  -33.0187  -20.3572   19.0977 O   0  0  0  0  0  0
  -28.9949  -22.6928   19.4704 O   0  0  0  0  0  0
  -31.4570  -12.4649   19.1526 H   0  0  0  0  0  0
  -30.3167  -11.4068   19.9330 H   0  0  0  0  0  0
  -29.7597  -11.7029   17.4943 H   0  0  0  0  0  0
  -29.6559  -13.4323   17.7076 H   0  0  0  0  0  0
  -27.8548  -11.2859   18.8777 H   0  0  0  0  0  0
  -27.3725  -12.5498   17.7774 H   0  0  0  0  0  0
  -27.6338  -14.2563   19.4603 H   0  0  0  0  0  0
  -28.6836  -12.1826   21.4415 H   0  0  0  0  0  0
  -28.4445  -13.8877   21.7544 H   0  0  0  0  0  0
  -25.2778   -9.5684   22.4765 H   0  0  0  0  0  0
  -24.0003   -7.4646   22.7493 H   0  0  0  0  0  0
  -21.0846   -8.8781   19.8957 H   0  0  0  0  0  0
  -22.3728  -10.9666   19.6154 H   0  0  0  0  0  0
  -21.2023   -7.6145   23.9724 H   0  0  0  0  0  0
  -21.1473   -6.0516   25.9082 H   0  0  0  0  0  0
  -22.0602   -2.7602   23.2860 H   0  0  0  0  0  0
  -22.4061  -11.9855   22.4772 H   0  0  0  0  0  0
  -21.1083  -13.1250   22.2626 H   0  0  0  0  0  0
  -24.6553  -15.8513   20.5182 H   0  0  0  0  0  0
  -26.2716  -15.6293   20.0776 H   0  0  0  0  0  0
  -26.7114  -32.5427   23.1084 H   0  0  0  0  0  0
  -24.9993  -33.9704   25.0383 H   0  0  0  0  0  0
  -22.7061  -31.2983   21.4067 H   0  0  0  0  0  0
  -23.3772  -35.9626   23.3295 H   0  0  0  0  0  0
  -24.3611  -36.8941   22.2063 H   0  0  0  0  0  0
  -23.7249  -37.6498   23.6676 H   0  0  0  0  0  0
  -26.0863  -31.5593   20.6105 H   0  0  0  0  0  0
  -26.8308  -30.8339   22.0086 H   0  0  0  0  0  0
  -28.1148  -29.0092   21.1669 H   0  0  0  0  0  0
  -26.0019  -25.9309   18.9995 H   0  0  0  0  0  0
  -23.9689  -27.2921   19.0252 H   0  0  0  0  0  0
  -23.7340  -30.5876   19.4057 H   0  0  0  0  0  0
  -22.7477  -29.2355   19.8715 H   0  0  0  0  0  0
  -25.1297  -36.1979   25.0827 H   0  0  0  0  0  0
  -20.9917  -28.3190   24.1422 H   0  0  0  0  0  0
  -20.5631  -26.2210   23.3597 H   0  0  0  0  0  0
  -21.6627  -26.7372   22.1212 H   0  0  0  0  0  0
  -19.6927  -25.6266   21.1195 H   0  0  0  0  0  0
  -19.6718  -27.3172   20.6737 H   0  0  0  0  0  0
  -17.4196  -26.6599   21.4001 H   0  0  0  0  0  0
  -18.0324  -25.9999   22.8975 H   0  0  0  0  0  0
  -19.7950  -30.7187   24.2247 H   0  0  0  0  0  0
  -17.5039  -31.6243   24.5116 H   0  0  0  0  0  0
  -15.5344  -30.2933   23.7693 H   0  0  0  0  0  0
  -15.8645  -28.0774   22.7084 H   0  0  0  0  0  0
  -24.5919  -30.7002   25.7778 H   0  0  0  0  0  0
  -24.8890  -32.2813   26.4891 H   0  0  0  0  0  0
  -25.8057  -30.8845   27.0214 H   0  0  0  0  0  0
  -26.2904  -29.6701   24.1226 H   0  0  0  0  0  0
  -27.4125  -29.7284   25.4638 H   0  0  0  0  0  0
  -27.8729  -30.4300   23.9308 H   0  0  0  0  0  0
  -27.2690  -33.3601   26.2028 H   0  0  0  0  0  0
  -28.3837  -32.6830   25.0247 H   0  0  0  0  0  0
  -28.0738  -31.8418   26.5366 H   0  0  0  0  0  0
  -28.2585  -38.0121   24.7537 H   0  0  0  0  0  0
  -28.1133  -36.2645   24.6241 H   0  0  0  0  0  0
  -27.2307  -37.1359   25.8857 H   0  0  0  0  0  0
  -20.9309  -29.8764   21.6964 H   0  0  0  0  0  0
  -26.0215  -38.2860   24.1405 H   0  0  0  0  0  0
  -31.4578  -23.0029   15.6690 H   0  0  0  0  0  0
  -33.3276  -21.7112   16.7304 H   0  0  0  0  0  0
  -29.4035  -23.3338   16.9081 H   0  0  0  0  0  0
  -36.4477  -15.6954   21.7897 H   0  0  0  0  0  0
  -36.7194  -16.8518   20.4907 H   0  0  0  0  0  0
  -35.5272  -15.5663   20.2876 H   0  0  0  0  0  0
  -29.0925  -18.6448   19.8230 H   0  0  0  0  0  0
  -29.8070  -18.7543   21.4125 H   0  0  0  0  0  0
  -32.5984  -18.6188   21.8888 H   0  0  0  0  0  0
  -33.8262  -19.7888   21.5733 H   0  0  0  0  0  0
  -35.3321  -17.8782   22.2941 H   0  0  0  0  0  0
  -34.1495  -16.5985   22.1548 H   0  0  0  0  0  0
  -34.8575  -18.4476   19.8288 H   0  0  0  0  0  0
  -33.5808  -17.2648   19.8694 H   0  0  0  0  0  0
  -31.5623  -17.1007   20.8255 H   0  0  0  0  0  0
  -31.0721  -17.0525   19.1623 H   0  0  0  0  0  0
  -28.7378  -24.8596   21.2719 H   0  0  0  0  0  0
  -27.1674  -24.7925   20.5643 H   0  0  0  0  0  0
  -28.1414  -24.2671   18.3566 H   0  0  0  0  0  0
  -29.7489  -24.5835   18.9747 H   0  0  0  0  0  0
  -29.0097  -15.8129   20.6132 H   0  0  0  0  0  0
  1 25  1  0  0  0
  1 30  2  0  0  0
  1 87  1  0  0  0
  2  3  1  0  0  0
  2 25  1  0  0  0
  2 90  1  0  0  0
  2 91  1  0  0  0
  3  4  1  0  0  0
  3 92  1  0  0  0
  3 93  1  0  0  0
  4  5  1  0  0  0
  4 94  1  0  0  0
  4 95  1  0  0  0
  5  6  1  0  0  0
  5 26  1  0  0  0
  5 96  1  0  0  0
  6 25  1  0  0  0
  6 97  1  0  0  0
  6 98  1  0  0  0
  7  8  2  0  0  0
  7 26  1  0  0  0
  7 29  1  0  0  0
  8  9  1  0  0  0
  8 22  1  0  0  0
  9 10  1  0  0  0
  9 27  2  0  0  0
 10 11  2  0  0  0
 10 15  1  0  0  0
 11 12  1  0  0  0
 11 99  1  0  0  0
 12 13  2  0  0  0
 12100  1  0  0  0
 13 14  1  0  0  0
 13 31  1  0  0  0
 14 15  2  0  0  0
 14101  1  0  0  0
 15102  1  0  0  0
 16 17  2  0  0  0
 16 21  1  0  0  0
 16 31  1  0  0  0
 17 18  1  0  0  0
 17103  1  0  0  0
 18 19  2  0  0  0
 18104  1  0  0  0
 19 20  1  0  0  0
 19 24  1  0  0  0
 20 21  2  0  0  0
 20105  1  0  0  0
 21 23  1  0  0  0
 22 28  1  0  0  0
 22 32  2  0  0  0
 26 27  1  0  0  0
 28106  1  0  0  0
 28107  1  0  0  0
 29108  1  0  0  0
 29109  1  0  0  0
 33 34  1  0  0  0
 33 66  1  0  0  0
 33 70  2  0  0  0
 34 36  1  0  0  0
 34 59  1  0  0  0
 34110  1  0  0  0
 35 44  2  0  0  0
 35 45  1  0  0  0
 35 68  1  0  0  0
 36 56  1  0  0  0
 36111  1  0  0  0
 37 39  1  0  0  0
 37 47  1  0  0  0
 37 66  1  0  0  0
 37112  1  0  0  0
 38 43  2  0  0  0
 38 46  1  0  0  0
 38 47  1  0  0  0
 39 64  1  0  0  0
 39 67  2  0  0  0
 40 52  1  0  0  0
 40 53  2  0  0  0
 40 58  1  0  0  0
 41113  1  0  0  0
 41114  1  0  0  0
 41115  1  0  0  0
 41 48  1  0  0  0
 42 43  1  0  0  0
 42 66  1  0  0  0
 42116  1  0  0  0
 42117  1  0  0  0
 43 44  1  0  0  0
 44118  1  0  0  0
 45 46  2  0  0  0
 45119  1  0  0  0
 46120  1  0  0  0
 47121  1  0  0  0
 47122  1  0  0  0
 48 56  1  0  0  0
 48 65  1  0  0  0
 48123  1  0  0  0
 49 50  1  0  0  0
 49 53  1  0  0  0
 49 64  1  0  0  0
 49124  1  0  0  0
 50 51  1  0  0  0
 50125  1  0  0  0
 50126  1  0  0  0
 51 52  1  0  0  0
 51127  1  0  0  0
 51128  1  0  0  0
 52129  1  0  0  0
 52130  1  0  0  0
 53 54  1  0  0  0
 54 55  2  0  0  0
 54131  1  0  0  0
 55 57  1  0  0  0
 55132  1  0  0  0
 56 69  2  0  0  0
 57 58  2  0  0  0
 57133  1  0  0  0
 58134  1  0  0  0
 59 60  1  0  0  0
 59 61  1  0  0  0
 59 62  1  0  0  0
 60135  1  0  0  0
 60136  1  0  0  0
 60137  1  0  0  0
 61138  1  0  0  0
 61139  1  0  0  0
 61140  1  0  0  0
 62141  1  0  0  0
 62142  1  0  0  0
 62143  1  0  0  0
 63 65  1  0  0  0
 63144  1  0  0  0
 63145  1  0  0  0
 63146  1  0  0  0
 64147  1  0  0  0
 65148  1  0  0  0
 68 85  1  0  0  0
 71 72  2  0  0  0
 71 73  1  0  0  0
 71149  1  0  0  0
 72 76  1  0  0  0
 72150  1  0  0  0
 73 77  2  0  0  0
 73151  1  0  0  0
 74 75  1  0  0  0
 74 76  2  0  0  0
 74 77  1  0  0  0
 75 78  2  0  0  0
 75 80  1  0  0  0
 76 88  1  0  0  0
 77 89  1  0  0  0
 78 81  1  0  0  0
 78 88  1  0  0  0
 79 82  1  0  0  0
 79152  1  0  0  0
 79153  1  0  0  0
 79154  1  0  0  0
 80 84  1  0  0  0
 80155  1  0  0  0
 80156  1  0  0  0
 81 83  1  0  0  0
 81157  1  0  0  0
 81158  1  0  0  0
 82 83  1  0  0  0
 82159  1  0  0  0
 82160  1  0  0  0
 83161  1  0  0  0
 83162  1  0  0  0
 84 87  1  0  0  0
 84163  1  0  0  0
 84164  1  0  0  0
 85 86  1  0  0  0
 85165  1  0  0  0
 85166  1  0  0  0
 86 89  1  0  0  0
 86167  1  0  0  0
 86168  1  0  0  0
 87169  1  0  0  0
M  ISO  4   1 100  68 101  85 101  87 100
M  END
> <chiral flag>
0

> <version>
0

> <s_m_source_file>
/data/baiqing/PycharmProjects/Reinvent-master-3.2/result/LINK_invent/BTK/process_docking_weight1_custom_sum_contain_oxygen_bond_distance_aromatic_linkinvent_7_9_3/rearranged_h_0142.sdf

> <i_m_source_file_index>
29

> <r_mmod_Potential_Energy-OPLS-2005>
253.02604675293

> <r_mmod_Stretch_Energy-OPLS-2005>
89.5495758056641

> <r_mmod_Bend_Energy-OPLS-2005>
167.399841308594

> <r_mmod_Torsional_Energy-OPLS-2005>
338.862426757812

> <r_mmod_Improper_Torsional_Energy-OPLS-2005>
8.33499717712402

> <r_mmod_Van_der_Waal_Energy-OPLS-2005>
154.601089477539

> <r_mmod_Electrostatic_Energy-OPLS-2005>
-338.105743408203

> <r_mmod_Solvation_Energy-OPLS-2005>
-217.906951904297

> <b_mmod_Minimization_Converged-OPLS-2005>
0

> <r_mmod_RMS_Derivative-OPLS-2005>
3.24840784072876

$$$$
30
                    3D
 Structure written by MMmdl.
179188  0  0  1  0            999 V2000
  -30.6835  -14.4635   20.4908 C   0  0  0  0  0  0
  -30.4231  -12.2729   19.4207 C   0  0  0  0  0  0
  -29.4924  -12.4604   18.2027 C   0  0  0  0  0  0
  -28.0111  -12.3395   18.6155 C   0  0  0  0  0  0
  -27.6588  -13.1801   19.8706 C   0  0  2  0  0  0
  -28.7070  -12.9968   20.9919 C   0  0  0  0  0  0
  -25.2586  -13.8077   20.5673 C   0  0  0  0  0  0
  -24.1817  -13.0396   20.9170 C   0  0  0  0  0  0
  -24.6346  -11.6862   20.8744 C   0  0  0  0  0  0
  -23.8999  -10.4268   21.0413 C   0  0  0  0  0  0
  -24.3569   -9.4197   21.9192 C   0  0  0  0  0  0
  -23.6273   -8.2222   22.0749 C   0  0  0  0  0  0
  -22.4263   -8.0254   21.3539 C   0  0  0  0  0  0
  -21.9879   -9.0224   20.4646 C   0  0  0  0  0  0
  -22.7183  -10.2113   20.3065 C   0  0  0  0  0  0
  -21.6846   -6.0725   22.5278 C   0  0  0  0  0  0
  -21.4003   -6.5628   23.8205 C   0  0  0  0  0  0
  -21.3659   -5.6786   24.9171 C   0  0  0  0  0  0
  -21.6047   -4.3048   24.7219 C   0  0  0  0  0  0
  -21.8823   -3.8138   23.4337 C   0  0  0  0  0  0
  -21.9187   -4.6957   22.3400 C   0  0  0  0  0  0
  -22.7849  -13.5242   21.1828 C   0  0  0  0  0  0
  -22.1671   -4.2144   21.0972 F   0  0  0  0  0  0
  -21.5636   -3.4530   25.7731 F   0  0  0  0  0  0
  -30.0335  -13.2743   20.4204 N   0  0  0  0  0  0
  -26.3009  -12.9207   20.3378 N   0  0  0  0  0  0
  -25.9269  -11.6396   20.5789 N   0  0  0  0  0  0
  -22.0467  -12.8266   22.0384 N   0  0  0  0  0  0
  -25.4286  -15.1785   20.4081 N   0  0  0  0  0  0
  -31.8688  -14.6080   20.1687 O   0  0  0  0  0  0
  -21.6627   -6.8861   21.4238 O   0  0  0  0  0  0
  -22.3557  -14.5555   20.6675 O   0  0  0  0  0  0
  -24.6078  -31.8705   23.2130 C   0  0  0  0  0  0
  -25.8985  -32.4826   23.8426 C   0  0  1  0  0  0
  -27.2636  -27.4864   20.0961 C   0  0  0  0  0  0
  -25.5849  -33.8629   24.2362 N   0  0  0  0  0  0
  -23.3945  -30.4926   21.5501 C   0  0  2  0  0  0
  -24.8472  -28.9592   20.1180 C   0  0  0  0  0  0
  -22.7376  -29.4672   22.5010 C   0  0  0  0  0  0
  -18.0267  -28.1377   22.8498 C   0  0  0  0  0  0
  -24.1477  -36.7333   23.2645 C   0  0  0  0  0  0
  -25.9148  -30.8545   21.3555 C   0  0  0  0  0  0
  -25.9975  -29.4886   20.7138 C   0  0  0  0  0  0
  -27.2027  -28.7604   20.7099 C   0  0  0  0  0  0
  -26.0944  -26.9624   19.5058 C   0  0  0  0  0  0
  -24.8873  -27.6896   19.5151 C   0  0  0  0  0  0
  -23.6029  -29.8174   20.1665 C   0  0  0  0  0  0
  -25.4083  -36.3119   24.0358 C   0  0  1  0  0  0
  -20.5854  -28.3644   23.1334 C   0  0  2  0  0  0
  -20.6751  -26.9383   22.5427 C   0  0  0  0  0  0
  -19.5735  -26.6391   21.5214 C   0  0  0  0  0  0
  -18.1911  -26.7930   22.1620 C   0  0  0  0  0  0
  -19.1518  -28.8825   23.2915 C   0  0  0  0  0  0
  -18.9452  -30.1437   23.8911 C   0  0  0  0  0  0
  -17.6456  -30.6585   24.0567 C   0  0  0  0  0  0
  -25.8992  -34.9477   23.5157 C   0  0  0  0  0  0
  -16.5342  -29.9084   23.6334 C   0  0  0  0  0  0
  -16.7260  -28.6504   23.0348 C   0  0  0  0  0  0
  -26.4449  -31.6593   25.0722 C   0  0  0  0  0  0
  -25.3738  -31.3678   26.1488 C   0  0  0  0  0  0
  -27.0287  -30.3053   24.6047 C   0  0  0  0  0  0
  -27.6055  -32.4294   25.7449 C   0  0  0  0  0  0
  -27.5578  -37.1817   24.8465 C   0  0  0  0  0  0
  -21.4109  -29.3023   22.3749 N   0  0  0  0  0  0
  -26.4282  -37.3787   23.9411 N   0  0  0  0  0  0
  -24.6569  -31.0856   22.0995 N   0  0  0  0  0  0
  -23.4165  -28.8237   23.3055 O   0  0  0  0  0  0
  -28.4071  -26.7221   20.0223 O   0  0  0  0  0  0
  -26.5574  -34.8928   22.4727 O   0  0  0  0  0  0
  -23.5280  -32.1453   23.7535 O   0  0  0  0  0  0
  -29.8981  -21.7072   18.4844 C   0  0  0  0  0  0
  -29.1487  -21.7287   19.6785 C   0  0  0  0  0  0
  -29.3325  -22.8282   20.5593 C   0  0  0  0  0  0
  -30.7829  -22.7547   18.2027 C   0  0  0  0  0  0
  -30.2514  -23.8391   20.1842 C   0  0  0  0  0  0
  -28.3720  -17.1507   21.5930 C   0  0  0  0  0  0
  -29.7230  -16.4040   21.6360 C   0  0  0  0  0  0
  -29.7968  -16.3076   19.2194 C   0  0  0  0  0  0
  -28.1434  -17.9407   20.2773 C   0  0  2  0  0  0
  -28.4313  -17.0083   19.0682 C   0  0  1  0  0  0
  -28.5389  -22.9216   21.8622 C   0  0  0  0  0  0
  -31.5780  -22.7775   16.9144 C   0  0  0  0  0  0
  -28.2924  -17.6566   17.6822 C   0  0  0  0  0  0
  -27.1346  -20.5248   18.7952 C   0  0  0  0  0  0
  -28.9535  -19.2673   20.2304 C   0  0  0  0  0  0
  -30.7432  -26.2435   20.4068 C   0  0  0  0  0  0
  -29.5856  -27.2143   20.6556 C   0  0  0  0  0  0
  -28.1681  -20.5790   19.9417 C   0  0  1  0  0  0
  -30.9660  -23.7894   19.0427 N   0  0  0  0  0  0
  -29.8551  -15.5312   20.4659 N   0  0  0  0  0  0
  -30.4884  -24.9382   21.0132 N   0  0  0  0  0  0
  -31.4683  -12.3666   19.1192 H   0  0  0  0  0  0
  -30.3183  -11.2706   19.8381 H   0  0  0  0  0  0
  -29.7237  -11.7179   17.4376 H   0  0  0  0  0  0
  -29.6669  -13.4335   17.7417 H   0  0  0  0  0  0
  -27.8089  -11.2857   18.8103 H   0  0  0  0  0  0
  -27.3656  -12.6227   17.7823 H   0  0  0  0  0  0
  -27.6913  -14.2127   19.5498 H   0  0  0  0  0  0
  -28.6775  -11.9805   21.3860 H   0  0  0  0  0  0
  -28.4893  -13.6568   21.8331 H   0  0  0  0  0  0
  -25.2709   -9.5694   22.4771 H   0  0  0  0  0  0
  -23.9993   -7.4613   22.7467 H   0  0  0  0  0  0
  -21.0811   -8.8720   19.8962 H   0  0  0  0  0  0
  -22.3622  -10.9651   19.6176 H   0  0  0  0  0  0
  -21.1987   -7.6140   23.9710 H   0  0  0  0  0  0
  -21.1492   -6.0512   25.9074 H   0  0  0  0  0  0
  -22.0605   -2.7606   23.2826 H   0  0  0  0  0  0
  -22.4059  -11.9937   22.4813 H   0  0  0  0  0  0
  -21.1098  -13.1340   22.2567 H   0  0  0  0  0  0
  -24.6656  -15.8348   20.5306 H   0  0  0  0  0  0
  -26.2978  -15.6208   20.1422 H   0  0  0  0  0  0
  -26.7057  -32.5582   23.1211 H   0  0  0  0  0  0
  -24.9999  -33.9787   25.0506 H   0  0  0  0  0  0
  -22.6806  -31.3072   21.4085 H   0  0  0  0  0  0
  -23.3716  -35.9687   23.3310 H   0  0  0  0  0  0
  -24.3597  -36.8929   22.2061 H   0  0  0  0  0  0
  -23.7254  -37.6555   23.6646 H   0  0  0  0  0  0
  -26.0146  -31.6170   20.5808 H   0  0  0  0  0  0
  -26.8066  -30.9194   21.9666 H   0  0  0  0  0  0
  -28.0705  -29.2018   21.1762 H   0  0  0  0  0  0
  -26.1260  -25.9908   19.0327 H   0  0  0  0  0  0
  -24.0024  -27.2730   19.0522 H   0  0  0  0  0  0
  -23.7031  -30.5880   19.4018 H   0  0  0  0  0  0
  -22.7293  -29.2291   19.8770 H   0  0  0  0  0  0
  -25.1259  -36.1991   25.0853 H   0  0  0  0  0  0
  -20.9962  -28.3216   24.1447 H   0  0  0  0  0  0
  -20.5651  -26.2249   23.3611 H   0  0  0  0  0  0
  -21.6624  -26.7433   22.1223 H   0  0  0  0  0  0
  -19.6877  -25.6310   21.1223 H   0  0  0  0  0  0
  -19.6673  -27.3224   20.6763 H   0  0  0  0  0  0
  -17.4189  -26.6704   21.4012 H   0  0  0  0  0  0
  -18.0285  -26.0069   22.9008 H   0  0  0  0  0  0
  -19.7927  -30.7252   24.2281 H   0  0  0  0  0  0
  -17.5011  -31.6260   24.5177 H   0  0  0  0  0  0
  -15.5344  -30.2985   23.7643 H   0  0  0  0  0  0
  -15.8667  -28.0827   22.7035 H   0  0  0  0  0  0
  -24.5891  -30.7043   25.7837 H   0  0  0  0  0  0
  -24.8946  -32.2820   26.4994 H   0  0  0  0  0  0
  -25.8111  -30.8815   27.0214 H   0  0  0  0  0  0
  -26.2822  -29.6775   24.1164 H   0  0  0  0  0  0
  -27.4171  -29.7308   25.4468 H   0  0  0  0  0  0
  -27.8595  -30.4414   23.9118 H   0  0  0  0  0  0
  -27.2714  -33.3581   26.2090 H   0  0  0  0  0  0
  -28.3811  -32.6872   25.0222 H   0  0  0  0  0  0
  -28.0785  -31.8376   26.5295 H   0  0  0  0  0  0
  -28.2604  -38.0106   24.7485 H   0  0  0  0  0  0
  -28.1067  -36.2640   24.6300 H   0  0  0  0  0  0
  -27.2314  -37.1475   25.8876 H   0  0  0  0  0  0
  -20.9263  -29.8727   21.6964 H   0  0  0  0  0  0
  -26.0178  -38.2870   24.1393 H   0  0  0  0  0  0
  -29.7919  -20.8934   17.7809 H   0  0  0  0  0  0
  -28.2781  -17.8123   22.4558 H   0  0  0  0  0  0
  -27.5755  -16.4144   21.7101 H   0  0  0  0  0  0
  -29.7911  -15.8188   22.5555 H   0  0  0  0  0  0
  -30.5527  -17.1130   21.6567 H   0  0  0  0  0  0
  -30.6156  -17.0272   19.1968 H   0  0  0  0  0  0
  -29.9536  -15.6517   18.3607 H   0  0  0  0  0  0
  -27.0811  -18.1849   20.2709 H   0  0  0  0  0  0
  -27.6593  -16.2458   19.0847 H   0  0  0  0  0  0
  -27.4942  -23.1470   21.6457 H   0  0  0  0  0  0
  -28.9050  -23.6881   22.5423 H   0  0  0  0  0  0
  -28.5829  -21.9824   22.4140 H   0  0  0  0  0  0
  -31.0721  -22.2047   16.1363 H   0  0  0  0  0  0
  -32.5668  -22.3441   17.0668 H   0  0  0  0  0  0
  -31.7017  -23.7978   16.5478 H   0  0  0  0  0  0
  -29.0074  -18.4624   17.5219 H   0  0  0  0  0  0
  -27.2873  -18.0478   17.5318 H   0  0  0  0  0  0
  -28.4633  -16.9231   16.8934 H   0  0  0  0  0  0
  -26.6057  -21.4755   18.7211 H   0  0  0  0  0  0
  -26.3738  -19.7614   18.9460 H   0  0  0  0  0  0
  -27.5965  -20.3490   17.8254 H   0  0  0  0  0  0
  -29.7702  -19.1663   19.5192 H   0  0  0  0  0  0
  -29.4653  -19.4105   21.1829 H   0  0  0  0  0  0
  -31.6531  -26.6488   20.8497 H   0  0  0  0  0  0
  -30.9323  -26.1897   19.3352 H   0  0  0  0  0  0
  -29.8576  -28.1847   20.2384 H   0  0  0  0  0  0
  -29.4236  -27.3445   21.7273 H   0  0  0  0  0  0
  -27.5792  -20.7820   20.8338 H   0  0  0  0  0  0
  -29.9165  -24.9696   21.8473 H   0  0  0  0  0  0
  1 25  1  0  0  0
  1 30  2  0  0  0
  1 90  1  0  0  0
  2  3  1  0  0  0
  2 25  1  0  0  0
  2 92  1  0  0  0
  2 93  1  0  0  0
  3  4  1  0  0  0
  3 94  1  0  0  0
  3 95  1  0  0  0
  4  5  1  0  0  0
  4 96  1  0  0  0
  4 97  1  0  0  0
  5  6  1  0  0  0
  5 26  1  0  0  0
  5 98  1  0  0  0
  6 25  1  0  0  0
  6 99  1  0  0  0
  6100  1  0  0  0
  7  8  2  0  0  0
  7 26  1  0  0  0
  7 29  1  0  0  0
  8  9  1  0  0  0
  8 22  1  0  0  0
  9 10  1  0  0  0
  9 27  2  0  0  0
 10 11  2  0  0  0
 10 15  1  0  0  0
 11 12  1  0  0  0
 11101  1  0  0  0
 12 13  2  0  0  0
 12102  1  0  0  0
 13 14  1  0  0  0
 13 31  1  0  0  0
 14 15  2  0  0  0
 14103  1  0  0  0
 15104  1  0  0  0
 16 17  2  0  0  0
 16 21  1  0  0  0
 16 31  1  0  0  0
 17 18  1  0  0  0
 17105  1  0  0  0
 18 19  2  0  0  0
 18106  1  0  0  0
 19 20  1  0  0  0
 19 24  1  0  0  0
 20 21  2  0  0  0
 20107  1  0  0  0
 21 23  1  0  0  0
 22 28  1  0  0  0
 22 32  2  0  0  0
 26 27  1  0  0  0
 28108  1  0  0  0
 28109  1  0  0  0
 29110  1  0  0  0
 29111  1  0  0  0
 33 34  1  0  0  0
 33 66  1  0  0  0
 33 70  2  0  0  0
 34 36  1  0  0  0
 34 59  1  0  0  0
 34112  1  0  0  0
 35 44  2  0  0  0
 35 45  1  0  0  0
 35 68  1  0  0  0
 36 56  1  0  0  0
 36113  1  0  0  0
 37 39  1  0  0  0
 37 47  1  0  0  0
 37 66  1  0  0  0
 37114  1  0  0  0
 38 43  2  0  0  0
 38 46  1  0  0  0
 38 47  1  0  0  0
 39 64  1  0  0  0
 39 67  2  0  0  0
 40 52  1  0  0  0
 40 53  2  0  0  0
 40 58  1  0  0  0
 41115  1  0  0  0
 41116  1  0  0  0
 41117  1  0  0  0
 41 48  1  0  0  0
 42 43  1  0  0  0
 42 66  1  0  0  0
 42118  1  0  0  0
 42119  1  0  0  0
 43 44  1  0  0  0
 44120  1  0  0  0
 45 46  2  0  0  0
 45121  1  0  0  0
 46122  1  0  0  0
 47123  1  0  0  0
 47124  1  0  0  0
 48 56  1  0  0  0
 48 65  1  0  0  0
 48125  1  0  0  0
 49 50  1  0  0  0
 49 53  1  0  0  0
 49 64  1  0  0  0
 49126  1  0  0  0
 50 51  1  0  0  0
 50127  1  0  0  0
 50128  1  0  0  0
 51 52  1  0  0  0
 51129  1  0  0  0
 51130  1  0  0  0
 52131  1  0  0  0
 52132  1  0  0  0
 53 54  1  0  0  0
 54 55  2  0  0  0
 54133  1  0  0  0
 55 57  1  0  0  0
 55134  1  0  0  0
 56 69  2  0  0  0
 57 58  2  0  0  0
 57135  1  0  0  0
 58136  1  0  0  0
 59 60  1  0  0  0
 59 61  1  0  0  0
 59 62  1  0  0  0
 60137  1  0  0  0
 60138  1  0  0  0
 60139  1  0  0  0
 61140  1  0  0  0
 61141  1  0  0  0
 61142  1  0  0  0
 62143  1  0  0  0
 62144  1  0  0  0
 62145  1  0  0  0
 63 65  1  0  0  0
 63146  1  0  0  0
 63147  1  0  0  0
 63148  1  0  0  0
 64149  1  0  0  0
 65150  1  0  0  0
 68 87  1  0  0  0
 71 72  2  0  0  0
 71 74  1  0  0  0
 71151  1  0  0  0
 72 73  1  0  0  0
 72 88  1  0  0  0
 73 75  2  0  0  0
 73 81  1  0  0  0
 74 82  1  0  0  0
 74 89  2  0  0  0
 75 89  1  0  0  0
 75 91  1  0  0  0
 76 77  1  0  0  0
 76 79  1  0  0  0
 76152  1  0  0  0
 76153  1  0  0  0
 77 90  1  0  0  0
 77154  1  0  0  0
 77155  1  0  0  0
 78 80  1  0  0  0
 78 90  1  0  0  0
 78156  1  0  0  0
 78157  1  0  0  0
 79 80  1  0  0  0
 79 85  1  0  0  0
 79158  1  0  0  0
 80 83  1  0  0  0
 80159  1  0  0  0
 81160  1  0  0  0
 81161  1  0  0  0
 81162  1  0  0  0
 82163  1  0  0  0
 82164  1  0  0  0
 82165  1  0  0  0
 83166  1  0  0  0
 83167  1  0  0  0
 83168  1  0  0  0
 84169  1  0  0  0
 84170  1  0  0  0
 84171  1  0  0  0
 84 88  1  0  0  0
 85 88  1  0  0  0
 85172  1  0  0  0
 85173  1  0  0  0
 86 87  1  0  0  0
 86 91  1  0  0  0
 86174  1  0  0  0
 86175  1  0  0  0
 87176  1  0  0  0
 87177  1  0  0  0
 88178  1  0  0  0
 91179  1  0  0  0
M  ISO  4   1 100  68 101  87 101  90 100
M  END
> <chiral flag>
0

> <version>
0

> <s_m_source_file>
/data/baiqing/PycharmProjects/Reinvent-master-3.2/result/LINK_invent/BTK/process_docking_weight1_custom_sum_contain_oxygen_bond_distance_aromatic_linkinvent_7_9_3/rearranged_h_0142.sdf

> <i_m_source_file_index>
30

> <r_mmod_Potential_Energy-OPLS-2005>
-104.156280517578

> <r_mmod_Stretch_Energy-OPLS-2005>
36.9607734680176

> <r_mmod_Bend_Energy-OPLS-2005>
117.516822814941

> <r_mmod_Torsional_Energy-OPLS-2005>
353.196746826172

> <r_mmod_Improper_Torsional_Energy-OPLS-2005>
20.702600479126

> <r_mmod_Van_der_Waal_Energy-OPLS-2005>
168.860214233398

> <r_mmod_Electrostatic_Energy-OPLS-2005>
-595.791320800781

> <r_mmod_Solvation_Energy-OPLS-2005>
-219.913238525391

> <b_mmod_Minimization_Converged-OPLS-2005>
0

> <r_mmod_RMS_Derivative-OPLS-2005>
2.14247441291809

$$$$
31
                    3D
 Structure written by MMmdl.
167176  0  0  1  0            999 V2000
  -30.7047  -14.4308   20.6084 C   0  0  0  0  0  0
  -30.4253  -12.2952   19.4120 C   0  0  0  0  0  0
  -29.4918  -12.5090   18.2014 C   0  0  0  0  0  0
  -28.0162  -12.3500   18.6157 C   0  0  0  0  0  0
  -27.6662  -13.1859   19.8755 C   0  0  2  0  0  0
  -28.7051  -12.9443   20.9962 C   0  0  0  0  0  0
  -25.2652  -13.8181   20.5592 C   0  0  0  0  0  0
  -24.1877  -13.0488   20.9149 C   0  0  0  0  0  0
  -24.6393  -11.6938   20.8731 C   0  0  0  0  0  0
  -23.9050  -10.4330   21.0407 C   0  0  0  0  0  0
  -24.3603   -9.4253   21.9182 C   0  0  0  0  0  0
  -23.6296   -8.2278   22.0743 C   0  0  0  0  0  0
  -22.4279   -8.0304   21.3537 C   0  0  0  0  0  0
  -21.9910   -9.0287   20.4649 C   0  0  0  0  0  0
  -22.7223  -10.2179   20.3065 C   0  0  0  0  0  0
  -21.6886   -6.0762   22.5276 C   0  0  0  0  0  0
  -21.4039   -6.5662   23.8214 C   0  0  0  0  0  0
  -21.3597   -5.6794   24.9151 C   0  0  0  0  0  0
  -21.6025   -4.3056   24.7204 C   0  0  0  0  0  0
  -21.8872   -3.8181   23.4342 C   0  0  0  0  0  0
  -21.9215   -4.6994   22.3391 C   0  0  0  0  0  0
  -22.7911  -13.5295   21.1788 C   0  0  0  0  0  0
  -22.1690   -4.2188   21.0970 F   0  0  0  0  0  0
  -21.5532   -3.4541   25.7718 F   0  0  0  0  0  0
  -30.0377  -13.2568   20.4540 N   0  0  0  0  0  0
  -26.3027  -12.9264   20.3321 N   0  0  0  0  0  0
  -25.9288  -11.6456   20.5718 N   0  0  0  0  0  0
  -22.0584  -12.8282   22.0360 N   0  0  0  0  0  0
  -25.4508  -15.1862   20.3880 N   0  0  0  0  0  0
  -31.8107  -14.6492   20.1059 O   0  0  0  0  0  0
  -21.6643   -6.8901   21.4245 O   0  0  0  0  0  0
  -22.3574  -14.5578   20.6642 O   0  0  0  0  0  0
  -24.6102  -31.8721   23.2091 C   0  0  0  0  0  0
  -25.9011  -32.4850   23.8386 C   0  0  1  0  0  0
  -27.2521  -27.4574   20.0990 C   0  0  0  0  0  0
  -25.5890  -33.8640   24.2344 N   0  0  0  0  0  0
  -23.3942  -30.4902   21.5518 C   0  0  2  0  0  0
  -24.8435  -28.9480   20.1191 C   0  0  0  0  0  0
  -22.7360  -29.4692   22.5038 C   0  0  0  0  0  0
  -18.0279  -28.1372   22.8518 C   0  0  0  0  0  0
  -24.1466  -36.7280   23.2639 C   0  0  0  0  0  0
  -25.9161  -30.8416   21.3544 C   0  0  0  0  0  0
  -25.9970  -29.4738   20.7102 C   0  0  0  0  0  0
  -27.1974  -28.7344   20.6977 C   0  0  0  0  0  0
  -26.0769  -26.9290   19.5147 C   0  0  0  0  0  0
  -24.8780  -27.6750   19.5204 C   0  0  0  0  0  0
  -23.6015  -29.8121   20.1681 C   0  0  0  0  0  0
  -25.4092  -36.3119   24.0350 C   0  0  1  0  0  0
  -20.5853  -28.3659   23.1339 C   0  0  2  0  0  0
  -20.6743  -26.9400   22.5422 C   0  0  0  0  0  0
  -19.5734  -26.6396   21.5195 C   0  0  0  0  0  0
  -18.1918  -26.7924   22.1629 C   0  0  0  0  0  0
  -19.1523  -28.8837   23.2939 C   0  0  0  0  0  0
  -18.9460  -30.1434   23.8945 C   0  0  0  0  0  0
  -17.6457  -30.6597   24.0567 C   0  0  0  0  0  0
  -25.9020  -34.9489   23.5140 C   0  0  0  0  0  0
  -16.5354  -29.9095   23.6318 C   0  0  0  0  0  0
  -16.7266  -28.6506   23.0357 C   0  0  0  0  0  0
  -26.4452  -31.6615   25.0687 C   0  0  0  0  0  0
  -25.3749  -31.3678   26.1459 C   0  0  0  0  0  0
  -27.0248  -30.3086   24.5957 C   0  0  0  0  0  0
  -27.6048  -32.4300   25.7438 C   0  0  0  0  0  0
  -27.5573  -37.1791   24.8478 C   0  0  0  0  0  0
  -21.4102  -29.3026   22.3750 N   0  0  0  0  0  0
  -26.4282  -37.3800   23.9430 N   0  0  0  0  0  0
  -24.6585  -31.0817   22.0988 N   0  0  0  0  0  0
  -23.4152  -28.8263   23.3092 O   0  0  0  0  0  0
  -28.4750  -26.8189   20.1089 O   0  0  0  0  0  0
  -26.5577  -34.8939   22.4696 O   0  0  0  0  0  0
  -23.5306  -32.1480   23.7501 O   0  0  0  0  0  0
  -28.0564  -20.0734   23.9469 C   0  0  0  0  0  0
  -27.5118  -19.1262   24.8347 C   0  0  0  0  0  0
  -27.9214  -17.3745   23.2027 C   0  0  0  0  0  0
  -28.5440  -19.6888   22.6776 C   0  0  0  0  0  0
  -28.5437  -18.3025   22.3382 C   0  0  0  0  0  0
  -27.3887  -17.7829   24.4439 C   0  0  0  0  0  0
  -28.1716  -20.9007   20.4595 C   0  0  0  0  0  0
  -29.0036  -20.7613   21.7125 C   0  0  1  0  0  0
  -28.2142  -22.0508   21.4311 C   0  0  1  0  0  0
  -25.6882  -16.1892   24.7212 C   0  0  0  0  0  0
  -29.1978  -17.7731   21.0603 C   0  0  0  0  0  0
  -30.3901  -16.8144   21.3135 C   0  0  0  0  0  0
  -28.1822  -24.4797   20.8322 C   0  0  0  0  0  0
  -28.6257  -25.4546   19.7170 C   0  0  0  0  0  0
  -30.0162  -15.3968   21.2426 N   0  0  0  0  0  0
  -28.9086  -23.1839   20.7697 N   0  3  0  0  0  0
  -26.7791  -16.8985   25.2960 O   0  0  0  0  0  0
  -31.4664  -12.4012   19.1047 H   0  0  0  0  0  0
  -30.3260  -11.2791   19.7965 H   0  0  0  0  0  0
  -29.7349  -11.7989   17.4093 H   0  0  0  0  0  0
  -29.6477  -13.5026   17.7755 H   0  0  0  0  0  0
  -27.8340  -11.2905   18.8054 H   0  0  0  0  0  0
  -27.3625  -12.6182   17.7859 H   0  0  0  0  0  0
  -27.7236  -14.2342   19.5849 H   0  0  0  0  0  0
  -28.6864  -11.9008   21.3182 H   0  0  0  0  0  0
  -28.4606  -13.5217   21.8880 H   0  0  0  0  0  0
  -25.2753   -9.5722   22.4740 H   0  0  0  0  0  0
  -24.0017   -7.4675   22.7458 H   0  0  0  0  0  0
  -21.0834   -8.8833   19.8966 H   0  0  0  0  0  0
  -22.3687  -10.9723   19.6163 H   0  0  0  0  0  0
  -21.2128   -7.6187   23.9718 H   0  0  0  0  0  0
  -21.1290   -6.0516   25.9025 H   0  0  0  0  0  0
  -22.0729   -2.7675   23.2840 H   0  0  0  0  0  0
  -22.4234  -11.9952   22.4736 H   0  0  0  0  0  0
  -21.1267  -13.1388   22.2680 H   0  0  0  0  0  0
  -24.7026  -15.8625   20.4922 H   0  0  0  0  0  0
  -26.2889  -15.5899   19.9889 H   0  0  0  0  0  0
  -26.7068  -32.5584   23.1144 H   0  0  0  0  0  0
  -25.0062  -33.9811   25.0502 H   0  0  0  0  0  0
  -22.6826  -31.3053   21.4114 H   0  0  0  0  0  0
  -23.3762  -35.9585   23.3319 H   0  0  0  0  0  0
  -24.3543  -36.8865   22.2051 H   0  0  0  0  0  0
  -23.7181  -37.6470   23.6630 H   0  0  0  0  0  0
  -26.0054  -31.6020   20.5767 H   0  0  0  0  0  0
  -26.8097  -30.9127   21.9608 H   0  0  0  0  0  0
  -28.0893  -29.1500   21.1472 H   0  0  0  0  0  0
  -26.0706  -25.9550   19.0471 H   0  0  0  0  0  0
  -23.9910  -27.2597   19.0631 H   0  0  0  0  0  0
  -23.7010  -30.5814   19.4020 H   0  0  0  0  0  0
  -22.7259  -29.2272   19.8843 H   0  0  0  0  0  0
  -25.1265  -36.1978   25.0842 H   0  0  0  0  0  0
  -20.9971  -28.3199   24.1448 H   0  0  0  0  0  0
  -20.5577  -26.2272   23.3603 H   0  0  0  0  0  0
  -21.6625  -26.7408   22.1245 H   0  0  0  0  0  0
  -19.6869  -25.6299   21.1224 H   0  0  0  0  0  0
  -19.6648  -27.3208   20.6720 H   0  0  0  0  0  0
  -17.4166  -26.6698   21.4043 H   0  0  0  0  0  0
  -18.0342  -26.0045   22.9018 H   0  0  0  0  0  0
  -19.7931  -30.7250   24.2333 H   0  0  0  0  0  0
  -17.5015  -31.6285   24.5148 H   0  0  0  0  0  0
  -15.5350  -30.3027   23.7585 H   0  0  0  0  0  0
  -15.8673  -28.0831   22.7047 H   0  0  0  0  0  0
  -24.5946  -30.6992   25.7802 H   0  0  0  0  0  0
  -24.8924  -32.2822   26.4935 H   0  0  0  0  0  0
  -25.8169  -30.8854   27.0199 H   0  0  0  0  0  0
  -26.2783  -29.6921   24.0951 H   0  0  0  0  0  0
  -27.4019  -29.7224   25.4344 H   0  0  0  0  0  0
  -27.8603  -30.4450   23.9081 H   0  0  0  0  0  0
  -27.2718  -33.3622   26.2014 H   0  0  0  0  0  0
  -28.3866  -32.6833   25.0259 H   0  0  0  0  0  0
  -28.0702  -31.8412   26.5355 H   0  0  0  0  0  0
  -28.2598  -38.0075   24.7536 H   0  0  0  0  0  0
  -28.1056  -36.2621   24.6306 H   0  0  0  0  0  0
  -27.2288  -37.1441   25.8873 H   0  0  0  0  0  0
  -20.9254  -29.8749   21.6977 H   0  0  0  0  0  0
  -26.0174  -38.2866   24.1481 H   0  0  0  0  0  0
  -28.0727  -21.1121   24.2419 H   0  0  0  0  0  0
  -27.1471  -19.4380   25.8029 H   0  0  0  0  0  0
  -27.8727  -16.3329   22.9211 H   0  0  0  0  0  0
  -28.7118  -20.9840   19.5182 H   0  0  0  0  0  0
  -27.2437  -20.3352   20.4121 H   0  0  0  0  0  0
  -30.0901  -20.7833   21.6353 H   0  0  0  0  0  0
  -27.3158  -22.2961   21.9964 H   0  0  0  0  0  0
  -24.9279  -16.8843   24.3536 H   0  0  0  0  0  0
  -25.2177  -15.5659   25.4816 H   0  0  0  0  0  0
  -25.9947  -15.5388   23.9008 H   0  0  0  0  0  0
  -29.5802  -18.6051   20.4743 H   0  0  0  0  0  0
  -28.4382  -17.3135   20.4270 H   0  0  0  0  0  0
  -30.8732  -17.0305   22.2680 H   0  0  0  0  0  0
  -31.1463  -17.0207   20.5550 H   0  0  0  0  0  0
  -27.1050  -24.3258   20.7615 H   0  0  0  0  0  0
  -28.3789  -24.9193   21.8108 H   0  0  0  0  0  0
  -28.1608  -25.2435   18.7528 H   0  0  0  0  0  0
  -29.6961  -25.3306   19.5506 H   0  0  0  0  0  0
  -29.1253  -15.1315   21.6303 H   0  0  0  0  0  0
  -29.0138  -22.9310   19.8017 H   0  0  0  0  0  0
  -29.8370  -23.3047   21.1507 H   0  0  0  0  0  0
  1 25  1  0  0  0
  1 30  2  0  0  0
  1 85  1  0  0  0
  2  3  1  0  0  0
  2 25  1  0  0  0
  2 88  1  0  0  0
  2 89  1  0  0  0
  3  4  1  0  0  0
  3 90  1  0  0  0
  3 91  1  0  0  0
  4  5  1  0  0  0
  4 92  1  0  0  0
  4 93  1  0  0  0
  5  6  1  0  0  0
  5 26  1  0  0  0
  5 94  1  0  0  0
  6 25  1  0  0  0
  6 95  1  0  0  0
  6 96  1  0  0  0
  7  8  2  0  0  0
  7 26  1  0  0  0
  7 29  1  0  0  0
  8  9  1  0  0  0
  8 22  1  0  0  0
  9 10  1  0  0  0
  9 27  2  0  0  0
 10 11  2  0  0  0
 10 15  1  0  0  0
 11 12  1  0  0  0
 11 97  1  0  0  0
 12 13  2  0  0  0
 12 98  1  0  0  0
 13 14  1  0  0  0
 13 31  1  0  0  0
 14 15  2  0  0  0
 14 99  1  0  0  0
 15100  1  0  0  0
 16 17  2  0  0  0
 16 21  1  0  0  0
 16 31  1  0  0  0
 17 18  1  0  0  0
 17101  1  0  0  0
 18 19  2  0  0  0
 18102  1  0  0  0
 19 20  1  0  0  0
 19 24  1  0  0  0
 20 21  2  0  0  0
 20103  1  0  0  0
 21 23  1  0  0  0
 22 28  1  0  0  0
 22 32  2  0  0  0
 26 27  1  0  0  0
 28104  1  0  0  0
 28105  1  0  0  0
 29106  1  0  0  0
 29107  1  0  0  0
 33 34  1  0  0  0
 33 66  1  0  0  0
 33 70  2  0  0  0
 34 36  1  0  0  0
 34 59  1  0  0  0
 34108  1  0  0  0
 35 44  2  0  0  0
 35 45  1  0  0  0
 35 68  1  0  0  0
 36 56  1  0  0  0
 36109  1  0  0  0
 37 39  1  0  0  0
 37 47  1  0  0  0
 37 66  1  0  0  0
 37110  1  0  0  0
 38 43  2  0  0  0
 38 46  1  0  0  0
 38 47  1  0  0  0
 39 64  1  0  0  0
 39 67  2  0  0  0
 40 52  1  0  0  0
 40 53  2  0  0  0
 40 58  1  0  0  0
 41111  1  0  0  0
 41112  1  0  0  0
 41113  1  0  0  0
 41 48  1  0  0  0
 42 43  1  0  0  0
 42 66  1  0  0  0
 42114  1  0  0  0
 42115  1  0  0  0
 43 44  1  0  0  0
 44116  1  0  0  0
 45 46  2  0  0  0
 45117  1  0  0  0
 46118  1  0  0  0
 47119  1  0  0  0
 47120  1  0  0  0
 48 56  1  0  0  0
 48 65  1  0  0  0
 48121  1  0  0  0
 49 50  1  0  0  0
 49 53  1  0  0  0
 49 64  1  0  0  0
 49122  1  0  0  0
 50 51  1  0  0  0
 50123  1  0  0  0
 50124  1  0  0  0
 51 52  1  0  0  0
 51125  1  0  0  0
 51126  1  0  0  0
 52127  1  0  0  0
 52128  1  0  0  0
 53 54  1  0  0  0
 54 55  2  0  0  0
 54129  1  0  0  0
 55 57  1  0  0  0
 55130  1  0  0  0
 56 69  2  0  0  0
 57 58  2  0  0  0
 57131  1  0  0  0
 58132  1  0  0  0
 59 60  1  0  0  0
 59 61  1  0  0  0
 59 62  1  0  0  0
 60133  1  0  0  0
 60134  1  0  0  0
 60135  1  0  0  0
 61136  1  0  0  0
 61137  1  0  0  0
 61138  1  0  0  0
 62139  1  0  0  0
 62140  1  0  0  0
 62141  1  0  0  0
 63 65  1  0  0  0
 63142  1  0  0  0
 63143  1  0  0  0
 63144  1  0  0  0
 64145  1  0  0  0
 65146  1  0  0  0
 68 84  1  0  0  0
 71 72  2  0  0  0
 71 74  1  0  0  0
 71147  1  0  0  0
 72 76  1  0  0  0
 72148  1  0  0  0
 73 75  1  0  0  0
 73 76  2  0  0  0
 73149  1  0  0  0
 74 75  2  0  0  0
 74 78  1  0  0  0
 75 81  1  0  0  0
 76 87  1  0  0  0
 77 78  1  0  0  0
 77 79  1  0  0  0
 77150  1  0  0  0
 77151  1  0  0  0
 78 79  1  0  0  0
 78152  1  0  0  0
 79 86  1  0  0  0
 79153  1  0  0  0
 80 87  1  0  0  0
 80154  1  0  0  0
 80155  1  0  0  0
 80156  1  0  0  0
 81 82  1  0  0  0
 81157  1  0  0  0
 81158  1  0  0  0
 82 85  1  0  0  0
 82159  1  0  0  0
 82160  1  0  0  0
 83 84  1  0  0  0
 83 86  1  0  0  0
 83161  1  0  0  0
 83162  1  0  0  0
 84163  1  0  0  0
 84164  1  0  0  0
 85165  1  0  0  0
 86166  1  0  0  0
 86167  1  0  0  0
M  CHG  1  86   1
M  ISO  4   1 100  68 101  84 101  85 100
M  END
> <chiral flag>
0

> <version>
0

> <s_m_source_file>
/data/baiqing/PycharmProjects/Reinvent-master-3.2/result/LINK_invent/BTK/process_docking_weight1_custom_sum_contain_oxygen_bond_distance_aromatic_linkinvent_7_9_3/rearranged_h_0142.sdf

> <i_m_source_file_index>
31

> <r_mmod_Potential_Energy-OPLS-2005>
-186.762344360352

> <r_mmod_Stretch_Energy-OPLS-2005>
36.5525512695312

> <r_mmod_Bend_Energy-OPLS-2005>
116.810234069824

> <r_mmod_Torsional_Energy-OPLS-2005>
280.017425537109

> <r_mmod_Improper_Torsional_Energy-OPLS-2005>
3.43842101097107

> <r_mmod_Van_der_Waal_Energy-OPLS-2005>
147.476226806641

> <r_mmod_Electrostatic_Energy-OPLS-2005>
-298.334686279297

> <r_mmod_Solvation_Energy-OPLS-2005>
-483.669006347656

> <b_mmod_Minimization_Converged-OPLS-2005>
0

> <r_mmod_RMS_Derivative-OPLS-2005>
4.35537624359131

$$$$
32
                    3D
 Structure written by MMmdl.
167176  0  0  1  0            999 V2000
  -30.4072  -15.3401   20.3819 C   0  0  0  0  0  0
  -30.4295  -12.8724   19.5139 C   0  0  0  0  0  0
  -29.5317  -12.5926   18.2835 C   0  0  0  0  0  0
  -28.0856  -12.3003   18.7181 C   0  0  0  0  0  0
  -27.6027  -13.2812   19.8148 C   0  0  2  0  0  0
  -28.6335  -13.4926   20.9415 C   0  0  0  0  0  0
  -25.2353  -13.8249   20.5754 C   0  0  0  0  0  0
  -24.1714  -13.0429   20.9271 C   0  0  0  0  0  0
  -24.6375  -11.6923   20.8762 C   0  0  0  0  0  0
  -23.9070  -10.4288   21.0403 C   0  0  0  0  0  0
  -24.3621   -9.4206   21.9179 C   0  0  0  0  0  0
  -23.6296   -8.2238   22.0751 C   0  0  0  0  0  0
  -22.4277   -8.0273   21.3536 C   0  0  0  0  0  0
  -21.9923   -9.0247   20.4641 C   0  0  0  0  0  0
  -22.7245  -10.2131   20.3050 C   0  0  0  0  0  0
  -21.6857   -6.0724   22.5273 C   0  0  0  0  0  0
  -21.4016   -6.5630   23.8205 C   0  0  0  0  0  0
  -21.3665   -5.6785   24.9165 C   0  0  0  0  0  0
  -21.6051   -4.3046   24.7222 C   0  0  0  0  0  0
  -21.8819   -3.8136   23.4342 C   0  0  0  0  0  0
  -21.9195   -4.6950   22.3399 C   0  0  0  0  0  0
  -22.7736  -13.5180   21.1911 C   0  0  0  0  0  0
  -22.1661   -4.2136   21.0973 F   0  0  0  0  0  0
  -21.5639   -3.4530   25.7737 F   0  0  0  0  0  0
  -29.8413  -14.0298   20.2932 N   0  0  0  0  0  0
  -26.2770  -12.9535   20.3197 N   0  0  0  0  0  0
  -25.9310  -11.6626   20.5691 N   0  0  0  0  0  0
  -22.0394  -12.8163   22.0472 N   0  0  0  0  0  0
  -25.3961  -15.1984   20.4194 N   0  0  0  0  0  0
  -31.6382  -15.3032   20.2186 O   0  0  0  0  0  0
  -21.6641   -6.8864   21.4232 O   0  0  0  0  0  0
  -22.3411  -14.5475   20.6746 O   0  0  0  0  0  0
  -24.6673  -31.8175   23.1678 C   0  0  0  0  0  0
  -25.9331  -32.4553   23.8161 C   0  0  1  0  0  0
  -27.2138  -26.8748   20.1851 C   0  0  0  0  0  0
  -25.5968  -33.8362   24.2054 N   0  0  0  0  0  0
  -23.4850  -30.4248   21.5167 C   0  0  2  0  0  0
  -24.9390  -28.8058   20.1071 C   0  0  0  0  0  0
  -22.7706  -29.4373   22.4765 C   0  0  0  0  0  0
  -18.0326  -28.1396   22.8448 C   0  0  0  0  0  0
  -24.1492  -36.7197   23.2647 C   0  0  0  0  0  0
  -26.0558  -30.6035   21.4100 C   0  0  0  0  0  0
  -26.1206  -29.1892   20.7523 C   0  0  0  0  0  0
  -27.2478  -28.2431   20.7698 C   0  0  0  0  0  0
  -26.0093  -26.6610   19.4782 C   0  0  0  0  0  0
  -24.9123  -27.5643   19.4495 C   0  0  0  0  0  0
  -23.7276  -29.7402   20.1439 C   0  0  0  0  0  0
  -25.4141  -36.2947   24.0294 C   0  0  1  0  0  0
  -20.5950  -28.3754   23.1166 C   0  0  2  0  0  0
  -20.6803  -26.9422   22.5397 C   0  0  0  0  0  0
  -19.5779  -26.6358   21.5200 C   0  0  0  0  0  0
  -18.1957  -26.7924   22.1599 C   0  0  0  0  0  0
  -19.1588  -28.8897   23.2788 C   0  0  0  0  0  0
  -18.9501  -30.1479   23.8836 C   0  0  0  0  0  0
  -17.6495  -30.6586   24.0533 C   0  0  0  0  0  0
  -25.9108  -34.9326   23.5008 C   0  0  0  0  0  0
  -16.5383  -29.9068   23.6332 C   0  0  0  0  0  0
  -16.7303  -28.6486   23.0358 C   0  0  0  0  0  0
  -26.4558  -31.6522   25.0729 C   0  0  0  0  0  0
  -25.3668  -31.3769   26.1372 C   0  0  0  0  0  0
  -27.0490  -30.2886   24.6526 C   0  0  0  0  0  0
  -27.6036  -32.4363   25.7524 C   0  0  0  0  0  0
  -27.5581  -37.1753   24.8464 C   0  0  0  0  0  0
  -21.4369  -29.3028   22.3531 N   0  0  0  0  0  0
  -26.4291  -37.3693   23.9407 N   0  0  0  0  0  0
  -24.7568  -30.9786   22.0845 N   0  0  0  0  0  0
  -23.4228  -28.7953   23.3026 O   0  0  0  0  0  0
  -28.1978  -25.7419   20.3021 O   0  0  0  0  0  0
  -26.5740  -34.8872   22.4614 O   0  0  0  0  0  0
  -23.5737  -32.1173   23.6732 O   0  0  0  0  0  0
  -30.4670  -20.7518   21.2971 C   0  0  0  0  0  0
  -29.6325  -19.7293   20.7084 C   0  0  0  0  0  0
  -31.5240  -20.3667   22.1661 C   0  0  0  0  0  0
  -31.5750  -19.0462   22.6545 C   0  0  0  0  0  0
  -29.9786  -18.1753   20.9202 C   0  0  0  0  0  0
  -30.8087  -18.0161   22.0732 C   0  0  0  0  0  0
  -28.5432  -20.8041   20.0245 C   0  0  0  0  0  0
  -28.6673  -22.4788   20.5368 C   0  0  1  0  0  0
  -30.1638  -22.2942   20.9388 C   0  0  0  0  0  0
  -32.6060  -21.3348   22.6359 C   0  0  0  0  0  0
  -32.4791  -18.7043   23.8419 C   0  0  0  0  0  0
  -30.3872  -23.3035   22.0955 C   0  0  0  0  0  0
  -31.0229  -22.6902   19.7196 C   0  0  0  0  0  0
  -29.7826  -16.5617   23.5901 C   0  0  0  0  0  0
  -28.0764  -24.1136   19.9145 C   0  0  0  0  0  0
  -29.6637  -16.6571   20.3944 N   0  0  0  0  0  0
  -30.8819  -16.8029   22.7163 O   0  0  0  0  0  0
  -31.4397  -13.0958   19.1689 H   0  0  0  0  0  0
  -30.5217  -11.9825   20.1395 H   0  0  0  0  0  0
  -29.9270  -11.7604   17.6991 H   0  0  0  0  0  0
  -29.5451  -13.4619   17.6255 H   0  0  0  0  0  0
  -28.0558  -11.2799   19.1009 H   0  0  0  0  0  0
  -27.4159  -12.3250   17.8583 H   0  0  0  0  0  0
  -27.5015  -14.2382   19.3007 H   0  0  0  0  0  0
  -28.8283  -12.5699   21.4911 H   0  0  0  0  0  0
  -28.2560  -14.2176   21.6648 H   0  0  0  0  0  0
  -25.2769   -9.5684   22.4764 H   0  0  0  0  0  0
  -24.0001   -7.4631   22.7485 H   0  0  0  0  0  0
  -21.0850   -8.8767   19.8955 H   0  0  0  0  0  0
  -22.3696  -10.9662   19.6171 H   0  0  0  0  0  0
  -21.1999   -7.6138   23.9704 H   0  0  0  0  0  0
  -21.1496   -6.0514   25.9074 H   0  0  0  0  0  0
  -22.0597   -2.7596   23.2848 H   0  0  0  0  0  0
  -22.4027  -11.9823   22.4867 H   0  0  0  0  0  0
  -21.1007  -13.1163   22.2668 H   0  0  0  0  0  0
  -24.6233  -15.8453   20.5342 H   0  0  0  0  0  0
  -26.2329  -15.6444   20.0676 H   0  0  0  0  0  0
  -26.7412  -32.5072   23.0889 H   0  0  0  0  0  0
  -24.9996  -33.9414   25.0127 H   0  0  0  0  0  0
  -22.7986  -31.2566   21.3464 H   0  0  0  0  0  0
  -23.3772  -35.9508   23.3272 H   0  0  0  0  0  0
  -24.3549  -36.8902   22.2068 H   0  0  0  0  0  0
  -23.7226  -37.6357   23.6747 H   0  0  0  0  0  0
  -26.2468  -31.3446   20.6326 H   0  0  0  0  0  0
  -26.9102  -30.6586   22.0731 H   0  0  0  0  0  0
  -28.1352  -28.5276   21.3177 H   0  0  0  0  0  0
  -25.8748  -25.7158   18.9729 H   0  0  0  0  0  0
  -24.0157  -27.2652   18.9216 H   0  0  0  0  0  0
  -23.8885  -30.5087   19.3876 H   0  0  0  0  0  0
  -22.8363  -29.1984   19.8249 H   0  0  0  0  0  0
  -25.1337  -36.1749   25.0790 H   0  0  0  0  0  0
  -21.0010  -28.3365   24.1300 H   0  0  0  0  0  0
  -20.5652  -26.2373   23.3642 H   0  0  0  0  0  0
  -21.6666  -26.7376   22.1218 H   0  0  0  0  0  0
  -19.6924  -25.6251   21.1273 H   0  0  0  0  0  0
  -19.6719  -27.3130   20.6699 H   0  0  0  0  0  0
  -17.4226  -26.6653   21.4007 H   0  0  0  0  0  0
  -18.0348  -26.0085   22.9014 H   0  0  0  0  0  0
  -19.7983  -30.7288   24.2188 H   0  0  0  0  0  0
  -17.5058  -31.6256   24.5152 H   0  0  0  0  0  0
  -15.5377  -30.2953   23.7702 H   0  0  0  0  0  0
  -15.8706  -28.0780   22.7122 H   0  0  0  0  0  0
  -24.5880  -30.7082   25.7681 H   0  0  0  0  0  0
  -24.8806  -32.2953   26.4673 H   0  0  0  0  0  0
  -25.7897  -30.9023   27.0241 H   0  0  0  0  0  0
  -26.3186  -29.6516   24.1530 H   0  0  0  0  0  0
  -27.3984  -29.7308   25.5224 H   0  0  0  0  0  0
  -27.9142  -30.4046   23.9998 H   0  0  0  0  0  0
  -27.2598  -33.3733   26.1931 H   0  0  0  0  0  0
  -28.3930  -32.6826   25.0405 H   0  0  0  0  0  0
  -28.0623  -31.8613   26.5583 H   0  0  0  0  0  0
  -28.2567  -38.0083   24.7547 H   0  0  0  0  0  0
  -28.1122  -36.2614   24.6274 H   0  0  0  0  0  0
  -27.2294  -37.1358   25.8864 H   0  0  0  0  0  0
  -20.9649  -29.8721   21.6648 H   0  0  0  0  0  0
  -26.0144  -38.2751   24.1429 H   0  0  0  0  0  0
  -27.5305  -20.4444   20.2059 H   0  0  0  0  0  0
  -28.6866  -20.7541   18.9443 H   0  0  0  0  0  0
  -28.1256  -22.4277   21.4820 H   0  0  0  0  0  0
  -32.8747  -22.0485   21.8625 H   0  0  0  0  0  0
  -33.5417  -20.8253   22.8575 H   0  0  0  0  0  0
  -32.2969  -21.8630   23.5367 H   0  0  0  0  0  0
  -33.4714  -18.4135   23.4976 H   0  0  0  0  0  0
  -32.0900  -17.8907   24.4539 H   0  0  0  0  0  0
  -32.5811  -19.5452   24.5278 H   0  0  0  0  0  0
  -29.9264  -22.9576   23.0212 H   0  0  0  0  0  0
  -29.9428  -24.2704   21.8591 H   0  0  0  0  0  0
  -31.4257  -23.5422   22.2961 H   0  0  0  0  0  0
  -30.7532  -22.1066   18.8386 H   0  0  0  0  0  0
  -32.0844  -22.5242   19.8887 H   0  0  0  0  0  0
  -30.8963  -23.7418   19.4612 H   0  0  0  0  0  0
  -29.9099  -15.5952   24.0795 H   0  0  0  0  0  0
  -28.8340  -16.5434   23.0521 H   0  0  0  0  0  0
  -29.7158  -17.3236   24.3683 H   0  0  0  0  0  0
  -26.9995  -23.9626   19.8528 H   0  0  0  0  0  0
  -28.3925  -24.1143   18.8725 H   0  0  0  0  0  0
  -28.6999  -16.5340   20.1231 H   0  0  0  0  0  0
  1 25  1  0  0  0
  1 30  2  0  0  0
  1 86  1  0  0  0
  2  3  1  0  0  0
  2 25  1  0  0  0
  2 88  1  0  0  0
  2 89  1  0  0  0
  3  4  1  0  0  0
  3 90  1  0  0  0
  3 91  1  0  0  0
  4  5  1  0  0  0
  4 92  1  0  0  0
  4 93  1  0  0  0
  5  6  1  0  0  0
  5 26  1  0  0  0
  5 94  1  0  0  0
  6 25  1  0  0  0
  6 95  1  0  0  0
  6 96  1  0  0  0
  7  8  2  0  0  0
  7 26  1  0  0  0
  7 29  1  0  0  0
  8  9  1  0  0  0
  8 22  1  0  0  0
  9 10  1  0  0  0
  9 27  2  0  0  0
 10 11  2  0  0  0
 10 15  1  0  0  0
 11 12  1  0  0  0
 11 97  1  0  0  0
 12 13  2  0  0  0
 12 98  1  0  0  0
 13 14  1  0  0  0
 13 31  1  0  0  0
 14 15  2  0  0  0
 14 99  1  0  0  0
 15100  1  0  0  0
 16 17  2  0  0  0
 16 21  1  0  0  0
 16 31  1  0  0  0
 17 18  1  0  0  0
 17101  1  0  0  0
 18 19  2  0  0  0
 18102  1  0  0  0
 19 20  1  0  0  0
 19 24  1  0  0  0
 20 21  2  0  0  0
 20103  1  0  0  0
 21 23  1  0  0  0
 22 28  1  0  0  0
 22 32  2  0  0  0
 26 27  1  0  0  0
 28104  1  0  0  0
 28105  1  0  0  0
 29106  1  0  0  0
 29107  1  0  0  0
 33 34  1  0  0  0
 33 66  1  0  0  0
 33 70  2  0  0  0
 34 36  1  0  0  0
 34 59  1  0  0  0
 34108  1  0  0  0
 35 44  2  0  0  0
 35 45  1  0  0  0
 35 68  1  0  0  0
 36 56  1  0  0  0
 36109  1  0  0  0
 37 39  1  0  0  0
 37 47  1  0  0  0
 37 66  1  0  0  0
 37110  1  0  0  0
 38 43  2  0  0  0
 38 46  1  0  0  0
 38 47  1  0  0  0
 39 64  1  0  0  0
 39 67  2  0  0  0
 40 52  1  0  0  0
 40 53  2  0  0  0
 40 58  1  0  0  0
 41111  1  0  0  0
 41112  1  0  0  0
 41113  1  0  0  0
 41 48  1  0  0  0
 42 43  1  0  0  0
 42 66  1  0  0  0
 42114  1  0  0  0
 42115  1  0  0  0
 43 44  1  0  0  0
 44116  1  0  0  0
 45 46  2  0  0  0
 45117  1  0  0  0
 46118  1  0  0  0
 47119  1  0  0  0
 47120  1  0  0  0
 48 56  1  0  0  0
 48 65  1  0  0  0
 48121  1  0  0  0
 49 50  1  0  0  0
 49 53  1  0  0  0
 49 64  1  0  0  0
 49122  1  0  0  0
 50 51  1  0  0  0
 50123  1  0  0  0
 50124  1  0  0  0
 51 52  1  0  0  0
 51125  1  0  0  0
 51126  1  0  0  0
 52127  1  0  0  0
 52128  1  0  0  0
 53 54  1  0  0  0
 54 55  2  0  0  0
 54129  1  0  0  0
 55 57  1  0  0  0
 55130  1  0  0  0
 56 69  2  0  0  0
 57 58  2  0  0  0
 57131  1  0  0  0
 58132  1  0  0  0
 59 60  1  0  0  0
 59 61  1  0  0  0
 59 62  1  0  0  0
 60133  1  0  0  0
 60134  1  0  0  0
 60135  1  0  0  0
 61136  1  0  0  0
 61137  1  0  0  0
 61138  1  0  0  0
 62139  1  0  0  0
 62140  1  0  0  0
 62141  1  0  0  0
 63 65  1  0  0  0
 63142  1  0  0  0
 63143  1  0  0  0
 63144  1  0  0  0
 64145  1  0  0  0
 65146  1  0  0  0
 68 85  1  0  0  0
 71 72  1  0  0  0
 71 73  2  0  0  0
 71 79  1  0  0  0
 72 75  2  0  0  0
 72 77  1  0  0  0
 73 74  1  0  0  0
 73 80  1  0  0  0
 74 76  2  0  0  0
 74 81  1  0  0  0
 75 76  1  0  0  0
 75 86  1  0  0  0
 76 87  1  0  0  0
 77 78  1  0  0  0
 77147  1  0  0  0
 77148  1  0  0  0
 78 79  1  0  0  0
 78 85  1  0  0  0
 78149  1  0  0  0
 79 82  1  0  0  0
 79 83  1  0  0  0
 80150  1  0  0  0
 80151  1  0  0  0
 80152  1  0  0  0
 81153  1  0  0  0
 81154  1  0  0  0
 81155  1  0  0  0
 82156  1  0  0  0
 82157  1  0  0  0
 82158  1  0  0  0
 83159  1  0  0  0
 83160  1  0  0  0
 83161  1  0  0  0
 84 87  1  0  0  0
 84162  1  0  0  0
 84163  1  0  0  0
 84164  1  0  0  0
 85165  1  0  0  0
 85166  1  0  0  0
 86167  1  0  0  0
M  ISO  4   1 100  68 101  85 101  86 100
M  END
> <chiral flag>
0

> <version>
0

> <s_m_source_file>
/data/baiqing/PycharmProjects/Reinvent-master-3.2/result/LINK_invent/BTK/process_docking_weight1_custom_sum_contain_oxygen_bond_distance_aromatic_linkinvent_7_9_3/rearranged_h_0142.sdf

> <i_m_source_file_index>
32

> <r_mmod_Potential_Energy-OPLS-2005>
1650.234375

> <r_mmod_Stretch_Energy-OPLS-2005>
682.864074707031

> <r_mmod_Bend_Energy-OPLS-2005>
595.321044921875

> <r_mmod_Torsional_Energy-OPLS-2005>
315.677673339844

> <r_mmod_Improper_Torsional_Energy-OPLS-2005>
6.56435918807983

> <r_mmod_Van_der_Waal_Energy-OPLS-2005>
156.928161621094

> <r_mmod_Electrostatic_Energy-OPLS-2005>
-435.4052734375

> <r_mmod_Solvation_Energy-OPLS-2005>
-216.4482421875

> <b_mmod_Minimization_Converged-OPLS-2005>
0

> <r_mmod_RMS_Derivative-OPLS-2005>
2.24202728271484

$$$$
33
                    3D
 Structure written by MMmdl.
172182  0  0  1  0            999 V2000
  -30.6181  -14.8007   20.4105 C   0  0  0  0  0  0
  -30.4328  -12.4711   19.4845 C   0  0  0  0  0  0
  -29.5102  -12.3894   18.2488 C   0  0  0  0  0  0
  -28.0300  -12.2789   18.6624 C   0  0  0  0  0  0
  -27.6315  -13.2295   19.8228 C   0  0  2  0  0  0
  -28.6787  -13.2366   20.9551 C   0  0  0  0  0  0
  -25.2516  -13.8202   20.5685 C   0  0  0  0  0  0
  -24.1813  -13.0445   20.9215 C   0  0  0  0  0  0
  -24.6396  -11.6916   20.8762 C   0  0  0  0  0  0
  -23.9071  -10.4292   21.0409 C   0  0  0  0  0  0
  -24.3625   -9.4196   21.9175 C   0  0  0  0  0  0
  -23.6315   -8.2218   22.0740 C   0  0  0  0  0  0
  -22.4285   -8.0270   21.3542 C   0  0  0  0  0  0
  -21.9918   -9.0238   20.4641 C   0  0  0  0  0  0
  -22.7241  -10.2123   20.3056 C   0  0  0  0  0  0
  -21.6852   -6.0733   22.5278 C   0  0  0  0  0  0
  -21.4016   -6.5645   23.8208 C   0  0  0  0  0  0
  -21.3654   -5.6796   24.9177 C   0  0  0  0  0  0
  -21.6034   -4.3060   24.7221 C   0  0  0  0  0  0
  -21.8832   -3.8150   23.4344 C   0  0  0  0  0  0
  -21.9201   -4.6959   22.3405 C   0  0  0  0  0  0
  -22.7833  -13.5224   21.1853 C   0  0  0  0  0  0
  -22.1678   -4.2143   21.0980 F   0  0  0  0  0  0
  -21.5612   -3.4538   25.7733 F   0  0  0  0  0  0
  -29.9620  -13.5867   20.3421 N   0  0  0  0  0  0
  -26.2906  -12.9402   20.3194 N   0  0  0  0  0  0
  -25.9317  -11.6557   20.5768 N   0  0  0  0  0  0
  -22.0507  -12.8226   22.0445 N   0  0  0  0  0  0
  -25.4261  -15.1917   20.4107 N   0  0  0  0  0  0
  -31.8373  -14.8062   20.2037 O   0  0  0  0  0  0
  -21.6637   -6.8873   21.4239 O   0  0  0  0  0  0
  -22.3501  -14.5514   20.6687 O   0  0  0  0  0  0
  -24.6350  -31.8537   23.1947 C   0  0  0  0  0  0
  -25.9151  -32.4742   23.8317 C   0  0  1  0  0  0
  -27.2128  -27.2243   20.1511 C   0  0  0  0  0  0
  -25.5952  -33.8556   24.2252 N   0  0  0  0  0  0
  -23.4337  -30.4721   21.5411 C   0  0  2  0  0  0
  -24.8837  -28.9187   20.1059 C   0  0  0  0  0  0
  -22.7536  -29.4568   22.4935 C   0  0  0  0  0  0
  -18.0299  -28.1420   22.8483 C   0  0  0  0  0  0
  -24.1486  -36.7279   23.2642 C   0  0  0  0  0  0
  -25.9833  -30.7543   21.3825 C   0  0  0  0  0  0
  -26.0515  -29.3710   20.7304 C   0  0  0  0  0  0
  -27.2198  -28.5366   20.7432 C   0  0  0  0  0  0
  -26.0318  -26.8604   19.4669 C   0  0  0  0  0  0
  -24.8804  -27.6746   19.4561 C   0  0  0  0  0  0
  -23.6536  -29.8083   20.1549 C   0  0  0  0  0  0
  -25.4119  -36.3064   24.0329 C   0  0  1  0  0  0
  -20.5902  -28.3711   23.1312 C   0  0  2  0  0  0
  -20.6810  -26.9436   22.5434 C   0  0  0  0  0  0
  -19.5770  -26.6401   21.5255 C   0  0  0  0  0  0
  -18.1939  -26.7957   22.1632 C   0  0  0  0  0  0
  -19.1553  -28.8896   23.2871 C   0  0  0  0  0  0
  -18.9467  -30.1505   23.8865 C   0  0  0  0  0  0
  -17.6459  -30.6602   24.0584 C   0  0  0  0  0  0
  -25.9069  -34.9436   23.5092 C   0  0  0  0  0  0
  -16.5353  -29.9102   23.6334 C   0  0  0  0  0  0
  -16.7279  -28.6537   23.0317 C   0  0  0  0  0  0
  -26.4498  -31.6555   25.0698 C   0  0  0  0  0  0
  -25.3717  -31.3760   26.1423 C   0  0  0  0  0  0
  -27.0316  -30.2956   24.6179 C   0  0  0  0  0  0
  -27.6094  -32.4263   25.7425 C   0  0  0  0  0  0
  -27.5573  -37.1793   24.8468 C   0  0  0  0  0  0
  -21.4240  -29.3023   22.3685 N   0  0  0  0  0  0
  -26.4289  -37.3766   23.9408 N   0  0  0  0  0  0
  -24.7027  -31.0473   22.0938 N   0  0  0  0  0  0
  -23.4222  -28.8131   23.3064 O   0  0  0  0  0  0
  -28.2835  -26.2939   20.2058 O   0  0  0  0  0  0
  -26.5635  -34.8926   22.4652 O   0  0  0  0  0  0
  -23.5488  -32.1380   23.7212 O   0  0  0  0  0  0
  -29.0211  -19.7311   21.1288 C   0  0  0  0  0  0
  -29.8089  -20.7953   19.1009 C   0  0  0  0  0  0
  -29.4381  -18.4378   20.6218 C   0  0  0  0  0  0
  -29.9738  -18.3424   19.3562 C   0  0  0  0  0  0
  -30.2114  -19.5203   18.5865 C   0  0  0  0  0  0
  -29.1726  -20.9598   20.3628 C   0  0  0  0  0  0
  -29.3995  -16.9931   21.2245 C   0  0  0  0  0  0
  -27.2587  -17.8722   17.0330 C   0  0  0  0  0  0
  -26.8528  -16.4299   16.8582 C   0  0  0  0  0  0
  -30.1990  -16.8536   18.9957 C   0  0  2  0  0  0
  -27.8499  -16.8025   17.9292 C   0  0  0  0  0  0
  -32.6360  -22.6456   16.5391 C   0  0  0  0  0  0
  -30.8867  -19.4027   17.2164 C   0  0  0  0  0  0
  -29.3116  -16.3902   17.8115 C   0  0  0  0  0  0
  -31.2611  -20.7119   16.4839 C   0  0  0  0  0  0
  -27.9905  -24.8411   20.5563 C   0  0  0  0  0  0
  -28.9850  -23.5811   20.2287 C   0  0  0  0  0  0
  -29.8977  -15.9915   20.1967 N   0  0  0  0  0  0
  -28.6879  -22.2300   20.8315 O   0  0  0  0  0  0
  -32.1717  -21.4995   17.2447 O   0  0  0  0  0  0
  -31.4656  -12.6052   19.1569 H   0  0  0  0  0  0
  -30.4132  -11.5306   20.0389 H   0  0  0  0  0  0
  -29.7796  -11.5141   17.6542 H   0  0  0  0  0  0
  -29.6659  -13.2379   17.5914 H   0  0  0  0  0  0
  -27.8726  -11.2458   18.9737 H   0  0  0  0  0  0
  -27.3771  -12.4301   17.8009 H   0  0  0  0  0  0
  -27.6061  -14.2287   19.3912 H   0  0  0  0  0  0
  -28.7324  -12.2640   21.4459 H   0  0  0  0  0  0
  -28.4093  -13.9663   21.7206 H   0  0  0  0  0  0
  -25.2781   -9.5653   22.4740 H   0  0  0  0  0  0
  -24.0009   -7.4604   22.7466 H   0  0  0  0  0  0
  -21.0833   -8.8756   19.8980 H   0  0  0  0  0  0
  -22.3690  -10.9649   19.6159 H   0  0  0  0  0  0
  -21.2018   -7.6151   23.9713 H   0  0  0  0  0  0
  -21.1461   -6.0525   25.9080 H   0  0  0  0  0  0
  -22.0625   -2.7605   23.2839 H   0  0  0  0  0  0
  -22.4163  -11.9893   22.4808 H   0  0  0  0  0  0
  -21.1116  -13.1218   22.2646 H   0  0  0  0  0  0
  -24.6669  -15.8539   20.5257 H   0  0  0  0  0  0
  -26.2836  -15.6194   20.0872 H   0  0  0  0  0  0
  -26.7222  -32.5370   23.1074 H   0  0  0  0  0  0
  -25.0130  -33.9713   25.0415 H   0  0  0  0  0  0
  -22.7276  -31.2938   21.3979 H   0  0  0  0  0  0
  -23.3758  -35.9591   23.3264 H   0  0  0  0  0  0
  -24.3616  -36.8922   22.2064 H   0  0  0  0  0  0
  -23.7204  -37.6465   23.6683 H   0  0  0  0  0  0
  -26.1303  -31.5041   20.6046 H   0  0  0  0  0  0
  -26.8593  -30.8103   22.0169 H   0  0  0  0  0  0
  -28.1082  -28.8756   21.2560 H   0  0  0  0  0  0
  -25.9864  -25.9279   18.9252 H   0  0  0  0  0  0
  -23.9973  -27.3369   18.9343 H   0  0  0  0  0  0
  -23.7860  -30.5902   19.4059 H   0  0  0  0  0  0
  -22.7679  -29.2507   19.8419 H   0  0  0  0  0  0
  -25.1292  -36.1909   25.0818 H   0  0  0  0  0  0
  -20.9989  -28.3277   24.1445 H   0  0  0  0  0  0
  -20.5815  -26.2307   23.3632 H   0  0  0  0  0  0
  -21.6670  -26.7530   22.1168 H   0  0  0  0  0  0
  -19.6943  -25.6323   21.1260 H   0  0  0  0  0  0
  -19.6710  -27.3239   20.6810 H   0  0  0  0  0  0
  -17.4239  -26.6729   21.3996 H   0  0  0  0  0  0
  -18.0295  -26.0133   22.9046 H   0  0  0  0  0  0
  -19.7948  -30.7346   24.2196 H   0  0  0  0  0  0
  -17.5008  -31.6266   24.5216 H   0  0  0  0  0  0
  -15.5349  -30.2985   23.7710 H   0  0  0  0  0  0
  -15.8677  -28.0870   22.6999 H   0  0  0  0  0  0
  -24.5877  -30.7110   25.7765 H   0  0  0  0  0  0
  -24.8934  -32.2965   26.4776 H   0  0  0  0  0  0
  -25.8027  -30.8969   27.0225 H   0  0  0  0  0  0
  -26.2870  -29.6711   24.1221 H   0  0  0  0  0  0
  -27.4026  -29.7201   25.4672 H   0  0  0  0  0  0
  -27.8751  -30.4225   23.9395 H   0  0  0  0  0  0
  -27.2762  -33.3630   26.1910 H   0  0  0  0  0  0
  -28.3923  -32.6686   25.0219 H   0  0  0  0  0  0
  -28.0730  -31.8411   26.5378 H   0  0  0  0  0  0
  -28.2603  -38.0077   24.7503 H   0  0  0  0  0  0
  -28.1049  -36.2613   24.6288 H   0  0  0  0  0  0
  -27.2320  -37.1429   25.8882 H   0  0  0  0  0  0
  -20.9466  -29.8709   21.6835 H   0  0  0  0  0  0
  -26.0154  -38.2834   24.1400 H   0  0  0  0  0  0
  -28.5705  -19.7812   22.1090 H   0  0  0  0  0  0
  -29.9737  -21.6730   18.4979 H   0  0  0  0  0  0
  -28.3774  -16.7424   21.5084 H   0  0  0  0  0  0
  -30.0160  -16.9475   22.1233 H   0  0  0  0  0  0
  -26.5367  -18.5569   17.4755 H   0  0  0  0  0  0
  -27.8726  -18.3012   16.2450 H   0  0  0  0  0  0
  -27.2237  -15.9102   15.9763 H   0  0  0  0  0  0
  -25.8565  -16.1406   17.1901 H   0  0  0  0  0  0
  -31.2480  -16.7445   18.7155 H   0  0  0  0  0  0
  -27.4609  -16.7556   18.9431 H   0  0  0  0  0  0
  -33.2431  -23.2632   17.2016 H   0  0  0  0  0  0
  -31.8149  -23.2657   16.1714 H   0  0  0  0  0  0
  -33.2651  -22.3642   15.6922 H   0  0  0  0  0  0
  -30.2233  -18.8445   16.5603 H   0  0  0  0  0  0
  -31.7853  -18.7965   17.3356 H   0  0  0  0  0  0
  -29.3507  -15.3100   17.7285 H   0  0  0  0  0  0
  -29.7097  -16.7488   16.8652 H   0  0  0  0  0  0
  -30.3611  -21.2893   16.2610 H   0  0  0  0  0  0
  -31.7157  -20.4594   15.5242 H   0  0  0  0  0  0
  -27.8463  -24.8456   21.6385 H   0  0  0  0  0  0
  -27.0155  -24.5400   20.1687 H   0  0  0  0  0  0
  -29.9876  -23.8479   20.5741 H   0  0  0  0  0  0
  -29.0592  -23.5047   19.1440 H   0  0  0  0  0  0
  1 25  1  0  0  0
  1 30  2  0  0  0
  1 88  1  0  0  0
  2  3  1  0  0  0
  2 25  1  0  0  0
  2 91  1  0  0  0
  2 92  1  0  0  0
  3  4  1  0  0  0
  3 93  1  0  0  0
  3 94  1  0  0  0
  4  5  1  0  0  0
  4 95  1  0  0  0
  4 96  1  0  0  0
  5  6  1  0  0  0
  5 26  1  0  0  0
  5 97  1  0  0  0
  6 25  1  0  0  0
  6 98  1  0  0  0
  6 99  1  0  0  0
  7  8  2  0  0  0
  7 26  1  0  0  0
  7 29  1  0  0  0
  8  9  1  0  0  0
  8 22  1  0  0  0
  9 10  1  0  0  0
  9 27  2  0  0  0
 10 11  2  0  0  0
 10 15  1  0  0  0
 11 12  1  0  0  0
 11100  1  0  0  0
 12 13  2  0  0  0
 12101  1  0  0  0
 13 14  1  0  0  0
 13 31  1  0  0  0
 14 15  2  0  0  0
 14102  1  0  0  0
 15103  1  0  0  0
 16 17  2  0  0  0
 16 21  1  0  0  0
 16 31  1  0  0  0
 17 18  1  0  0  0
 17104  1  0  0  0
 18 19  2  0  0  0
 18105  1  0  0  0
 19 20  1  0  0  0
 19 24  1  0  0  0
 20 21  2  0  0  0
 20106  1  0  0  0
 21 23  1  0  0  0
 22 28  1  0  0  0
 22 32  2  0  0  0
 26 27  1  0  0  0
 28107  1  0  0  0
 28108  1  0  0  0
 29109  1  0  0  0
 29110  1  0  0  0
 33 34  1  0  0  0
 33 66  1  0  0  0
 33 70  2  0  0  0
 34 36  1  0  0  0
 34 59  1  0  0  0
 34111  1  0  0  0
 35 44  2  0  0  0
 35 45  1  0  0  0
 35 68  1  0  0  0
 36 56  1  0  0  0
 36112  1  0  0  0
 37 39  1  0  0  0
 37 47  1  0  0  0
 37 66  1  0  0  0
 37113  1  0  0  0
 38 43  2  0  0  0
 38 46  1  0  0  0
 38 47  1  0  0  0
 39 64  1  0  0  0
 39 67  2  0  0  0
 40 52  1  0  0  0
 40 53  2  0  0  0
 40 58  1  0  0  0
 41114  1  0  0  0
 41115  1  0  0  0
 41116  1  0  0  0
 41 48  1  0  0  0
 42 43  1  0  0  0
 42 66  1  0  0  0
 42117  1  0  0  0
 42118  1  0  0  0
 43 44  1  0  0  0
 44119  1  0  0  0
 45 46  2  0  0  0
 45120  1  0  0  0
 46121  1  0  0  0
 47122  1  0  0  0
 47123  1  0  0  0
 48 56  1  0  0  0
 48 65  1  0  0  0
 48124  1  0  0  0
 49 50  1  0  0  0
 49 53  1  0  0  0
 49 64  1  0  0  0
 49125  1  0  0  0
 50 51  1  0  0  0
 50126  1  0  0  0
 50127  1  0  0  0
 51 52  1  0  0  0
 51128  1  0  0  0
 51129  1  0  0  0
 52130  1  0  0  0
 52131  1  0  0  0
 53 54  1  0  0  0
 54 55  2  0  0  0
 54132  1  0  0  0
 55 57  1  0  0  0
 55133  1  0  0  0
 56 69  2  0  0  0
 57 58  2  0  0  0
 57134  1  0  0  0
 58135  1  0  0  0
 59 60  1  0  0  0
 59 61  1  0  0  0
 59 62  1  0  0  0
 60136  1  0  0  0
 60137  1  0  0  0
 60138  1  0  0  0
 61139  1  0  0  0
 61140  1  0  0  0
 61141  1  0  0  0
 62142  1  0  0  0
 62143  1  0  0  0
 62144  1  0  0  0
 63 65  1  0  0  0
 63145  1  0  0  0
 63146  1  0  0  0
 63147  1  0  0  0
 64148  1  0  0  0
 65149  1  0  0  0
 68 86  1  0  0  0
 71 73  2  0  0  0
 71 76  1  0  0  0
 71150  1  0  0  0
 72 75  1  0  0  0
 72 76  2  0  0  0
 72151  1  0  0  0
 73 74  1  0  0  0
 73 77  1  0  0  0
 74 75  2  0  0  0
 74 80  1  0  0  0
 75 83  1  0  0  0
 76 89  1  0  0  0
 77 88  1  0  0  0
 77152  1  0  0  0
 77153  1  0  0  0
 78 79  1  0  0  0
 78 81  1  0  0  0
 78154  1  0  0  0
 78155  1  0  0  0
 79 81  1  0  0  0
 79156  1  0  0  0
 79157  1  0  0  0
 80 84  1  0  0  0
 80 88  1  0  0  0
 80158  1  0  0  0
 81 84  1  0  0  0
 81159  1  0  0  0
 82 90  1  0  0  0
 82160  1  0  0  0
 82161  1  0  0  0
 82162  1  0  0  0
 83 85  1  0  0  0
 83163  1  0  0  0
 83164  1  0  0  0
 84165  1  0  0  0
 84166  1  0  0  0
 85 90  1  0  0  0
 85167  1  0  0  0
 85168  1  0  0  0
 86 87  1  0  0  0
 86169  1  0  0  0
 86170  1  0  0  0
 87 89  1  0  0  0
 87171  1  0  0  0
 87172  1  0  0  0
M  ISO  4   1 100  68 101  86 101  88 100
M  END
> <chiral flag>
0

> <version>
0

> <s_m_source_file>
/data/baiqing/PycharmProjects/Reinvent-master-3.2/result/LINK_invent/BTK/process_docking_weight1_custom_sum_contain_oxygen_bond_distance_aromatic_linkinvent_7_9_3/rearranged_h_0142.sdf

> <i_m_source_file_index>
33

> <r_mmod_Potential_Energy-OPLS-2005>
468.445556640625

> <r_mmod_Stretch_Energy-OPLS-2005>
148.099304199219

> <r_mmod_Bend_Energy-OPLS-2005>
229.914047241211

> <r_mmod_Torsional_Energy-OPLS-2005>
336.207275390625

> <r_mmod_Improper_Torsional_Energy-OPLS-2005>
19.3170680999756

> <r_mmod_Van_der_Waal_Energy-OPLS-2005>
118.278442382812

> <r_mmod_Electrostatic_Energy-OPLS-2005>
-295.188079833984

> <r_mmod_Solvation_Energy-OPLS-2005>
-208.190994262695

> <b_mmod_Minimization_Converged-OPLS-2005>
0

> <r_mmod_RMS_Derivative-OPLS-2005>
4.14968681335449

$$$$
34
                    3D
 Structure written by MMmdl.
164173  0  0  1  0            999 V2000
  -30.6661  -14.4977   20.4744 C   0  0  0  0  0  0
  -30.4277  -12.2818   19.4523 C   0  0  0  0  0  0
  -29.5076  -12.4435   18.2215 C   0  0  0  0  0  0
  -28.0204  -12.3381   18.6221 C   0  0  0  0  0  0
  -27.6562  -13.1983   19.8623 C   0  0  2  0  0  0
  -28.6981  -13.0178   20.9900 C   0  0  0  0  0  0
  -25.2593  -13.8140   20.5673 C   0  0  0  0  0  0
  -24.1837  -13.0431   20.9180 C   0  0  0  0  0  0
  -24.6379  -11.6893   20.8744 C   0  0  0  0  0  0
  -23.9045  -10.4286   21.0419 C   0  0  0  0  0  0
  -24.3605   -9.4199   21.9190 C   0  0  0  0  0  0
  -23.6283   -8.2234   22.0756 C   0  0  0  0  0  0
  -22.4262   -8.0278   21.3548 C   0  0  0  0  0  0
  -21.9899   -9.0250   20.4647 C   0  0  0  0  0  0
  -22.7226  -10.2130   20.3059 C   0  0  0  0  0  0
  -21.6847   -6.0732   22.5279 C   0  0  0  0  0  0
  -21.4012   -6.5638   23.8213 C   0  0  0  0  0  0
  -21.3658   -5.6792   24.9176 C   0  0  0  0  0  0
  -21.6045   -4.3055   24.7226 C   0  0  0  0  0  0
  -21.8818   -3.8145   23.4347 C   0  0  0  0  0  0
  -21.9190   -4.6961   22.3404 C   0  0  0  0  0  0
  -22.7861  -13.5239   21.1846 C   0  0  0  0  0  0
  -22.1658   -4.2148   21.0981 F   0  0  0  0  0  0
  -21.5630   -3.4538   25.7739 F   0  0  0  0  0  0
  -30.0321  -13.2949   20.4418 N   0  0  0  0  0  0
  -26.2999  -12.9282   20.3310 N   0  0  0  0  0  0
  -25.9299  -11.6458   20.5761 N   0  0  0  0  0  0
  -22.0492  -12.8241   22.0403 N   0  0  0  0  0  0
  -25.4334  -15.1858   20.4098 N   0  0  0  0  0  0
  -31.8563  -14.6159   20.1702 O   0  0  0  0  0  0
  -21.6631   -6.8872   21.4240 O   0  0  0  0  0  0
  -22.3550  -14.5544   20.6691 O   0  0  0  0  0  0
  -24.6118  -31.8717   23.2091 C   0  0  0  0  0  0
  -25.9029  -32.4845   23.8392 C   0  0  1  0  0  0
  -27.2412  -27.4448   20.1107 C   0  0  0  0  0  0
  -25.5888  -33.8641   24.2336 N   0  0  0  0  0  0
  -23.3987  -30.4916   21.5499 C   0  0  2  0  0  0
  -24.8463  -28.9467   20.1264 C   0  0  0  0  0  0
  -22.7390  -29.4687   22.5011 C   0  0  0  0  0  0
  -18.0268  -28.1373   22.8508 C   0  0  0  0  0  0
  -24.1477  -36.7322   23.2637 C   0  0  0  0  0  0
  -25.9232  -30.8372   21.3622 C   0  0  0  0  0  0
  -26.0003  -29.4652   20.7239 C   0  0  0  0  0  0
  -27.1989  -28.7195   20.7167 C   0  0  0  0  0  0
  -26.0695  -26.9313   19.5141 C   0  0  0  0  0  0
  -24.8731  -27.6757   19.5211 C   0  0  0  0  0  0
  -23.6080  -29.8141   20.1680 C   0  0  0  0  0  0
  -25.4101  -36.3132   24.0342 C   0  0  1  0  0  0
  -20.5854  -28.3673   23.1326 C   0  0  2  0  0  0
  -20.6752  -26.9418   22.5417 C   0  0  0  0  0  0
  -19.5736  -26.6401   21.5204 C   0  0  0  0  0  0
  -18.1918  -26.7925   22.1627 C   0  0  0  0  0  0
  -19.1516  -28.8834   23.2919 C   0  0  0  0  0  0
  -18.9450  -30.1435   23.8935 C   0  0  0  0  0  0
  -17.6455  -30.6586   24.0567 C   0  0  0  0  0  0
  -25.9022  -34.9497   23.5139 C   0  0  0  0  0  0
  -16.5345  -29.9093   23.6314 C   0  0  0  0  0  0
  -16.7261  -28.6499   23.0360 C   0  0  0  0  0  0
  -26.4461  -31.6610   25.0712 C   0  0  0  0  0  0
  -25.3732  -31.3710   26.1465 C   0  0  0  0  0  0
  -27.0290  -30.3059   24.6073 C   0  0  0  0  0  0
  -27.6047  -32.4317   25.7467 C   0  0  0  0  0  0
  -27.5577  -37.1814   24.8473 C   0  0  0  0  0  0
  -21.4125  -29.3045   22.3734 N   0  0  0  0  0  0
  -26.4301  -37.3802   23.9403 N   0  0  0  0  0  0
  -24.6623  -31.0818   22.0993 N   0  0  0  0  0  0
  -23.4168  -28.8236   23.3057 O   0  0  0  0  0  0
  -28.4536  -26.8013   20.0113 O   0  0  0  0  0  0
  -26.5586  -34.8951   22.4705 O   0  0  0  0  0  0
  -23.5325  -32.1472   23.7499 O   0  0  0  0  0  0
  -28.7789  -23.1216   19.7631 C   0  0  0  0  0  0
  -29.7936  -23.8879   21.8388 C   0  0  0  0  0  0
  -28.3389  -24.4347   19.4915 C   0  0  0  0  0  0
  -29.3356  -25.1982   21.5735 C   0  0  0  0  0  0
  -29.5530  -22.8476   20.9132 C   0  0  0  0  0  0
  -28.6384  -25.4890   20.3808 C   0  0  0  0  0  0
  -30.1831  -16.9197   22.8851 C   0  0  0  0  0  0
  -29.9502  -18.3799   23.3450 C   0  0  0  0  0  0
  -30.0259  -18.3829   20.9607 C   0  0  0  0  0  0
  -30.4675  -16.9634   21.3676 C   0  0  2  0  0  0
  -30.3628  -19.2706   22.1614 C   0  0  1  0  0  0
  -29.6101  -16.2623   19.0612 C   0  0  0  0  0  0
  -30.2482  -21.4923   21.0604 C   0  0  0  0  0  0
  -29.8258  -15.8092   20.5279 C   0  0  1  0  0  0
  -29.7076  -20.6081   22.1186 N   0  3  0  0  0  0
  -31.4749  -12.3703   19.1567 H   0  0  0  0  0  0
  -30.3235  -11.2833   19.8798 H   0  0  0  0  0  0
  -29.7426  -11.6763   17.4829 H   0  0  0  0  0  0
  -29.7014  -13.3947   17.7292 H   0  0  0  0  0  0
  -27.8169  -11.2875   18.8330 H   0  0  0  0  0  0
  -27.3825  -12.6037   17.7786 H   0  0  0  0  0  0
  -27.6772  -14.2336   19.5326 H   0  0  0  0  0  0
  -28.6665  -11.9975   21.3751 H   0  0  0  0  0  0
  -28.4743  -13.6576   21.8443 H   0  0  0  0  0  0
  -25.2750   -9.5675   22.4762 H   0  0  0  0  0  0
  -23.9992   -7.4625   22.7475 H   0  0  0  0  0  0
  -21.0830   -8.8765   19.8953 H   0  0  0  0  0  0
  -22.3685  -10.9668   19.6168 H   0  0  0  0  0  0
  -21.2002   -7.6146   23.9718 H   0  0  0  0  0  0
  -21.1484   -6.0521   25.9080 H   0  0  0  0  0  0
  -22.0598   -2.7606   23.2848 H   0  0  0  0  0  0
  -22.4093  -11.9897   22.4793 H   0  0  0  0  0  0
  -21.1112  -13.1279   22.2606 H   0  0  0  0  0  0
  -24.6699  -15.8436   20.5236 H   0  0  0  0  0  0
  -26.2904  -15.6243   20.0978 H   0  0  0  0  0  0
  -26.7111  -32.5554   23.1169 H   0  0  0  0  0  0
  -25.0028  -33.9804   25.0478 H   0  0  0  0  0  0
  -22.6854  -31.3063   21.4071 H   0  0  0  0  0  0
  -23.3739  -35.9655   23.3337 H   0  0  0  0  0  0
  -24.3562  -36.8903   22.2044 H   0  0  0  0  0  0
  -23.7244  -37.6546   23.6626 H   0  0  0  0  0  0
  -26.0227  -31.5973   20.5861 H   0  0  0  0  0  0
  -26.8153  -30.9038   21.9726 H   0  0  0  0  0  0
  -28.0990  -29.1299   21.1522 H   0  0  0  0  0  0
  -26.0801  -25.9710   19.0229 H   0  0  0  0  0  0
  -23.9863  -27.2721   19.0518 H   0  0  0  0  0  0
  -23.7134  -30.5838   19.4024 H   0  0  0  0  0  0
  -22.7323  -29.2303   19.8767 H   0  0  0  0  0  0
  -25.1279  -36.2004   25.0836 H   0  0  0  0  0  0
  -20.9942  -28.3254   24.1448 H   0  0  0  0  0  0
  -20.5641  -26.2303   23.3612 H   0  0  0  0  0  0
  -21.6625  -26.7462   22.1213 H   0  0  0  0  0  0
  -19.6911  -25.6314   21.1229 H   0  0  0  0  0  0
  -19.6656  -27.3219   20.6734 H   0  0  0  0  0  0
  -17.4178  -26.6686   21.4040 H   0  0  0  0  0  0
  -18.0327  -26.0048   22.9003 H   0  0  0  0  0  0
  -19.7930  -30.7238   24.2330 H   0  0  0  0  0  0
  -17.5012  -31.6266   24.5171 H   0  0  0  0  0  0
  -15.5346  -30.3006   23.7609 H   0  0  0  0  0  0
  -15.8662  -28.0817   22.7067 H   0  0  0  0  0  0
  -24.5888  -30.7079   25.7799 H   0  0  0  0  0  0
  -24.8929  -32.2858   26.4945 H   0  0  0  0  0  0
  -25.8086  -30.8849   27.0205 H   0  0  0  0  0  0
  -26.2831  -29.6830   24.1120 H   0  0  0  0  0  0
  -27.4074  -29.7295   25.4525 H   0  0  0  0  0  0
  -27.8659  -30.4392   23.9212 H   0  0  0  0  0  0
  -27.2671  -33.3597   26.2095 H   0  0  0  0  0  0
  -28.3819  -32.6916   25.0264 H   0  0  0  0  0  0
  -28.0755  -31.8405   26.5331 H   0  0  0  0  0  0
  -28.2626  -38.0080   24.7475 H   0  0  0  0  0  0
  -28.1045  -36.2611   24.6351 H   0  0  0  0  0  0
  -27.2286  -37.1533   25.8876 H   0  0  0  0  0  0
  -20.9294  -29.8762   21.6949 H   0  0  0  0  0  0
  -26.0212  -38.2900   24.1368 H   0  0  0  0  0  0
  -28.5892  -22.3471   19.0323 H   0  0  0  0  0  0
  -30.3940  -23.7055   22.7199 H   0  0  0  0  0  0
  -27.8372  -24.6407   18.5569 H   0  0  0  0  0  0
  -29.5923  -26.0009   22.2503 H   0  0  0  0  0  0
  -29.3001  -16.3204   23.1133 H   0  0  0  0  0  0
  -31.0192  -16.4616   23.4166 H   0  0  0  0  0  0
  -30.5099  -18.6173   24.2511 H   0  0  0  0  0  0
  -28.8924  -18.5186   23.5740 H   0  0  0  0  0  0
  -28.9499  -18.4071   20.7849 H   0  0  0  0  0  0
  -30.5252  -18.7109   20.0483 H   0  0  0  0  0  0
  -31.5519  -16.9356   21.2409 H   0  0  0  0  0  0
  -31.4451  -19.4114   22.2059 H   0  0  0  0  0  0
  -28.8386  -17.0270   18.9766 H   0  0  0  0  0  0
  -29.2872  -15.4472   18.4174 H   0  0  0  0  0  0
  -30.5289  -16.6615   18.6297 H   0  0  0  0  0  0
  -31.3082  -21.6693   21.2473 H   0  0  0  0  0  0
  -30.1976  -20.9825   20.0977 H   0  0  0  0  0  0
  -28.8395  -15.6172   20.9437 H   0  0  0  0  0  0
  -29.8569  -21.0670   23.0019 H   0  0  0  0  0  0
  -28.7152  -20.5059   21.9901 H   0  0  0  0  0  0
  1 25  1  0  0  0
  1 30  2  0  0  0
  1 84  1  0  0  0
  2  3  1  0  0  0
  2 25  1  0  0  0
  2 86  1  0  0  0
  2 87  1  0  0  0
  3  4  1  0  0  0
  3 88  1  0  0  0
  3 89  1  0  0  0
  4  5  1  0  0  0
  4 90  1  0  0  0
  4 91  1  0  0  0
  5  6  1  0  0  0
  5 26  1  0  0  0
  5 92  1  0  0  0
  6 25  1  0  0  0
  6 93  1  0  0  0
  6 94  1  0  0  0
  7  8  2  0  0  0
  7 26  1  0  0  0
  7 29  1  0  0  0
  8  9  1  0  0  0
  8 22  1  0  0  0
  9 10  1  0  0  0
  9 27  2  0  0  0
 10 11  2  0  0  0
 10 15  1  0  0  0
 11 12  1  0  0  0
 11 95  1  0  0  0
 12 13  2  0  0  0
 12 96  1  0  0  0
 13 14  1  0  0  0
 13 31  1  0  0  0
 14 15  2  0  0  0
 14 97  1  0  0  0
 15 98  1  0  0  0
 16 17  2  0  0  0
 16 21  1  0  0  0
 16 31  1  0  0  0
 17 18  1  0  0  0
 17 99  1  0  0  0
 18 19  2  0  0  0
 18100  1  0  0  0
 19 20  1  0  0  0
 19 24  1  0  0  0
 20 21  2  0  0  0
 20101  1  0  0  0
 21 23  1  0  0  0
 22 28  1  0  0  0
 22 32  2  0  0  0
 26 27  1  0  0  0
 28102  1  0  0  0
 28103  1  0  0  0
 29104  1  0  0  0
 29105  1  0  0  0
 33 34  1  0  0  0
 33 66  1  0  0  0
 33 70  2  0  0  0
 34 36  1  0  0  0
 34 59  1  0  0  0
 34106  1  0  0  0
 35 44  2  0  0  0
 35 45  1  0  0  0
 35 68  1  0  0  0
 36 56  1  0  0  0
 36107  1  0  0  0
 37 39  1  0  0  0
 37 47  1  0  0  0
 37 66  1  0  0  0
 37108  1  0  0  0
 38 43  2  0  0  0
 38 46  1  0  0  0
 38 47  1  0  0  0
 39 64  1  0  0  0
 39 67  2  0  0  0
 40 52  1  0  0  0
 40 53  2  0  0  0
 40 58  1  0  0  0
 41109  1  0  0  0
 41110  1  0  0  0
 41111  1  0  0  0
 41 48  1  0  0  0
 42 43  1  0  0  0
 42 66  1  0  0  0
 42112  1  0  0  0
 42113  1  0  0  0
 43 44  1  0  0  0
 44114  1  0  0  0
 45 46  2  0  0  0
 45115  1  0  0  0
 46116  1  0  0  0
 47117  1  0  0  0
 47118  1  0  0  0
 48 56  1  0  0  0
 48 65  1  0  0  0
 48119  1  0  0  0
 49 50  1  0  0  0
 49 53  1  0  0  0
 49 64  1  0  0  0
 49120  1  0  0  0
 50 51  1  0  0  0
 50121  1  0  0  0
 50122  1  0  0  0
 51 52  1  0  0  0
 51123  1  0  0  0
 51124  1  0  0  0
 52125  1  0  0  0
 52126  1  0  0  0
 53 54  1  0  0  0
 54 55  2  0  0  0
 54127  1  0  0  0
 55 57  1  0  0  0
 55128  1  0  0  0
 56 69  2  0  0  0
 57 58  2  0  0  0
 57129  1  0  0  0
 58130  1  0  0  0
 59 60  1  0  0  0
 59 61  1  0  0  0
 59 62  1  0  0  0
 60131  1  0  0  0
 60132  1  0  0  0
 60133  1  0  0  0
 61134  1  0  0  0
 61135  1  0  0  0
 61136  1  0  0  0
 62137  1  0  0  0
 62138  1  0  0  0
 62139  1  0  0  0
 63 65  1  0  0  0
 63140  1  0  0  0
 63141  1  0  0  0
 63142  1  0  0  0
 64143  1  0  0  0
 65144  1  0  0  0
 68 76  1  0  0  0
 71 73  2  0  0  0
 71 75  1  0  0  0
 71145  1  0  0  0
 72 74  1  0  0  0
 72 75  2  0  0  0
 72146  1  0  0  0
 73 76  1  0  0  0
 73147  1  0  0  0
 74 76  2  0  0  0
 74148  1  0  0  0
 75 83  1  0  0  0
 77 78  1  0  0  0
 77149  1  0  0  0
 77150  1  0  0  0
 77 80  1  0  0  0
 78 81  1  0  0  0
 78151  1  0  0  0
 78152  1  0  0  0
 79 80  1  0  0  0
 79 81  1  0  0  0
 79153  1  0  0  0
 79154  1  0  0  0
 80 84  1  0  0  0
 80155  1  0  0  0
 81 85  1  0  0  0
 81156  1  0  0  0
 82157  1  0  0  0
 82158  1  0  0  0
 82159  1  0  0  0
 82 84  1  0  0  0
 83 85  1  0  0  0
 83160  1  0  0  0
 83161  1  0  0  0
 84162  1  0  0  0
 85163  1  0  0  0
 85164  1  0  0  0
M  CHG  1  85   1
M  ISO  4   1 100  68 101  76 101  84 100
M  END
> <chiral flag>
0

> <version>
0

> <s_m_source_file>
/data/baiqing/PycharmProjects/Reinvent-master-3.2/result/LINK_invent/BTK/process_docking_weight1_custom_sum_contain_oxygen_bond_distance_aromatic_linkinvent_7_9_3/rearranged_h_0142.sdf

> <i_m_source_file_index>
34

> <r_mmod_Potential_Energy-OPLS-2005>
-74.5038833618164

> <r_mmod_Stretch_Energy-OPLS-2005>
36.8554916381836

> <r_mmod_Bend_Energy-OPLS-2005>
123.239646911621

> <r_mmod_Torsional_Energy-OPLS-2005>
254.576950073242

> <r_mmod_Improper_Torsional_Energy-OPLS-2005>
10.761378288269

> <r_mmod_Van_der_Waal_Energy-OPLS-2005>
145.466079711914

> <r_mmod_Electrostatic_Energy-OPLS-2005>
-216.684799194336

> <r_mmod_Solvation_Energy-OPLS-2005>
-447.625335693359

> <b_mmod_Minimization_Converged-OPLS-2005>
0

> <r_mmod_RMS_Derivative-OPLS-2005>
1.65344834327698

$$$$
35
                    3D
 Structure written by MMmdl.
159168  0  0  1  0            999 V2000
  -30.5339  -14.9713   20.4201 C   0  0  0  0  0  0
  -30.4398  -12.6038   19.4930 C   0  0  0  0  0  0
  -29.5200  -12.5284   18.2521 C   0  0  0  0  0  0
  -28.0560  -12.3053   18.6757 C   0  0  0  0  0  0
  -27.6262  -13.2448   19.8323 C   0  0  2  0  0  0
  -28.6694  -13.2898   20.9683 C   0  0  0  0  0  0
  -25.2449  -13.8208   20.5702 C   0  0  0  0  0  0
  -24.1767  -13.0439   20.9231 C   0  0  0  0  0  0
  -24.6378  -11.6920   20.8760 C   0  0  0  0  0  0
  -23.9065  -10.4291   21.0413 C   0  0  0  0  0  0
  -24.3616   -9.4205   21.9189 C   0  0  0  0  0  0
  -23.6290   -8.2237   22.0751 C   0  0  0  0  0  0
  -22.4272   -8.0273   21.3542 C   0  0  0  0  0  0
  -21.9908   -9.0247   20.4646 C   0  0  0  0  0  0
  -22.7236  -10.2128   20.3059 C   0  0  0  0  0  0
  -21.6850   -6.0729   22.5276 C   0  0  0  0  0  0
  -21.4015   -6.5634   23.8209 C   0  0  0  0  0  0
  -21.3662   -5.6786   24.9172 C   0  0  0  0  0  0
  -21.6046   -4.3048   24.7220 C   0  0  0  0  0  0
  -21.8821   -3.8140   23.4341 C   0  0  0  0  0  0
  -21.9190   -4.6958   22.3401 C   0  0  0  0  0  0
  -22.7790  -13.5216   21.1884 C   0  0  0  0  0  0
  -22.1660   -4.2146   21.0980 F   0  0  0  0  0  0
  -21.5631   -3.4538   25.7736 F   0  0  0  0  0  0
  -29.9382  -13.7101   20.3594 N   0  0  0  0  0  0
  -26.2863  -12.9432   20.3218 N   0  0  0  0  0  0
  -25.9306  -11.6566   20.5725 N   0  0  0  0  0  0
  -22.0434  -12.8205   22.0439 N   0  0  0  0  0  0
  -25.4120  -15.1933   20.4114 N   0  0  0  0  0  0
  -31.7521  -15.0077   20.1998 O   0  0  0  0  0  0
  -21.6638   -6.8868   21.4236 O   0  0  0  0  0  0
  -22.3482  -14.5521   20.6721 O   0  0  0  0  0  0
  -24.6470  -31.8415   23.1878 C   0  0  0  0  0  0
  -25.9231  -32.4683   23.8269 C   0  0  1  0  0  0
  -27.2121  -27.1139   20.1559 C   0  0  0  0  0  0
  -25.5973  -33.8493   24.2190 N   0  0  0  0  0  0
  -23.4507  -30.4617   21.5330 C   0  0  2  0  0  0
  -24.9019  -28.8887   20.1054 C   0  0  0  0  0  0
  -22.7579  -29.4533   22.4838 C   0  0  0  0  0  0
  -18.0310  -28.1400   22.8466 C   0  0  0  0  0  0
  -24.1487  -36.7257   23.2634 C   0  0  0  0  0  0
  -26.0089  -30.7088   21.3903 C   0  0  0  0  0  0
  -26.0780  -29.3191   20.7312 C   0  0  0  0  0  0
  -27.2344  -28.4469   20.7396 C   0  0  0  0  0  0
  -26.0140  -26.7969   19.4786 C   0  0  0  0  0  0
  -24.8848  -27.6432   19.4616 C   0  0  0  0  0  0
  -23.6796  -29.7946   20.1502 C   0  0  0  0  0  0
  -25.4116  -36.3038   24.0314 C   0  0  1  0  0  0
  -20.5923  -28.3734   23.1236 C   0  0  2  0  0  0
  -20.6794  -26.9434   22.5407 C   0  0  0  0  0  0
  -19.5766  -26.6384   21.5213 C   0  0  0  0  0  0
  -18.1949  -26.7939   22.1621 C   0  0  0  0  0  0
  -19.1564  -28.8885   23.2842 C   0  0  0  0  0  0
  -18.9475  -30.1479   23.8869 C   0  0  0  0  0  0
  -17.6473  -30.6590   24.0563 C   0  0  0  0  0  0
  -25.9073  -34.9409   23.5062 C   0  0  0  0  0  0
  -16.5363  -29.9084   23.6335 C   0  0  0  0  0  0
  -16.7297  -28.6508   23.0342 C   0  0  0  0  0  0
  -26.4540  -31.6548   25.0711 C   0  0  0  0  0  0
  -25.3722  -31.3751   26.1407 C   0  0  0  0  0  0
  -27.0393  -30.2931   24.6300 C   0  0  0  0  0  0
  -27.6068  -32.4310   25.7493 C   0  0  0  0  0  0
  -27.5577  -37.1790   24.8465 C   0  0  0  0  0  0
  -21.4265  -29.3052   22.3601 N   0  0  0  0  0  0
  -26.4286  -37.3749   23.9409 N   0  0  0  0  0  0
  -24.7219  -31.0257   22.0920 N   0  0  0  0  0  0
  -23.4206  -28.8066   23.2994 O   0  0  0  0  0  0
  -28.2464  -26.1044   20.2483 O   0  0  0  0  0  0
  -26.5646  -34.8915   22.4631 O   0  0  0  0  0  0
  -23.5592  -32.1297   23.7093 O   0  0  0  0  0  0
  -30.5905  -20.4532   21.1218 C   0  0  0  0  0  0
  -29.1167  -18.7883   20.2193 C   0  0  0  0  0  0
  -31.4128  -19.3630   21.4819 C   0  0  0  0  0  0
  -29.3740  -20.2435   20.4513 C   0  0  0  0  0  0
  -30.0100  -17.6636   20.6156 C   0  0  0  0  0  0
  -28.3407  -21.5219   18.4573 C   0  0  0  0  0  0
  -26.8857  -21.8776   18.1148 C   0  0  0  0  0  0
  -27.0054  -21.2778   20.4235 C   0  0  0  0  0  0
  -28.4625  -21.5611   19.9931 C   0  0  1  0  0  0
  -28.8366  -23.1807   20.4190 C   0  0  0  0  0  0
  -27.9611  -24.5835   19.9968 C   0  0  0  0  0  0
  -31.1455  -18.0526   21.2395 N   0  0  0  0  0  0
  -29.7347  -16.1591   20.4488 N   0  0  0  0  0  0
  -26.1191  -21.8008   19.3694 N   0  3  0  0  0  0
  -31.4725  -12.7665   19.1805 H   0  0  0  0  0  0
  -30.4382  -11.6568   20.0351 H   0  0  0  0  0  0
  -29.8435  -11.7289   17.5849 H   0  0  0  0  0  0
  -29.6012  -13.4543   17.6804 H   0  0  0  0  0  0
  -27.9626  -11.2662   18.9933 H   0  0  0  0  0  0
  -27.3906  -12.4228   17.8201 H   0  0  0  0  0  0
  -27.5825  -14.2412   19.3931 H   0  0  0  0  0  0
  -28.7649  -12.3185   21.4549 H   0  0  0  0  0  0
  -28.3653  -13.9960   21.7419 H   0  0  0  0  0  0
  -25.2762   -9.5684   22.4762 H   0  0  0  0  0  0
  -24.0001   -7.4626   22.7466 H   0  0  0  0  0  0
  -21.0839   -8.8762   19.8950 H   0  0  0  0  0  0
  -22.3689  -10.9665   19.6164 H   0  0  0  0  0  0
  -21.2013   -7.6142   23.9711 H   0  0  0  0  0  0
  -21.1486   -6.0519   25.9074 H   0  0  0  0  0  0
  -22.0600   -2.7601   23.2846 H   0  0  0  0  0  0
  -22.4054  -11.9881   22.4850 H   0  0  0  0  0  0
  -21.1045  -13.1218   22.2635 H   0  0  0  0  0  0
  -24.6369  -15.8399   20.5137 H   0  0  0  0  0  0
  -26.2415  -15.6313   20.0349 H   0  0  0  0  0  0
  -26.7302  -32.5286   23.1005 H   0  0  0  0  0  0
  -25.0120  -33.9596   25.0340 H   0  0  0  0  0  0
  -22.7525  -31.2874   21.3802 H   0  0  0  0  0  0
  -23.3767  -35.9575   23.3277 H   0  0  0  0  0  0
  -24.3586  -36.8903   22.2058 H   0  0  0  0  0  0
  -23.7227  -37.6439   23.6680 H   0  0  0  0  0  0
  -26.1661  -31.4618   20.6169 H   0  0  0  0  0  0
  -26.8792  -30.7624   22.0327 H   0  0  0  0  0  0
  -28.1281  -28.7700   21.2536 H   0  0  0  0  0  0
  -25.9123  -25.8487   18.9713 H   0  0  0  0  0  0
  -23.9912  -27.3129   18.9506 H   0  0  0  0  0  0
  -23.8218  -30.5725   19.3989 H   0  0  0  0  0  0
  -22.7943  -29.2399   19.8332 H   0  0  0  0  0  0
  -25.1310  -36.1868   25.0809 H   0  0  0  0  0  0
  -21.0001  -28.3340   24.1365 H   0  0  0  0  0  0
  -20.5696  -26.2337   23.3623 H   0  0  0  0  0  0
  -21.6661  -26.7444   22.1195 H   0  0  0  0  0  0
  -19.6918  -25.6284   21.1263 H   0  0  0  0  0  0
  -19.6708  -27.3175   20.6729 H   0  0  0  0  0  0
  -17.4210  -26.6673   21.4031 H   0  0  0  0  0  0
  -18.0359  -26.0093   22.9033 H   0  0  0  0  0  0
  -19.7951  -30.7305   24.2210 H   0  0  0  0  0  0
  -17.5027  -31.6265   24.5174 H   0  0  0  0  0  0
  -15.5360  -30.2974   23.7675 H   0  0  0  0  0  0
  -15.8697  -28.0827   22.7051 H   0  0  0  0  0  0
  -24.5900  -30.7095   25.7734 H   0  0  0  0  0  0
  -24.8916  -32.2940   26.4776 H   0  0  0  0  0  0
  -25.8013  -30.8959   27.0215 H   0  0  0  0  0  0
  -26.3006  -29.6650   24.1303 H   0  0  0  0  0  0
  -27.3986  -29.7239   25.4884 H   0  0  0  0  0  0
  -27.8932  -30.4142   23.9630 H   0  0  0  0  0  0
  -27.2654  -33.3625   26.2022 H   0  0  0  0  0  0
  -28.3903  -32.6837   25.0335 H   0  0  0  0  0  0
  -28.0704  -31.8460   26.5447 H   0  0  0  0  0  0
  -28.2587  -38.0094   24.7521 H   0  0  0  0  0  0
  -28.1085  -36.2630   24.6282 H   0  0  0  0  0  0
  -27.2303  -37.1422   25.8869 H   0  0  0  0  0  0
  -20.9471  -29.8775   21.6789 H   0  0  0  0  0  0
  -26.0161  -38.2820   24.1411 H   0  0  0  0  0  0
  -30.9147  -21.4564   21.3601 H   0  0  0  0  0  0
  -28.2054  -18.5173   19.7046 H   0  0  0  0  0  0
  -32.3430  -19.5533   21.9950 H   0  0  0  0  0  0
  -29.0604  -22.1743   17.9619 H   0  0  0  0  0  0
  -28.5378  -20.5151   18.0860 H   0  0  0  0  0  0
  -26.4789  -21.1833   17.3783 H   0  0  0  0  0  0
  -26.8018  -22.8792   17.6923 H   0  0  0  0  0  0
  -26.7647  -21.6800   21.4084 H   0  0  0  0  0  0
  -26.8129  -20.2062   20.4759 H   0  0  0  0  0  0
  -29.8569  -23.3531   20.0789 H   0  0  0  0  0  0
  -28.9098  -23.1938   21.5064 H   0  0  0  0  0  0
  -26.9656  -24.4154   20.4085 H   0  0  0  0  0  0
  -27.8432  -24.5278   18.9160 H   0  0  0  0  0  0
  -28.7529  -15.9470   20.3827 H   0  0  0  0  0  0
  -25.3203  -21.1963   19.2554 H   0  0  0  0  0  0
  -25.7774  -22.7130   19.6178 H   0  0  0  0  0  0
  1 25  1  0  0  0
  1 30  2  0  0  0
  1 83  1  0  0  0
  2  3  1  0  0  0
  2 25  1  0  0  0
  2 85  1  0  0  0
  2 86  1  0  0  0
  3  4  1  0  0  0
  3 87  1  0  0  0
  3 88  1  0  0  0
  4  5  1  0  0  0
  4 89  1  0  0  0
  4 90  1  0  0  0
  5  6  1  0  0  0
  5 26  1  0  0  0
  5 91  1  0  0  0
  6 25  1  0  0  0
  6 92  1  0  0  0
  6 93  1  0  0  0
  7  8  2  0  0  0
  7 26  1  0  0  0
  7 29  1  0  0  0
  8  9  1  0  0  0
  8 22  1  0  0  0
  9 10  1  0  0  0
  9 27  2  0  0  0
 10 11  2  0  0  0
 10 15  1  0  0  0
 11 12  1  0  0  0
 11 94  1  0  0  0
 12 13  2  0  0  0
 12 95  1  0  0  0
 13 14  1  0  0  0
 13 31  1  0  0  0
 14 15  2  0  0  0
 14 96  1  0  0  0
 15 97  1  0  0  0
 16 17  2  0  0  0
 16 21  1  0  0  0
 16 31  1  0  0  0
 17 18  1  0  0  0
 17 98  1  0  0  0
 18 19  2  0  0  0
 18 99  1  0  0  0
 19 20  1  0  0  0
 19 24  1  0  0  0
 20 21  2  0  0  0
 20100  1  0  0  0
 21 23  1  0  0  0
 22 28  1  0  0  0
 22 32  2  0  0  0
 26 27  1  0  0  0
 28101  1  0  0  0
 28102  1  0  0  0
 29103  1  0  0  0
 29104  1  0  0  0
 33 34  1  0  0  0
 33 66  1  0  0  0
 33 70  2  0  0  0
 34 36  1  0  0  0
 34 59  1  0  0  0
 34105  1  0  0  0
 35 44  2  0  0  0
 35 45  1  0  0  0
 35 68  1  0  0  0
 36 56  1  0  0  0
 36106  1  0  0  0
 37 39  1  0  0  0
 37 47  1  0  0  0
 37 66  1  0  0  0
 37107  1  0  0  0
 38 43  2  0  0  0
 38 46  1  0  0  0
 38 47  1  0  0  0
 39 64  1  0  0  0
 39 67  2  0  0  0
 40 52  1  0  0  0
 40 53  2  0  0  0
 40 58  1  0  0  0
 41108  1  0  0  0
 41109  1  0  0  0
 41110  1  0  0  0
 41 48  1  0  0  0
 42 43  1  0  0  0
 42 66  1  0  0  0
 42111  1  0  0  0
 42112  1  0  0  0
 43 44  1  0  0  0
 44113  1  0  0  0
 45 46  2  0  0  0
 45114  1  0  0  0
 46115  1  0  0  0
 47116  1  0  0  0
 47117  1  0  0  0
 48 56  1  0  0  0
 48 65  1  0  0  0
 48118  1  0  0  0
 49 50  1  0  0  0
 49 53  1  0  0  0
 49 64  1  0  0  0
 49119  1  0  0  0
 50 51  1  0  0  0
 50120  1  0  0  0
 50121  1  0  0  0
 51 52  1  0  0  0
 51122  1  0  0  0
 51123  1  0  0  0
 52124  1  0  0  0
 52125  1  0  0  0
 53 54  1  0  0  0
 54 55  2  0  0  0
 54126  1  0  0  0
 55 57  1  0  0  0
 55127  1  0  0  0
 56 69  2  0  0  0
 57 58  2  0  0  0
 57128  1  0  0  0
 58129  1  0  0  0
 59 60  1  0  0  0
 59 61  1  0  0  0
 59 62  1  0  0  0
 60130  1  0  0  0
 60131  1  0  0  0
 60132  1  0  0  0
 61133  1  0  0  0
 61134  1  0  0  0
 61135  1  0  0  0
 62136  1  0  0  0
 62137  1  0  0  0
 62138  1  0  0  0
 63 65  1  0  0  0
 63139  1  0  0  0
 63140  1  0  0  0
 63141  1  0  0  0
 64142  1  0  0  0
 65143  1  0  0  0
 68 81  1  0  0  0
 71 73  2  0  0  0
 71 74  1  0  0  0
 71144  1  0  0  0
 72 74  2  0  0  0
 72 75  1  0  0  0
 72145  1  0  0  0
 73 82  1  0  0  0
 73146  1  0  0  0
 74 79  1  0  0  0
 75 82  2  0  0  0
 75 83  1  0  0  0
 76 77  1  0  0  0
 76 79  1  0  0  0
 76147  1  0  0  0
 76148  1  0  0  0
 77 84  1  0  0  0
 77149  1  0  0  0
 77150  1  0  0  0
 78 79  1  0  0  0
 78 84  1  0  0  0
 78151  1  0  0  0
 78152  1  0  0  0
 79 80  1  0  0  0
 80 81  1  0  0  0
 80153  1  0  0  0
 80154  1  0  0  0
 81155  1  0  0  0
 81156  1  0  0  0
 83157  1  0  0  0
 84158  1  0  0  0
 84159  1  0  0  0
M  CHG  1  84   1
M  ISO  4   1 100  68 101  81 101  83 100
M  END
> <chiral flag>
0

> <version>
0

> <s_m_source_file>
/data/baiqing/PycharmProjects/Reinvent-master-3.2/result/LINK_invent/BTK/process_docking_weight1_custom_sum_contain_oxygen_bond_distance_aromatic_linkinvent_7_9_3/rearranged_h_0142.sdf

> <i_m_source_file_index>
35

> <r_mmod_Potential_Energy-OPLS-2005>
264.830291748047

> <r_mmod_Stretch_Energy-OPLS-2005>
287.992004394531

> <r_mmod_Bend_Energy-OPLS-2005>
271.4775390625

> <r_mmod_Torsional_Energy-OPLS-2005>
306.949462890625

> <r_mmod_Improper_Torsional_Energy-OPLS-2005>
6.73577547073364

> <r_mmod_Van_der_Waal_Energy-OPLS-2005>
129.801559448242

> <r_mmod_Electrostatic_Energy-OPLS-2005>
-406.916931152344

> <r_mmod_Solvation_Energy-OPLS-2005>
-544.938415527344

> <b_mmod_Minimization_Converged-OPLS-2005>
0

> <r_mmod_RMS_Derivative-OPLS-2005>
1.84621441364288

$$$$
36
                    3D
 Structure written by MMmdl.
162171  0  0  1  0            999 V2000
  -29.4717  -17.7313   20.1880 C   0  0  0  0  0  0
  -30.1610  -14.6350   19.4580 C   0  0  0  0  0  0
  -29.5983  -13.4351   18.4912 C   0  0  0  0  0  0
  -28.3845  -12.6629   19.0231 C   0  0  0  0  0  0
  -27.5835  -13.6739   19.8408 C   0  0  2  0  0  0
  -28.4308  -14.7659   20.7331 C   0  0  0  0  0  0
  -25.2021  -13.8707   20.6575 C   0  0  0  0  0  0
  -24.1696  -13.0386   20.9459 C   0  0  0  0  0  0
  -24.6945  -11.7149   20.8600 C   0  0  0  0  0  0
  -23.9649  -10.4339   21.0158 C   0  0  0  0  0  0
  -24.3974   -9.4248   21.9062 C   0  0  0  0  0  0
  -23.6481   -8.2362   22.0738 C   0  0  0  0  0  0
  -22.4439   -8.0410   21.3557 C   0  0  0  0  0  0
  -22.0206   -9.0400   20.4615 C   0  0  0  0  0  0
  -22.7705  -10.2189   20.2916 C   0  0  0  0  0  0
  -21.6902   -6.0810   22.5276 C   0  0  0  0  0  0
  -21.4044   -6.5673   23.8220 C   0  0  0  0  0  0
  -21.3671   -5.6810   24.9172 C   0  0  0  0  0  0
  -21.6035   -4.3070   24.7206 C   0  0  0  0  0  0
  -21.8818   -3.8180   23.4320 C   0  0  0  0  0  0
  -21.9217   -4.7022   22.3387 C   0  0  0  0  0  0
  -22.7583  -13.4854   21.1973 C   0  0  0  0  0  0
  -22.1670   -4.2194   21.0967 F   0  0  0  0  0  0
  -21.5630   -3.4550   25.7716 F   0  0  0  0  0  0
  -29.2480  -15.9671   19.9724 N   0  0  0  0  0  0
  -26.3171  -13.1098   20.3984 N   0  0  0  0  0  0
  -26.0085  -11.7701   20.5473 N   0  0  0  0  0  0
  -22.0289  -12.7743   22.0464 N   0  0  0  0  0  0
  -25.2620  -15.2426   20.5735 N   0  0  0  0  0  0
  -30.5972  -17.1472   20.6153 O   0  0  0  0  0  0
  -21.6726   -6.9027   21.4269 O   0  0  0  0  0  0
  -22.3159  -14.5148   20.6880 O   0  0  0  0  0  0
  -24.8213  -31.6048   23.0342 C   0  0  0  0  0  0
  -26.0018  -32.3590   23.7413 C   0  0  1  0  0  0
  -27.3563  -25.2797   20.2937 C   0  0  0  0  0  0
  -25.5967  -33.7503   24.1107 N   0  0  0  0  0  0
  -23.7082  -30.1301   21.4261 C   0  0  2  0  0  0
  -25.1789  -28.1503   20.1658 C   0  0  0  0  0  0
  -22.8354  -29.3263   22.4393 C   0  0  0  0  0  0
  -18.0405  -28.1508   22.8365 C   0  0  0  0  0  0
  -24.1477  -36.6782   23.2692 C   0  0  0  0  0  0
  -26.3121  -29.8651   21.5124 C   0  0  0  0  0  0
  -26.3771  -28.2672   20.8787 C   0  0  0  0  0  0
  -27.3651  -26.9213   20.8773 C   0  0  0  0  0  0
  -26.1264  -25.7298   19.5293 C   0  0  0  0  0  0
  -25.1706  -26.9015   19.4693 C   0  0  0  0  0  0
  -24.0307  -29.2687   20.1344 C   0  0  0  0  0  0
  -25.4175  -36.2396   24.0179 C   0  0  1  0  0  0
  -20.6091  -28.3875   23.0914 C   0  0  2  0  0  0
  -20.6780  -26.9407   22.5464 C   0  0  0  0  0  0
  -19.5805  -26.6308   21.5242 C   0  0  0  0  0  0
  -18.1978  -26.8000   22.1585 C   0  0  0  0  0  0
  -19.1703  -28.9055   23.2567 C   0  0  0  0  0  0
  -18.9612  -30.1604   23.8664 C   0  0  0  0  0  0
  -17.6589  -30.6646   24.0520 C   0  0  0  0  0  0
  -25.9230  -34.8817   23.4619 C   0  0  0  0  0  0
  -16.5461  -29.9111   23.6397 C   0  0  0  0  0  0
  -16.7379  -28.6556   23.0380 C   0  0  0  0  0  0
  -26.4813  -31.6307   25.0604 C   0  0  0  0  0  0
  -25.3543  -31.3960   26.0966 C   0  0  0  0  0  0
  -27.1012  -30.2580   24.7440 C   0  0  0  0  0  0
  -27.5959  -32.4560   25.7480 C   0  0  0  0  0  0
  -27.5510  -37.1506   24.8450 C   0  0  0  0  0  0
  -21.4894  -29.2780   22.3075 N   0  0  0  0  0  0
  -26.4176  -37.3328   23.9432 N   0  0  0  0  0  0
  -24.9922  -30.6009   22.0464 N   0  0  0  0  0  0
  -23.4097  -28.7219   23.3452 O   0  0  0  0  0  0
  -28.2511  -23.4823   20.2968 O   0  0  0  0  0  0
  -26.6130  -34.8696   22.4417 O   0  0  0  0  0  0
  -23.6959  -31.9781   23.4385 O   0  0  0  0  0  0
  -31.0978  -18.9357   19.0003 C   0  0  0  0  0  0
  -30.3790  -20.4178   20.2120 C   0  0  0  0  0  0
  -29.6598  -17.8190   17.8961 C   0  0  0  0  0  0
  -27.7308  -18.2426   18.7003 C   0  0  0  0  0  0
  -28.6253  -21.3387   20.2151 C   0  0  0  0  0  0
  -28.3789  -19.0846   16.1234 C   0  0  0  0  0  0
  -30.6800  -19.5622   16.3695 C   0  0  0  0  0  0
  -28.1773  -20.1893   17.2387 C   0  0  0  0  0  0
  -30.2001  -20.6205   17.4491 C   0  0  0  0  0  0
  -29.7124  -18.3362   16.4254 C   0  0  0  0  0  0
  -24.3550  -18.3406   19.2430 C   0  0  0  0  0  0
  -26.5646  -17.3420   18.3570 C   0  0  0  0  0  0
  -25.2223  -18.0161   18.0173 C   0  0  0  0  0  0
  -27.5136  -19.8107   19.8784 N   0  0  0  0  0  0
  -29.1920  -19.8362   18.4427 N   0  0  0  0  0  0
  -30.9656  -15.1028   18.8867 H   0  0  0  0  0  0
  -30.7257  -14.1998   20.2887 H   0  0  0  0  0  0
  -30.4042  -12.7378   18.2568 H   0  0  0  0  0  0
  -29.3241  -13.8928   17.5394 H   0  0  0  0  0  0
  -28.7173  -11.8550   19.6767 H   0  0  0  0  0  0
  -27.7979  -12.2229   18.2169 H   0  0  0  0  0  0
  -27.2042  -14.3187   19.0456 H   0  0  0  0  0  0
  -29.0139  -14.2642   21.5107 H   0  0  0  0  0  0
  -27.7173  -15.3178   21.3428 H   0  0  0  0  0  0
  -25.3095   -9.5663   22.4691 H   0  0  0  0  0  0
  -24.0098   -7.4786   22.7532 H   0  0  0  0  0  0
  -21.1125   -8.9017   19.8938 H   0  0  0  0  0  0
  -22.4208  -10.9723   19.6003 H   0  0  0  0  0  0
  -21.2023   -7.6177   23.9726 H   0  0  0  0  0  0
  -21.1487   -6.0538   25.9080 H   0  0  0  0  0  0
  -22.0578   -2.7635   23.2813 H   0  0  0  0  0  0
  -22.4032  -11.9478   22.4876 H   0  0  0  0  0  0
  -21.0831  -13.0575   22.2589 H   0  0  0  0  0  0
  -24.4414  -15.8276   20.6797 H   0  0  0  0  0  0
  -26.1034  -15.7508   20.3559 H   0  0  0  0  0  0
  -26.8342  -32.3977   23.0361 H   0  0  0  0  0  0
  -24.9708  -33.8303   24.8982 H   0  0  0  0  0  0
  -23.1225  -30.9939   21.1073 H   0  0  0  0  0  0
  -23.3815  -35.9023   23.3100 H   0  0  0  0  0  0
  -24.3510  -36.8794   22.2163 H   0  0  0  0  0  0
  -23.7158  -37.5790   23.7062 H   0  0  0  0  0  0
  -26.6646  -30.5040   20.7009 H   0  0  0  0  0  0
  -27.1125  -29.9409   22.2320 H   0  0  0  0  0  0
  -28.2397  -27.1025   21.4862 H   0  0  0  0  0  0
  -25.7793  -24.9322   18.8872 H   0  0  0  0  0  0
  -24.3221  -26.7551   18.8161 H   0  0  0  0  0  0
  -24.3009  -29.9586   19.3350 H   0  0  0  0  0  0
  -23.1106  -28.7930   19.7925 H   0  0  0  0  0  0
  -25.1445  -36.0930   25.0653 H   0  0  0  0  0  0
  -21.0089  -28.3614   24.1076 H   0  0  0  0  0  0
  -20.5507  -26.2537   23.3847 H   0  0  0  0  0  0
  -21.6633  -26.7123   22.1379 H   0  0  0  0  0  0
  -19.6933  -25.6164   21.1410 H   0  0  0  0  0  0
  -19.6828  -27.2999   20.6691 H   0  0  0  0  0  0
  -17.4268  -26.6750   21.3964 H   0  0  0  0  0  0
  -18.0302  -26.0200   22.9028 H   0  0  0  0  0  0
  -19.8094  -30.7463   24.1940 H   0  0  0  0  0  0
  -17.5152  -31.6302   24.5178 H   0  0  0  0  0  0
  -15.5462  -30.2966   23.7861 H   0  0  0  0  0  0
  -15.8772  -28.0829   22.7210 H   0  0  0  0  0  0
  -24.5820  -30.7253   25.7196 H   0  0  0  0  0  0
  -24.8669  -32.3286   26.3804 H   0  0  0  0  0  0
  -25.7415  -30.9473   27.0115 H   0  0  0  0  0  0
  -26.3892  -29.5670   24.2942 H   0  0  0  0  0  0
  -27.4440  -29.7706   25.6572 H   0  0  0  0  0  0
  -27.9836  -30.3508   24.1119 H   0  0  0  0  0  0
  -27.2277  -33.4074   26.1320 H   0  0  0  0  0  0
  -28.4107  -32.6782   25.0585 H   0  0  0  0  0  0
  -28.0252  -31.9238   26.5973 H   0  0  0  0  0  0
  -28.2344  -37.9968   24.7599 H   0  0  0  0  0  0
  -28.1182  -36.2476   24.6134 H   0  0  0  0  0  0
  -27.2245  -37.0924   25.8852 H   0  0  0  0  0  0
  -21.0583  -29.8125   21.5658 H   0  0  0  0  0  0
  -25.9858  -38.2280   24.1571 H   0  0  0  0  0  0
  -32.1628  -18.8088   18.8494 H   0  0  0  0  0  0
  -31.1763  -21.0476   20.5807 H   0  0  0  0  0  0
  -28.3975  -19.5513   15.1366 H   0  0  0  0  0  0
  -27.5455  -18.3879   16.0768 H   0  0  0  0  0  0
  -31.7113  -19.2519   16.5391 H   0  0  0  0  0  0
  -30.6837  -20.0042   15.3728 H   0  0  0  0  0  0
  -27.1275  -20.2088   17.5271 H   0  0  0  0  0  0
  -28.1085  -21.1899   16.8035 H   0  0  0  0  0  0
  -29.9559  -21.5922   17.0122 H   0  0  0  0  0  0
  -31.0937  -21.0222   17.9309 H   0  0  0  0  0  0
  -29.9529  -17.5548   15.7026 H   0  0  0  0  0  0
  -23.5086  -18.9670   18.9637 H   0  0  0  0  0  0
  -24.9159  -18.8709   20.0126 H   0  0  0  0  0  0
  -23.9417  -17.4332   19.6842 H   0  0  0  0  0  0
  -26.4962  -16.6319   19.1556 H   0  0  0  0  0  0
  -26.8829  -16.7516   17.4991 H   0  0  0  0  0  0
  -25.3761  -18.8992   17.3986 H   0  0  0  0  0  0
  -24.6488  -17.3203   17.4006 H   0  0  0  0  0  0
  1 25  1  0  0  0
  1 30  2  0  0  0
  1 85  1  0  0  0
  2  3  1  0  0  0
  2 25  1  0  0  0
  2 86  1  0  0  0
  2 87  1  0  0  0
  3  4  1  0  0  0
  3 88  1  0  0  0
  3 89  1  0  0  0
  4  5  1  0  0  0
  4 90  1  0  0  0
  4 91  1  0  0  0
  5  6  1  0  0  0
  5 26  1  0  0  0
  5 92  1  0  0  0
  6 25  1  0  0  0
  6 93  1  0  0  0
  6 94  1  0  0  0
  7  8  2  0  0  0
  7 26  1  0  0  0
  7 29  1  0  0  0
  8  9  1  0  0  0
  8 22  1  0  0  0
  9 10  1  0  0  0
  9 27  2  0  0  0
 10 11  2  0  0  0
 10 15  1  0  0  0
 11 12  1  0  0  0
 11 95  1  0  0  0
 12 13  2  0  0  0
 12 96  1  0  0  0
 13 14  1  0  0  0
 13 31  1  0  0  0
 14 15  2  0  0  0
 14 97  1  0  0  0
 15 98  1  0  0  0
 16 17  2  0  0  0
 16 21  1  0  0  0
 16 31  1  0  0  0
 17 18  1  0  0  0
 17 99  1  0  0  0
 18 19  2  0  0  0
 18100  1  0  0  0
 19 20  1  0  0  0
 19 24  1  0  0  0
 20 21  2  0  0  0
 20101  1  0  0  0
 21 23  1  0  0  0
 22 28  1  0  0  0
 22 32  2  0  0  0
 26 27  1  0  0  0
 28102  1  0  0  0
 28103  1  0  0  0
 29104  1  0  0  0
 29105  1  0  0  0
 33 34  1  0  0  0
 33 66  1  0  0  0
 33 70  2  0  0  0
 34 36  1  0  0  0
 34 59  1  0  0  0
 34106  1  0  0  0
 35 44  2  0  0  0
 35 45  1  0  0  0
 35 68  1  0  0  0
 36 56  1  0  0  0
 36107  1  0  0  0
 37 39  1  0  0  0
 37 47  1  0  0  0
 37 66  1  0  0  0
 37108  1  0  0  0
 38 43  2  0  0  0
 38 46  1  0  0  0
 38 47  1  0  0  0
 39 64  1  0  0  0
 39 67  2  0  0  0
 40 52  1  0  0  0
 40 53  2  0  0  0
 40 58  1  0  0  0
 41109  1  0  0  0
 41110  1  0  0  0
 41111  1  0  0  0
 41 48  1  0  0  0
 42 43  1  0  0  0
 42 66  1  0  0  0
 42112  1  0  0  0
 42113  1  0  0  0
 43 44  1  0  0  0
 44114  1  0  0  0
 45 46  2  0  0  0
 45115  1  0  0  0
 46116  1  0  0  0
 47117  1  0  0  0
 47118  1  0  0  0
 48 56  1  0  0  0
 48 65  1  0  0  0
 48119  1  0  0  0
 49 50  1  0  0  0
 49 53  1  0  0  0
 49 64  1  0  0  0
 49120  1  0  0  0
 50 51  1  0  0  0
 50121  1  0  0  0
 50122  1  0  0  0
 51 52  1  0  0  0
 51123  1  0  0  0
 51124  1  0  0  0
 52125  1  0  0  0
 52126  1  0  0  0
 53 54  1  0  0  0
 54 55  2  0  0  0
 54127  1  0  0  0
 55 57  1  0  0  0
 55128  1  0  0  0
 56 69  2  0  0  0
 57 58  2  0  0  0
 57129  1  0  0  0
 58130  1  0  0  0
 59 60  1  0  0  0
 59 61  1  0  0  0
 59 62  1  0  0  0
 60131  1  0  0  0
 60132  1  0  0  0
 60133  1  0  0  0
 61134  1  0  0  0
 61135  1  0  0  0
 61136  1  0  0  0
 62137  1  0  0  0
 62138  1  0  0  0
 62139  1  0  0  0
 63 65  1  0  0  0
 63140  1  0  0  0
 63141  1  0  0  0
 63142  1  0  0  0
 64143  1  0  0  0
 65144  1  0  0  0
 68 75  1  0  0  0
 71 72  2  0  0  0
 71 73  1  0  0  0
 71145  1  0  0  0
 72 75  1  0  0  0
 72146  1  0  0  0
 73 74  2  0  0  0
 73 80  1  0  0  0
 74 82  1  0  0  0
 74 84  1  0  0  0
 75 84  2  0  0  0
 76 78  1  0  0  0
 76 80  1  0  0  0
 76147  1  0  0  0
 76148  1  0  0  0
 77 79  1  0  0  0
 77 80  1  0  0  0
 77149  1  0  0  0
 77150  1  0  0  0
 78 85  1  0  0  0
 78151  1  0  0  0
 78152  1  0  0  0
 79 85  1  0  0  0
 79153  1  0  0  0
 79154  1  0  0  0
 80155  1  0  0  0
 81 83  1  0  0  0
 81156  1  0  0  0
 81157  1  0  0  0
 81158  1  0  0  0
 82 83  1  0  0  0
 82159  1  0  0  0
 82160  1  0  0  0
 83161  1  0  0  0
 83162  1  0  0  0
M  ISO  4   1 100  68 101  75 101  85 100
M  END
> <chiral flag>
0

> <version>
0

> <s_m_source_file>
/data/baiqing/PycharmProjects/Reinvent-master-3.2/result/LINK_invent/BTK/process_docking_weight1_custom_sum_contain_oxygen_bond_distance_aromatic_linkinvent_7_9_3/rearranged_h_0142.sdf

> <i_m_source_file_index>
36

> <r_mmod_Potential_Energy-OPLS-2005>
24060.830078125

> <r_mmod_Stretch_Energy-OPLS-2005>
12490.142578125

> <r_mmod_Bend_Energy-OPLS-2005>
1570.52673339844

> <r_mmod_Torsional_Energy-OPLS-2005>
561.752990722656

> <r_mmod_Improper_Torsional_Energy-OPLS-2005>
122.823051452637

> <r_mmod_Van_der_Waal_Energy-OPLS-2005>
3177.83642578125

> <r_mmod_Electrostatic_Energy-OPLS-2005>
-382.838134765625

> <r_mmod_Solvation_Energy-OPLS-2005>
-198.432159423828

> <b_mmod_Minimization_Converged-OPLS-2005>
0

> <r_mmod_RMS_Derivative-OPLS-2005>
6.67994832992554

$$$$
37
                    3D
 Structure written by MMmdl.
166175  0  0  1  0            999 V2000
  -30.6111  -14.7712   20.4693 C   0  0  0  0  0  0
  -30.4318  -12.4760   19.4724 C   0  0  0  0  0  0
  -29.5104  -12.5121   18.2341 C   0  0  0  0  0  0
  -28.0370  -12.3302   18.6488 C   0  0  0  0  0  0
  -27.6375  -13.2346   19.8451 C   0  0  2  0  0  0
  -28.6832  -13.1888   20.9802 C   0  0  0  0  0  0
  -25.2484  -13.8191   20.5688 C   0  0  0  0  0  0
  -24.1788  -13.0431   20.9219 C   0  0  0  0  0  0
  -24.6378  -11.6910   20.8743 C   0  0  0  0  0  0
  -23.9054  -10.4289   21.0402 C   0  0  0  0  0  0
  -24.3611   -9.4206   21.9179 C   0  0  0  0  0  0
  -23.6293   -8.2235   22.0743 C   0  0  0  0  0  0
  -22.4279   -8.0266   21.3531 C   0  0  0  0  0  0
  -21.9906   -9.0241   20.4636 C   0  0  0  0  0  0
  -22.7226  -10.2125   20.3050 C   0  0  0  0  0  0
  -21.6847   -6.0729   22.5277 C   0  0  0  0  0  0
  -21.4012   -6.5639   23.8213 C   0  0  0  0  0  0
  -21.3666   -5.6789   24.9177 C   0  0  0  0  0  0
  -21.6049   -4.3052   24.7226 C   0  0  0  0  0  0
  -21.8820   -3.8138   23.4346 C   0  0  0  0  0  0
  -21.9192   -4.6954   22.3401 C   0  0  0  0  0  0
  -22.7809  -13.5210   21.1884 C   0  0  0  0  0  0
  -22.1661   -4.2142   21.0977 F   0  0  0  0  0  0
  -21.5632   -3.4539   25.7736 F   0  0  0  0  0  0
  -29.9782  -13.5473   20.3907 N   0  0  0  0  0  0
  -26.2911  -12.9404   20.3251 N   0  0  0  0  0  0
  -25.9308  -11.6545   20.5737 N   0  0  0  0  0  0
  -22.0457  -12.8198   22.0439 N   0  0  0  0  0  0
  -25.4151  -15.1921   20.4105 N   0  0  0  0  0  0
  -31.8107  -14.8357   20.1817 O   0  0  0  0  0  0
  -21.6634   -6.8869   21.4237 O   0  0  0  0  0  0
  -22.3501  -14.5515   20.6730 O   0  0  0  0  0  0
  -24.6338  -31.8534   23.1967 C   0  0  0  0  0  0
  -25.9157  -32.4738   23.8328 C   0  0  1  0  0  0
  -27.2151  -27.2418   20.1469 C   0  0  0  0  0  0
  -25.5944  -33.8539   24.2249 N   0  0  0  0  0  0
  -23.4314  -30.4742   21.5409 C   0  0  2  0  0  0
  -24.8780  -28.9147   20.1140 C   0  0  0  0  0  0
  -22.7513  -29.4583   22.4914 C   0  0  0  0  0  0
  -18.0290  -28.1378   22.8479 C   0  0  0  0  0  0
  -24.1490  -36.7277   23.2637 C   0  0  0  0  0  0
  -25.9781  -30.7610   21.3785 C   0  0  0  0  0  0
  -26.0507  -29.3806   20.7237 C   0  0  0  0  0  0
  -27.2251  -28.5585   20.7238 C   0  0  0  0  0  0
  -26.0229  -26.8458   19.5060 C   0  0  0  0  0  0
  -24.8698  -27.6559   19.4927 C   0  0  0  0  0  0
  -23.6512  -29.8059   20.1579 C   0  0  0  0  0  0
  -25.4111  -36.3056   24.0329 C   0  0  1  0  0  0
  -20.5892  -28.3690   23.1266 C   0  0  2  0  0  0
  -20.6774  -26.9409   22.5404 C   0  0  0  0  0  0
  -19.5750  -26.6376   21.5206 C   0  0  0  0  0  0
  -18.1931  -26.7920   22.1619 C   0  0  0  0  0  0
  -19.1545  -28.8854   23.2862 C   0  0  0  0  0  0
  -18.9465  -30.1455   23.8878 C   0  0  0  0  0  0
  -17.6463  -30.6580   24.0554 C   0  0  0  0  0  0
  -25.9062  -34.9427   23.5089 C   0  0  0  0  0  0
  -16.5353  -29.9071   23.6333 C   0  0  0  0  0  0
  -16.7275  -28.6488   23.0354 C   0  0  0  0  0  0
  -26.4513  -31.6568   25.0731 C   0  0  0  0  0  0
  -25.3731  -31.3742   26.1458 C   0  0  0  0  0  0
  -27.0355  -30.2971   24.6247 C   0  0  0  0  0  0
  -27.6071  -32.4305   25.7499 C   0  0  0  0  0  0
  -27.5586  -37.1777   24.8450 C   0  0  0  0  0  0
  -21.4222  -29.3036   22.3659 N   0  0  0  0  0  0
  -26.4272  -37.3767   23.9430 N   0  0  0  0  0  0
  -24.7000  -31.0483   22.0949 N   0  0  0  0  0  0
  -23.4202  -28.8137   23.3032 O   0  0  0  0  0  0
  -28.3000  -26.3322   20.1668 O   0  0  0  0  0  0
  -26.5634  -34.8913   22.4659 O   0  0  0  0  0  0
  -23.5482  -32.1361   23.7250 O   0  0  0  0  0  0
  -31.3798  -17.6321   21.4961 C   0  0  0  0  0  0
  -31.8304  -18.9479   21.7132 C   0  0  0  0  0  0
  -31.0668  -20.0410   21.2346 C   0  0  0  0  0  0
  -30.1893  -17.3587   20.7960 C   0  0  0  0  0  0
  -29.8161  -19.7894   20.6178 C   0  0  0  0  0  0
  -33.1638  -19.1271   22.4407 C   0  0  0  0  0  0
  -31.6532  -21.4456   21.3126 C   0  0  0  0  0  0
  -33.1834  -21.4464   21.3934 C   0  0  0  0  0  0
  -33.7257  -20.5710   22.5389 C   0  0  0  0  0  0
  -33.3594  -21.1850   23.9079 C   0  0  0  0  0  0
  -35.2638  -20.5337   22.4347 C   0  0  0  0  0  0
  -28.7854  -23.5919   20.0156 C   0  0  0  0  0  0
  -28.0700  -24.9147   20.6497 C   0  0  0  0  0  0
  -28.6628  -22.1335   20.7474 C   0  0  0  0  0  0
  -29.4228  -18.4635   20.3994 N   0  0  0  0  0  0
  -29.8308  -15.9219   20.6173 N   0  0  0  0  0  0
  -29.0196  -20.8414   20.0600 O   0  0  0  0  0  0
  -31.4724  -12.6021   19.1678 H   0  0  0  0  0  0
  -30.3803  -11.5037   19.9646 H   0  0  0  0  0  0
  -29.7986  -11.7359   17.5242 H   0  0  0  0  0  0
  -29.6307  -13.4638   17.7138 H   0  0  0  0  0  0
  -27.8980  -11.2823   18.9170 H   0  0  0  0  0  0
  -27.3790  -12.5148   17.7988 H   0  0  0  0  0  0
  -27.6239  -14.2517   19.4528 H   0  0  0  0  0  0
  -28.7279  -12.1976   21.4339 H   0  0  0  0  0  0
  -28.4135  -13.8804   21.7802 H   0  0  0  0  0  0
  -25.2753   -9.5695   22.4755 H   0  0  0  0  0  0
  -24.0009   -7.4623   22.7455 H   0  0  0  0  0  0
  -21.0840   -8.8750   19.8944 H   0  0  0  0  0  0
  -22.3672  -10.9659   19.6162 H   0  0  0  0  0  0
  -21.2004   -7.6147   23.9712 H   0  0  0  0  0  0
  -21.1494   -6.0521   25.9079 H   0  0  0  0  0  0
  -22.0595   -2.7599   23.2838 H   0  0  0  0  0  0
  -22.4071  -11.9865   22.4846 H   0  0  0  0  0  0
  -21.1073  -13.1214   22.2638 H   0  0  0  0  0  0
  -24.6402  -15.8381   20.5177 H   0  0  0  0  0  0
  -26.2498  -15.6361   20.0508 H   0  0  0  0  0  0
  -26.7230  -32.5379   23.1074 H   0  0  0  0  0  0
  -25.0081  -33.9668   25.0389 H   0  0  0  0  0  0
  -22.7284  -31.2964   21.3931 H   0  0  0  0  0  0
  -23.3767  -35.9591   23.3238 H   0  0  0  0  0  0
  -24.3606  -36.8965   22.2066 H   0  0  0  0  0  0
  -23.7219  -37.6452   23.6701 H   0  0  0  0  0  0
  -26.1190  -31.5195   20.6073 H   0  0  0  0  0  0
  -26.8535  -30.8099   22.0139 H   0  0  0  0  0  0
  -28.1241  -28.9097   21.2108 H   0  0  0  0  0  0
  -25.9717  -25.8798   19.0242 H   0  0  0  0  0  0
  -23.9731  -27.2935   19.0084 H   0  0  0  0  0  0
  -23.7811  -30.5812   19.4018 H   0  0  0  0  0  0
  -22.7683  -29.2425   19.8509 H   0  0  0  0  0  0
  -25.1284  -36.1887   25.0819 H   0  0  0  0  0  0
  -20.9974  -28.3263   24.1391 H   0  0  0  0  0  0
  -20.5664  -26.2304   23.3609 H   0  0  0  0  0  0
  -21.6644  -26.7425   22.1210 H   0  0  0  0  0  0
  -19.6913  -25.6285   21.1243 H   0  0  0  0  0  0
  -19.6687  -27.3177   20.6728 H   0  0  0  0  0  0
  -17.4204  -26.6661   21.4021 H   0  0  0  0  0  0
  -18.0334  -26.0064   22.9018 H   0  0  0  0  0  0
  -19.7944  -30.7271   24.2239 H   0  0  0  0  0  0
  -17.5019  -31.6260   24.5154 H   0  0  0  0  0  0
  -15.5350  -30.2959   23.7677 H   0  0  0  0  0  0
  -15.8679  -28.0799   22.7076 H   0  0  0  0  0  0
  -24.5871  -30.7136   25.7788 H   0  0  0  0  0  0
  -24.8971  -32.2924   26.4907 H   0  0  0  0  0  0
  -25.8039  -30.8889   27.0227 H   0  0  0  0  0  0
  -26.2945  -29.6711   24.1263 H   0  0  0  0  0  0
  -27.4002  -29.7254   25.4795 H   0  0  0  0  0  0
  -27.8844  -30.4224   23.9519 H   0  0  0  0  0  0
  -27.2686  -33.3612   26.2066 H   0  0  0  0  0  0
  -28.3884  -32.6851   25.0324 H   0  0  0  0  0  0
  -28.0737  -31.8436   26.5422 H   0  0  0  0  0  0
  -28.2543  -38.0134   24.7580 H   0  0  0  0  0  0
  -28.1140  -36.2670   24.6149 H   0  0  0  0  0  0
  -27.2330  -37.1277   25.8856 H   0  0  0  0  0  0
  -20.9416  -29.8755   21.6860 H   0  0  0  0  0  0
  -26.0140  -38.2831   24.1476 H   0  0  0  0  0  0
  -31.9885  -16.8180   21.8660 H   0  0  0  0  0  0
  -33.8779  -18.5062   21.8971 H   0  0  0  0  0  0
  -33.0919  -18.6745   23.4310 H   0  0  0  0  0  0
  -31.2456  -21.9647   22.1786 H   0  0  0  0  0  0
  -31.3606  -22.0129   20.4293 H   0  0  0  0  0  0
  -33.5442  -22.4715   21.4918 H   0  0  0  0  0  0
  -33.5795  -21.0811   20.4440 H   0  0  0  0  0  0
  -32.2832  -21.1801   24.0812 H   0  0  0  0  0  0
  -33.7006  -22.2180   23.9864 H   0  0  0  0  0  0
  -33.8145  -20.6304   24.7297 H   0  0  0  0  0  0
  -35.5922  -20.1217   21.4791 H   0  0  0  0  0  0
  -35.7019  -19.9187   23.2223 H   0  0  0  0  0  0
  -35.6942  -21.5324   22.5211 H   0  0  0  0  0  0
  -29.8457  -23.8113   19.8982 H   0  0  0  0  0  0
  -28.4031  -23.4795   19.0015 H   0  0  0  0  0  0
  -28.3568  -24.9389   21.7013 H   0  0  0  0  0  0
  -27.0006  -24.7078   20.6805 H   0  0  0  0  0  0
  -27.6066  -22.0119   20.9886 H   0  0  0  0  0  0
  -29.1322  -22.1807   21.7271 H   0  0  0  0  0  0
  -28.8408  -15.7429   20.5929 H   0  0  0  0  0  0
  1 25  1  0  0  0
  1 30  2  0  0  0
  1 86  1  0  0  0
  2  3  1  0  0  0
  2 25  1  0  0  0
  2 88  1  0  0  0
  2 89  1  0  0  0
  3  4  1  0  0  0
  3 90  1  0  0  0
  3 91  1  0  0  0
  4  5  1  0  0  0
  4 92  1  0  0  0
  4 93  1  0  0  0
  5  6  1  0  0  0
  5 26  1  0  0  0
  5 94  1  0  0  0
  6 25  1  0  0  0
  6 95  1  0  0  0
  6 96  1  0  0  0
  7  8  2  0  0  0
  7 26  1  0  0  0
  7 29  1  0  0  0
  8  9  1  0  0  0
  8 22  1  0  0  0
  9 10  1  0  0  0
  9 27  2  0  0  0
 10 11  2  0  0  0
 10 15  1  0  0  0
 11 12  1  0  0  0
 11 97  1  0  0  0
 12 13  2  0  0  0
 12 98  1  0  0  0
 13 14  1  0  0  0
 13 31  1  0  0  0
 14 15  2  0  0  0
 14 99  1  0  0  0
 15100  1  0  0  0
 16 17  2  0  0  0
 16 21  1  0  0  0
 16 31  1  0  0  0
 17 18  1  0  0  0
 17101  1  0  0  0
 18 19  2  0  0  0
 18102  1  0  0  0
 19 20  1  0  0  0
 19 24  1  0  0  0
 20 21  2  0  0  0
 20103  1  0  0  0
 21 23  1  0  0  0
 22 28  1  0  0  0
 22 32  2  0  0  0
 26 27  1  0  0  0
 28104  1  0  0  0
 28105  1  0  0  0
 29106  1  0  0  0
 29107  1  0  0  0
 33 34  1  0  0  0
 33 66  1  0  0  0
 33 70  2  0  0  0
 34 36  1  0  0  0
 34 59  1  0  0  0
 34108  1  0  0  0
 35 44  2  0  0  0
 35 45  1  0  0  0
 35 68  1  0  0  0
 36 56  1  0  0  0
 36109  1  0  0  0
 37 39  1  0  0  0
 37 47  1  0  0  0
 37 66  1  0  0  0
 37110  1  0  0  0
 38 43  2  0  0  0
 38 46  1  0  0  0
 38 47  1  0  0  0
 39 64  1  0  0  0
 39 67  2  0  0  0
 40 52  1  0  0  0
 40 53  2  0  0  0
 40 58  1  0  0  0
 41111  1  0  0  0
 41112  1  0  0  0
 41113  1  0  0  0
 41 48  1  0  0  0
 42 43  1  0  0  0
 42 66  1  0  0  0
 42114  1  0  0  0
 42115  1  0  0  0
 43 44  1  0  0  0
 44116  1  0  0  0
 45 46  2  0  0  0
 45117  1  0  0  0
 46118  1  0  0  0
 47119  1  0  0  0
 47120  1  0  0  0
 48 56  1  0  0  0
 48 65  1  0  0  0
 48121  1  0  0  0
 49 50  1  0  0  0
 49 53  1  0  0  0
 49 64  1  0  0  0
 49122  1  0  0  0
 50 51  1  0  0  0
 50123  1  0  0  0
 50124  1  0  0  0
 51 52  1  0  0  0
 51125  1  0  0  0
 51126  1  0  0  0
 52127  1  0  0  0
 52128  1  0  0  0
 53 54  1  0  0  0
 54 55  2  0  0  0
 54129  1  0  0  0
 55 57  1  0  0  0
 55130  1  0  0  0
 56 69  2  0  0  0
 57 58  2  0  0  0
 57131  1  0  0  0
 58132  1  0  0  0
 59 60  1  0  0  0
 59 61  1  0  0  0
 59 62  1  0  0  0
 60133  1  0  0  0
 60134  1  0  0  0
 60135  1  0  0  0
 61136  1  0  0  0
 61137  1  0  0  0
 61138  1  0  0  0
 62139  1  0  0  0
 62140  1  0  0  0
 62141  1  0  0  0
 63 65  1  0  0  0
 63142  1  0  0  0
 63143  1  0  0  0
 63144  1  0  0  0
 64145  1  0  0  0
 65146  1  0  0  0
 68 83  1  0  0  0
 71 72  2  0  0  0
 71 74  1  0  0  0
 71147  1  0  0  0
 72 73  1  0  0  0
 72 76  1  0  0  0
 73 75  2  0  0  0
 73 77  1  0  0  0
 74 85  2  0  0  0
 74 86  1  0  0  0
 75 85  1  0  0  0
 75 87  1  0  0  0
 76 79  1  0  0  0
 76148  1  0  0  0
 76149  1  0  0  0
 77 78  1  0  0  0
 77150  1  0  0  0
 77151  1  0  0  0
 78 79  1  0  0  0
 78152  1  0  0  0
 78153  1  0  0  0
 79 80  1  0  0  0
 79 81  1  0  0  0
 80154  1  0  0  0
 80155  1  0  0  0
 80156  1  0  0  0
 81157  1  0  0  0
 81158  1  0  0  0
 81159  1  0  0  0
 82 83  1  0  0  0
 82 84  1  0  0  0
 82160  1  0  0  0
 82161  1  0  0  0
 83162  1  0  0  0
 83163  1  0  0  0
 84 87  1  0  0  0
 84164  1  0  0  0
 84165  1  0  0  0
 86166  1  0  0  0
M  ISO  4   1 100  68 101  83 101  86 100
M  END
> <chiral flag>
0

> <version>
0

> <s_m_source_file>
/data/baiqing/PycharmProjects/Reinvent-master-3.2/result/LINK_invent/BTK/process_docking_weight1_custom_sum_contain_oxygen_bond_distance_aromatic_linkinvent_7_9_3/rearranged_h_0142.sdf

> <i_m_source_file_index>
37

> <r_mmod_Potential_Energy-OPLS-2005>
139.614471435547

> <r_mmod_Stretch_Energy-OPLS-2005>
143.723007202148

> <r_mmod_Bend_Energy-OPLS-2005>
194.423629760742

> <r_mmod_Torsional_Energy-OPLS-2005>
262.624328613281

> <r_mmod_Improper_Torsional_Energy-OPLS-2005>
6.76145219802856

> <r_mmod_Van_der_Waal_Energy-OPLS-2005>
149.639633178711

> <r_mmod_Electrostatic_Energy-OPLS-2005>
-499.697662353516

> <r_mmod_Solvation_Energy-OPLS-2005>
-215.292358398438

> <b_mmod_Minimization_Converged-OPLS-2005>
0

> <r_mmod_RMS_Derivative-OPLS-2005>
1.26002216339111

$$$$
38
                    3D
 Structure written by MMmdl.
162171  0  0  1  0            999 V2000
  -30.6873  -14.4618   20.6118 C   0  0  0  0  0  0
  -30.4283  -12.3113   19.4112 C   0  0  0  0  0  0
  -29.4935  -12.5186   18.2011 C   0  0  0  0  0  0
  -28.0154  -12.3700   18.6146 C   0  0  0  0  0  0
  -27.6641  -13.2023   19.8763 C   0  0  2  0  0  0
  -28.7069  -12.9682   20.9927 C   0  0  0  0  0  0
  -25.2611  -13.8148   20.5688 C   0  0  0  0  0  0
  -24.1854  -13.0435   20.9173 C   0  0  0  0  0  0
  -24.6397  -11.6895   20.8729 C   0  0  0  0  0  0
  -23.9062  -10.4286   21.0401 C   0  0  0  0  0  0
  -24.3610   -9.4204   21.9185 C   0  0  0  0  0  0
  -23.6284   -8.2240   22.0755 C   0  0  0  0  0  0
  -22.4268   -8.0273   21.3539 C   0  0  0  0  0  0
  -21.9902   -9.0248   20.4640 C   0  0  0  0  0  0
  -22.7233  -10.2128   20.3051 C   0  0  0  0  0  0
  -21.6851   -6.0734   22.5281 C   0  0  0  0  0  0
  -21.4015   -6.5641   23.8213 C   0  0  0  0  0  0
  -21.3658   -5.6794   24.9175 C   0  0  0  0  0  0
  -21.6041   -4.3056   24.7225 C   0  0  0  0  0  0
  -21.8821   -3.8146   23.4349 C   0  0  0  0  0  0
  -21.9194   -4.6962   22.3406 C   0  0  0  0  0  0
  -22.7874  -13.5234   21.1839 C   0  0  0  0  0  0
  -22.1663   -4.2148   21.0983 F   0  0  0  0  0  0
  -21.5624   -3.4540   25.7735 F   0  0  0  0  0  0
  -30.0368  -13.2780   20.4469 N   0  0  0  0  0  0
  -26.3044  -12.9309   20.3377 N   0  0  0  0  0  0
  -25.9322  -11.6473   20.5754 N   0  0  0  0  0  0
  -22.0517  -12.8215   22.0387 N   0  0  0  0  0  0
  -25.4347  -15.1869   20.4101 N   0  0  0  0  0  0
  -31.7935  -14.6756   20.1040 O   0  0  0  0  0  0
  -21.6630   -6.8873   21.4240 O   0  0  0  0  0  0
  -22.3560  -14.5548   20.6698 O   0  0  0  0  0  0
  -24.6130  -31.8678   23.2100 C   0  0  0  0  0  0
  -25.9026  -32.4824   23.8393 C   0  0  1  0  0  0
  -27.2387  -27.4393   20.1019 C   0  0  0  0  0  0
  -25.5884  -33.8623   24.2324 N   0  0  0  0  0  0
  -23.4024  -30.4884   21.5499 C   0  0  2  0  0  0
  -24.8525  -28.9510   20.1182 C   0  0  0  0  0  0
  -22.7408  -29.4643   22.4994 C   0  0  0  0  0  0
  -18.0266  -28.1370   22.8487 C   0  0  0  0  0  0
  -24.1486  -36.7314   23.2638 C   0  0  0  0  0  0
  -25.9295  -30.8331   21.3642 C   0  0  0  0  0  0
  -26.0097  -29.4651   20.7178 C   0  0  0  0  0  0
  -27.2075  -28.7143   20.7121 C   0  0  0  0  0  0
  -26.0709  -26.9371   19.4950 C   0  0  0  0  0  0
  -24.8762  -27.6842   19.5062 C   0  0  0  0  0  0
  -23.6132  -29.8175   20.1654 C   0  0  0  0  0  0
  -25.4106  -36.3116   24.0339 C   0  0  1  0  0  0
  -20.5857  -28.3652   23.1324 C   0  0  2  0  0  0
  -20.6752  -26.9386   22.5424 C   0  0  0  0  0  0
  -19.5739  -26.6381   21.5207 C   0  0  0  0  0  0
  -18.1914  -26.7918   22.1611 C   0  0  0  0  0  0
  -19.1516  -28.8828   23.2902 C   0  0  0  0  0  0
  -18.9445  -30.1434   23.8908 C   0  0  0  0  0  0
  -17.6449  -30.6576   24.0562 C   0  0  0  0  0  0
  -25.9034  -34.9481   23.5132 C   0  0  0  0  0  0
  -16.5338  -29.9079   23.6323 C   0  0  0  0  0  0
  -16.7255  -28.6497   23.0338 C   0  0  0  0  0  0
  -26.4461  -31.6599   25.0714 C   0  0  0  0  0  0
  -25.3731  -31.3683   26.1458 C   0  0  0  0  0  0
  -27.0302  -30.3051   24.6075 C   0  0  0  0  0  0
  -27.6027  -32.4322   25.7486 C   0  0  0  0  0  0
  -27.5590  -37.1803   24.8451 C   0  0  0  0  0  0
  -21.4135  -29.3022   22.3738 N   0  0  0  0  0  0
  -26.4284  -37.3808   23.9425 N   0  0  0  0  0  0
  -24.6663  -31.0775   22.1002 N   0  0  0  0  0  0
  -23.4181  -28.8189   23.3038 O   0  0  0  0  0  0
  -28.3910  -26.6896   20.0597 O   0  0  0  0  0  0
  -26.5606  -34.8933   22.4698 O   0  0  0  0  0  0
  -23.5321  -32.1427   23.7496 O   0  0  0  0  0  0
  -30.3872  -22.0287   21.9047 C   0  0  0  0  0  0
  -28.8222  -21.2849   20.2156 C   0  0  0  0  0  0
  -29.9526  -19.6141   21.6390 C   0  0  0  0  0  0
  -30.6042  -20.6899   22.3051 C   0  0  0  0  0  0
  -29.0354  -19.9375   20.6008 C   0  0  0  0  0  0
  -29.5010  -22.3399   20.8576 C   0  0  0  0  0  0
  -31.5905  -17.5757   22.1003 C   0  0  0  0  0  0
  -30.1975  -18.1740   22.0811 C   0  0  2  0  0  0
  -30.5623  -17.0159   21.1498 C   0  0  2  0  0  0
  -31.5456  -20.4411   23.4735 C   0  0  0  0  0  0
  -28.2508  -18.8531   19.8807 C   0  0  0  0  0  0
  -29.9753  -15.6146   21.3625 C   0  0  0  0  0  0
  -28.6276  -25.8732   21.2158 C   0  0  0  0  0  0
  -28.2714  -24.3753   21.0206 C   0  0  0  0  0  0
  -29.3590  -23.6471   20.4406 O   0  0  0  0  0  0
  -31.4704  -12.4229   19.1071 H   0  0  0  0  0  0
  -30.3362  -11.2944   19.7962 H   0  0  0  0  0  0
  -29.7338  -11.8074   17.4104 H   0  0  0  0  0  0
  -29.6562  -13.5120   17.7798 H   0  0  0  0  0  0
  -27.8265  -11.3129   18.8045 H   0  0  0  0  0  0
  -27.3631  -12.6506   17.7865 H   0  0  0  0  0  0
  -27.7107  -14.2511   19.5847 H   0  0  0  0  0  0
  -28.6825  -11.9279   21.3203 H   0  0  0  0  0  0
  -28.4686  -13.5536   21.8805 H   0  0  0  0  0  0
  -25.2753   -9.5677   22.4759 H   0  0  0  0  0  0
  -23.9990   -7.4632   22.7476 H   0  0  0  0  0  0
  -21.0837   -8.8767   19.8942 H   0  0  0  0  0  0
  -22.3696  -10.9665   19.6156 H   0  0  0  0  0  0
  -21.2012   -7.6151   23.9714 H   0  0  0  0  0  0
  -21.1481   -6.0526   25.9077 H   0  0  0  0  0  0
  -22.0604   -2.7608   23.2848 H   0  0  0  0  0  0
  -22.4128  -11.9859   22.4750 H   0  0  0  0  0  0
  -21.1136  -13.1239   22.2600 H   0  0  0  0  0  0
  -24.6717  -15.8458   20.5193 H   0  0  0  0  0  0
  -26.2940  -15.6232   20.1006 H   0  0  0  0  0  0
  -26.7100  -32.5551   23.1163 H   0  0  0  0  0  0
  -25.0024  -33.9787   25.0462 H   0  0  0  0  0  0
  -22.6901  -31.3038   21.4094 H   0  0  0  0  0  0
  -23.3772  -35.9618   23.3253 H   0  0  0  0  0  0
  -24.3591  -36.8982   22.2062 H   0  0  0  0  0  0
  -23.7203  -37.6486   23.6689 H   0  0  0  0  0  0
  -26.0385  -31.5964   20.5925 H   0  0  0  0  0  0
  -26.8184  -30.8910   21.9801 H   0  0  0  0  0  0
  -28.1035  -29.1085   21.1715 H   0  0  0  0  0  0
  -26.0884  -25.9687   19.0151 H   0  0  0  0  0  0
  -23.9875  -27.2823   19.0391 H   0  0  0  0  0  0
  -23.7218  -30.5909   19.4042 H   0  0  0  0  0  0
  -22.7383  -29.2353   19.8709 H   0  0  0  0  0  0
  -25.1278  -36.1971   25.0830 H   0  0  0  0  0  0
  -20.9944  -28.3211   24.1448 H   0  0  0  0  0  0
  -20.5636  -26.2256   23.3608 H   0  0  0  0  0  0
  -21.6626  -26.7415   22.1233 H   0  0  0  0  0  0
  -19.6899  -25.6300   21.1217 H   0  0  0  0  0  0
  -19.6688  -27.3203   20.6747 H   0  0  0  0  0  0
  -17.4194  -26.6678   21.4001 H   0  0  0  0  0  0
  -18.0300  -26.0047   22.8991 H   0  0  0  0  0  0
  -19.7923  -30.7241   24.2285 H   0  0  0  0  0  0
  -17.5006  -31.6257   24.5167 H   0  0  0  0  0  0
  -15.5337  -30.2982   23.7644 H   0  0  0  0  0  0
  -15.8657  -28.0824   22.7038 H   0  0  0  0  0  0
  -24.5915  -30.7019   25.7789 H   0  0  0  0  0  0
  -24.8905  -32.2829   26.4915 H   0  0  0  0  0  0
  -25.8090  -30.8848   27.0209 H   0  0  0  0  0  0
  -26.2845  -29.6810   24.1135 H   0  0  0  0  0  0
  -27.4097  -29.7281   25.4519 H   0  0  0  0  0  0
  -27.8666  -30.4388   23.9208 H   0  0  0  0  0  0
  -27.2638  -33.3620   26.2069 H   0  0  0  0  0  0
  -28.3836  -32.6885   25.0315 H   0  0  0  0  0  0
  -28.0692  -31.8442   26.5400 H   0  0  0  0  0  0
  -28.2559  -38.0151   24.7585 H   0  0  0  0  0  0
  -28.1138  -36.2689   24.6167 H   0  0  0  0  0  0
  -27.2320  -37.1313   25.8852 H   0  0  0  0  0  0
  -20.9294  -29.8762   21.6978 H   0  0  0  0  0  0
  -26.0170  -38.2871   24.1483 H   0  0  0  0  0  0
  -30.9091  -22.8329   22.4048 H   0  0  0  0  0  0
  -28.1376  -21.5126   19.4099 H   0  0  0  0  0  0
  -31.8670  -16.9654   22.9579 H   0  0  0  0  0  0
  -32.4029  -18.1472   21.6556 H   0  0  0  0  0  0
  -29.5498  -17.9408   22.9250 H   0  0  0  0  0  0
  -30.7206  -17.2689   20.1031 H   0  0  0  0  0  0
  -31.6813  -21.3429   24.0718 H   0  0  0  0  0  0
  -32.5266  -20.1287   23.1153 H   0  0  0  0  0  0
  -31.1565  -19.6710   24.1402 H   0  0  0  0  0  0
  -27.3548  -19.2615   19.4125 H   0  0  0  0  0  0
  -27.9263  -18.0711   20.5675 H   0  0  0  0  0  0
  -28.8575  -18.3982   19.0977 H   0  0  0  0  0  0
  -28.9357  -15.6614   21.0420 H   0  0  0  0  0  0
  -29.9673  -15.3834   22.4280 H   0  0  0  0  0  0
  -29.6752  -25.9683   21.5028 H   0  0  0  0  0  0
  -28.0610  -26.2613   22.0648 H   0  0  0  0  0  0
  -27.3745  -24.2633   20.4110 H   0  0  0  0  0  0
  -28.0346  -23.9537   21.9998 H   0  0  0  0  0  0
  1 25  1  0  0  0
  1 30  2  0  0  0
  1 82  1  0  0  0
  2  3  1  0  0  0
  2 25  1  0  0  0
  2 86  1  0  0  0
  2 87  1  0  0  0
  3  4  1  0  0  0
  3 88  1  0  0  0
  3 89  1  0  0  0
  4  5  1  0  0  0
  4 90  1  0  0  0
  4 91  1  0  0  0
  5  6  1  0  0  0
  5 26  1  0  0  0
  5 92  1  0  0  0
  6 25  1  0  0  0
  6 93  1  0  0  0
  6 94  1  0  0  0
  7  8  2  0  0  0
  7 26  1  0  0  0
  7 29  1  0  0  0
  8  9  1  0  0  0
  8 22  1  0  0  0
  9 10  1  0  0  0
  9 27  2  0  0  0
 10 11  2  0  0  0
 10 15  1  0  0  0
 11 12  1  0  0  0
 11 95  1  0  0  0
 12 13  2  0  0  0
 12 96  1  0  0  0
 13 14  1  0  0  0
 13 31  1  0  0  0
 14 15  2  0  0  0
 14 97  1  0  0  0
 15 98  1  0  0  0
 16 17  2  0  0  0
 16 21  1  0  0  0
 16 31  1  0  0  0
 17 18  1  0  0  0
 17 99  1  0  0  0
 18 19  2  0  0  0
 18100  1  0  0  0
 19 20  1  0  0  0
 19 24  1  0  0  0
 20 21  2  0  0  0
 20101  1  0  0  0
 21 23  1  0  0  0
 22 28  1  0  0  0
 22 32  2  0  0  0
 26 27  1  0  0  0
 28102  1  0  0  0
 28103  1  0  0  0
 29104  1  0  0  0
 29105  1  0  0  0
 33 34  1  0  0  0
 33 66  1  0  0  0
 33 70  2  0  0  0
 34 36  1  0  0  0
 34 59  1  0  0  0
 34106  1  0  0  0
 35 44  2  0  0  0
 35 45  1  0  0  0
 35 68  1  0  0  0
 36 56  1  0  0  0
 36107  1  0  0  0
 37 39  1  0  0  0
 37 47  1  0  0  0
 37 66  1  0  0  0
 37108  1  0  0  0
 38 43  2  0  0  0
 38 46  1  0  0  0
 38 47  1  0  0  0
 39 64  1  0  0  0
 39 67  2  0  0  0
 40 52  1  0  0  0
 40 53  2  0  0  0
 40 58  1  0  0  0
 41109  1  0  0  0
 41110  1  0  0  0
 41111  1  0  0  0
 41 48  1  0  0  0
 42 43  1  0  0  0
 42 66  1  0  0  0
 42112  1  0  0  0
 42113  1  0  0  0
 43 44  1  0  0  0
 44114  1  0  0  0
 45 46  2  0  0  0
 45115  1  0  0  0
 46116  1  0  0  0
 47117  1  0  0  0
 47118  1  0  0  0
 48 56  1  0  0  0
 48 65  1  0  0  0
 48119  1  0  0  0
 49 50  1  0  0  0
 49 53  1  0  0  0
 49 64  1  0  0  0
 49120  1  0  0  0
 50 51  1  0  0  0
 50121  1  0  0  0
 50122  1  0  0  0
 51 52  1  0  0  0
 51123  1  0  0  0
 51124  1  0  0  0
 52125  1  0  0  0
 52126  1  0  0  0
 53 54  1  0  0  0
 54 55  2  0  0  0
 54127  1  0  0  0
 55 57  1  0  0  0
 55128  1  0  0  0
 56 69  2  0  0  0
 57 58  2  0  0  0
 57129  1  0  0  0
 58130  1  0  0  0
 59 60  1  0  0  0
 59 61  1  0  0  0
 59 62  1  0  0  0
 60131  1  0  0  0
 60132  1  0  0  0
 60133  1  0  0  0
 61134  1  0  0  0
 61135  1  0  0  0
 61136  1  0  0  0
 62137  1  0  0  0
 62138  1  0  0  0
 62139  1  0  0  0
 63 65  1  0  0  0
 63140  1  0  0  0
 63141  1  0  0  0
 63142  1  0  0  0
 64143  1  0  0  0
 65144  1  0  0  0
 68 83  1  0  0  0
 71 74  2  0  0  0
 71 76  1  0  0  0
 71145  1  0  0  0
 72 75  1  0  0  0
 72 76  2  0  0  0
 72146  1  0  0  0
 73 74  1  0  0  0
 73 75  2  0  0  0
 73 78  1  0  0  0
 74 80  1  0  0  0
 75 81  1  0  0  0
 76 85  1  0  0  0
 77 78  1  0  0  0
 77 79  1  0  0  0
 77147  1  0  0  0
 77148  1  0  0  0
 78 79  1  0  0  0
 78149  1  0  0  0
 79 82  1  0  0  0
 79150  1  0  0  0
 80151  1  0  0  0
 80152  1  0  0  0
 80153  1  0  0  0
 81154  1  0  0  0
 81155  1  0  0  0
 81156  1  0  0  0
 82157  1  0  0  0
 82158  1  0  0  0
 83 84  1  0  0  0
 83159  1  0  0  0
 83160  1  0  0  0
 84 85  1  0  0  0
 84161  1  0  0  0
 84162  1  0  0  0
M  ISO  4   1 100  68 101  82 100  83 101
M  END
> <chiral flag>
0

> <version>
0

> <s_m_source_file>
/data/baiqing/PycharmProjects/Reinvent-master-3.2/result/LINK_invent/BTK/process_docking_weight1_custom_sum_contain_oxygen_bond_distance_aromatic_linkinvent_7_9_3/rearranged_h_0142.sdf

> <i_m_source_file_index>
38

> <r_mmod_Potential_Energy-OPLS-2005>
9.97282314300537

> <r_mmod_Stretch_Energy-OPLS-2005>
38.8910140991211

> <r_mmod_Bend_Energy-OPLS-2005>
89.7959213256836

> <r_mmod_Torsional_Energy-OPLS-2005>
255.531051635742

> <r_mmod_Improper_Torsional_Energy-OPLS-2005>
2.64727354049683

> <r_mmod_Van_der_Waal_Energy-OPLS-2005>
141.921630859375

> <r_mmod_Electrostatic_Energy-OPLS-2005>
-329.099548339844

> <r_mmod_Solvation_Energy-OPLS-2005>
-200.043594360352

> <b_mmod_Minimization_Converged-OPLS-2005>
0

> <r_mmod_RMS_Derivative-OPLS-2005>
0.883259415626526

$$$$
39
                    3D
 Structure written by MMmdl.
167177  0  0  1  0            999 V2000
  -30.6512  -14.5927   20.4439 C   0  0  0  0  0  0
  -30.4255  -12.3326   19.4704 C   0  0  0  0  0  0
  -29.5094  -12.4336   18.2322 C   0  0  0  0  0  0
  -28.0248  -12.3198   18.6356 C   0  0  0  0  0  0
  -27.6475  -13.2069   19.8537 C   0  0  2  0  0  0
  -28.6932  -13.1010   20.9872 C   0  0  0  0  0  0
  -25.2564  -13.8146   20.5707 C   0  0  0  0  0  0
  -24.1810  -13.0423   20.9183 C   0  0  0  0  0  0
  -24.6370  -11.6897   20.8752 C   0  0  0  0  0  0
  -23.9055  -10.4287   21.0407 C   0  0  0  0  0  0
  -24.3616   -9.4208   21.9183 C   0  0  0  0  0  0
  -23.6299   -8.2242   22.0747 C   0  0  0  0  0  0
  -22.4275   -8.0289   21.3547 C   0  0  0  0  0  0
  -21.9911   -9.0257   20.4640 C   0  0  0  0  0  0
  -22.7234  -10.2134   20.3054 C   0  0  0  0  0  0
  -21.6852   -6.0743   22.5283 C   0  0  0  0  0  0
  -21.4013   -6.5643   23.8218 C   0  0  0  0  0  0
  -21.3656   -5.6790   24.9177 C   0  0  0  0  0  0
  -21.6046   -4.3054   24.7218 C   0  0  0  0  0  0
  -21.8825   -3.8155   23.4337 C   0  0  0  0  0  0
  -21.9193   -4.6974   22.3398 C   0  0  0  0  0  0
  -22.7838  -13.5237   21.1843 C   0  0  0  0  0  0
  -22.1664   -4.2165   21.0973 F   0  0  0  0  0  0
  -21.5627   -3.4534   25.7726 F   0  0  0  0  0  0
  -30.0118  -13.3873   20.4103 N   0  0  0  0  0  0
  -26.2962  -12.9297   20.3312 N   0  0  0  0  0  0
  -25.9297  -11.6469   20.5794 N   0  0  0  0  0  0
  -22.0493  -12.8226   22.0399 N   0  0  0  0  0  0
  -25.4306  -15.1862   20.4187 N   0  0  0  0  0  0
  -31.8549  -14.6865   20.1966 O   0  0  0  0  0  0
  -21.6640   -6.8888   21.4246 O   0  0  0  0  0  0
  -22.3528  -14.5560   20.6716 O   0  0  0  0  0  0
  -24.6182  -31.8639   23.2060 C   0  0  0  0  0  0
  -25.9056  -32.4807   23.8368 C   0  0  1  0  0  0
  -27.2396  -27.4016   20.1122 C   0  0  0  0  0  0
  -25.5890  -33.8603   24.2295 N   0  0  0  0  0  0
  -23.4111  -30.4845   21.5473 C   0  0  2  0  0  0
  -24.8615  -28.9462   20.1124 C   0  0  0  0  0  0
  -22.7434  -29.4634   22.4970 C   0  0  0  0  0  0
  -18.0269  -28.1351   22.8473 C   0  0  0  0  0  0
  -24.1489  -36.7325   23.2641 C   0  0  0  0  0  0
  -25.9414  -30.8205   21.3644 C   0  0  0  0  0  0
  -26.0233  -29.4528   20.7108 C   0  0  0  0  0  0
  -27.2203  -28.6912   20.7010 C   0  0  0  0  0  0
  -26.0634  -26.9176   19.5057 C   0  0  0  0  0  0
  -24.8780  -27.6796   19.5020 C   0  0  0  0  0  0
  -23.6230  -29.8155   20.1625 C   0  0  0  0  0  0
  -25.4106  -36.3104   24.0326 C   0  0  1  0  0  0
  -20.5861  -28.3664   23.1274 C   0  0  2  0  0  0
  -20.6760  -26.9393   22.5403 C   0  0  0  0  0  0
  -19.5741  -26.6363   21.5186 C   0  0  0  0  0  0
  -18.1917  -26.7897   22.1598 C   0  0  0  0  0  0
  -19.1519  -28.8813   23.2877 C   0  0  0  0  0  0
  -18.9455  -30.1412   23.8896 C   0  0  0  0  0  0
  -17.6470  -30.6569   24.0541 C   0  0  0  0  0  0
  -25.9034  -34.9472   23.5108 C   0  0  0  0  0  0
  -16.5350  -29.9075   23.6311 C   0  0  0  0  0  0
  -16.7260  -28.6480   23.0333 C   0  0  0  0  0  0
  -26.4474  -31.6602   25.0715 C   0  0  0  0  0  0
  -25.3742  -31.3716   26.1472 C   0  0  0  0  0  0
  -27.0324  -30.3036   24.6123 C   0  0  0  0  0  0
  -27.6029  -32.4346   25.7477 C   0  0  0  0  0  0
  -27.5585  -37.1816   24.8453 C   0  0  0  0  0  0
  -21.4149  -29.3035   22.3695 N   0  0  0  0  0  0
  -26.4296  -37.3783   23.9403 N   0  0  0  0  0  0
  -24.6755  -31.0701   22.0981 N   0  0  0  0  0  0
  -23.4169  -28.8169   23.3037 O   0  0  0  0  0  0
  -28.3680  -26.5984   20.1294 O   0  0  0  0  0  0
  -26.5601  -34.8923   22.4676 O   0  0  0  0  0  0
  -23.5358  -32.1396   23.7430 O   0  0  0  0  0  0
  -32.5763  -18.9655   21.3604 C   0  0  0  0  0  0
  -32.6694  -17.4750   21.1660 C   0  0  0  0  0  0
  -28.6345  -17.0609   19.2602 C   0  0  0  0  0  0
  -29.7568  -16.1836   18.7293 C   0  0  0  0  0  0
  -29.6405  -20.6384   22.1034 C   0  0  0  0  0  0
  -29.3926  -20.4683   20.0971 C   0  0  0  0  0  0
  -31.4683  -18.2242   20.6375 C   0  0  0  0  0  0
  -29.2818  -19.4132   21.2306 C   0  0  1  0  0  0
  -29.2212  -16.8700   20.6599 C   0  0  2  0  0  0
  -28.6449  -24.0160   20.3525 C   0  0  0  0  0  0
  -29.6183  -22.8931   20.9190 C   0  0  0  0  0  0
  -28.2695  -25.4240   20.9830 C   0  0  0  0  0  0
  -30.0836  -18.0522   21.2562 C   0  0  1  0  0  0
  -29.8389  -15.6274   20.0804 N   0  0  0  0  0  0
  -29.0356  -21.5093   21.0769 N   0  3  2  0  0  0
  -31.4726  -12.4260   19.1788 H   0  0  0  0  0  0
  -30.3286  -11.3539   19.9425 H   0  0  0  0  0  0
  -29.7622  -11.6471   17.5201 H   0  0  0  0  0  0
  -29.6903  -13.3692   17.7095 H   0  0  0  0  0  0
  -27.8382  -11.2717   18.8730 H   0  0  0  0  0  0
  -27.3832  -12.5551   17.7861 H   0  0  0  0  0  0
  -27.6481  -14.2314   19.4897 H   0  0  0  0  0  0
  -28.6864  -12.1066   21.4346 H   0  0  0  0  0  0
  -28.4614  -13.8060   21.7869 H   0  0  0  0  0  0
  -25.2760   -9.5686   22.4748 H   0  0  0  0  0  0
  -24.0021   -7.4624   22.7442 H   0  0  0  0  0  0
  -21.0855   -8.8777   19.8927 H   0  0  0  0  0  0
  -22.3709  -10.9680   19.6162 H   0  0  0  0  0  0
  -21.2012   -7.6151   23.9734 H   0  0  0  0  0  0
  -21.1466   -6.0509   25.9081 H   0  0  0  0  0  0
  -22.0607   -2.7621   23.2830 H   0  0  0  0  0  0
  -22.4146  -11.9902   22.4782 H   0  0  0  0  0  0
  -21.1111  -13.1233   22.2628 H   0  0  0  0  0  0
  -24.6721  -15.8480   20.5433 H   0  0  0  0  0  0
  -26.3008  -15.6236   20.1452 H   0  0  0  0  0  0
  -26.7148  -32.5504   23.1152 H   0  0  0  0  0  0
  -25.0028  -33.9750   25.0434 H   0  0  0  0  0  0
  -22.7023  -31.3028   21.4045 H   0  0  0  0  0  0
  -23.3729  -35.9683   23.3300 H   0  0  0  0  0  0
  -24.3575  -36.8943   22.2058 H   0  0  0  0  0  0
  -23.7275  -37.6542   23.6667 H   0  0  0  0  0  0
  -26.0532  -31.5856   20.5952 H   0  0  0  0  0  0
  -26.8269  -30.8750   21.9853 H   0  0  0  0  0  0
  -28.1193  -29.0763   21.1629 H   0  0  0  0  0  0
  -26.0637  -25.9410   19.0439 H   0  0  0  0  0  0
  -23.9895  -27.2801   19.0341 H   0  0  0  0  0  0
  -23.7363  -30.5882   19.4017 H   0  0  0  0  0  0
  -22.7459  -29.2393   19.8664 H   0  0  0  0  0  0
  -25.1297  -36.1961   25.0820 H   0  0  0  0  0  0
  -20.9940  -28.3243   24.1391 H   0  0  0  0  0  0
  -20.5617  -26.2287   23.3612 H   0  0  0  0  0  0
  -21.6636  -26.7411   22.1224 H   0  0  0  0  0  0
  -19.6907  -25.6267   21.1218 H   0  0  0  0  0  0
  -19.6668  -27.3158   20.6699 H   0  0  0  0  0  0
  -17.4193  -26.6611   21.4003 H   0  0  0  0  0  0
  -18.0330  -26.0026   22.8979 H   0  0  0  0  0  0
  -19.7943  -30.7196   24.2281 H   0  0  0  0  0  0
  -17.5041  -31.6246   24.5146 H   0  0  0  0  0  0
  -15.5352  -30.2983   23.7643 H   0  0  0  0  0  0
  -15.8653  -28.0817   22.7046 H   0  0  0  0  0  0
  -24.5882  -30.7089   25.7824 H   0  0  0  0  0  0
  -24.8974  -32.2889   26.4942 H   0  0  0  0  0  0
  -25.8099  -30.8875   27.0220 H   0  0  0  0  0  0
  -26.2882  -29.6757   24.1209 H   0  0  0  0  0  0
  -27.4110  -29.7302   25.4594 H   0  0  0  0  0  0
  -27.8711  -30.4332   23.9267 H   0  0  0  0  0  0
  -27.2616  -33.3620   26.2079 H   0  0  0  0  0  0
  -28.3829  -32.6940   25.0310 H   0  0  0  0  0  0
  -28.0723  -31.8474   26.5373 H   0  0  0  0  0  0
  -28.2605  -38.0120   24.7508 H   0  0  0  0  0  0
  -28.1087  -36.2643   24.6278 H   0  0  0  0  0  0
  -27.2295  -37.1461   25.8856 H   0  0  0  0  0  0
  -20.9303  -29.8843   21.6995 H   0  0  0  0  0  0
  -26.0172  -38.2857   24.1401 H   0  0  0  0  0  0
  -33.2392  -19.5871   20.7612 H   0  0  0  0  0  0
  -32.4128  -19.3087   22.3801 H   0  0  0  0  0  0
  -32.5310  -16.8482   22.0450 H   0  0  0  0  0  0
  -33.3917  -17.1085   20.4403 H   0  0  0  0  0  0
  -27.6475  -16.6124   19.1377 H   0  0  0  0  0  0
  -28.6556  -18.0740   18.8631 H   0  0  0  0  0  0
  -30.6505  -16.7170   18.4057 H   0  0  0  0  0  0
  -29.4117  -15.4995   17.9570 H   0  0  0  0  0  0
  -30.7101  -20.8127   22.2240 H   0  0  0  0  0  0
  -29.1291  -20.6761   23.0666 H   0  0  0  0  0  0
  -28.6630  -20.3692   19.2941 H   0  0  0  0  0  0
  -30.4039  -20.5858   19.7008 H   0  0  0  0  0  0
  -31.4461  -18.4073   19.5660 H   0  0  0  0  0  0
  -28.2246  -19.1983   21.4139 H   0  0  0  0  0  0
  -28.4129  -16.6124   21.3465 H   0  0  0  0  0  0
  -29.5834  -24.5453   20.1827 H   0  0  0  0  0  0
  -28.0658  -23.6732   21.2092 H   0  0  0  0  0  0
  -29.9861  -23.2088   21.8990 H   0  0  0  0  0  0
  -30.5164  -22.7997   20.3043 H   0  0  0  0  0  0
  -28.9133  -25.6180   21.8441 H   0  0  0  0  0  0
  -27.2617  -25.3974   21.4142 H   0  0  0  0  0  0
  -30.2574  -17.8098   22.3057 H   0  0  0  0  0  0
  -28.0366  -21.5443   21.2060 H   0  0  0  0  0  0
  1 25  1  0  0  0
  1 30  2  0  0  0
  1 84  1  0  0  0
  2  3  1  0  0  0
  2 25  1  0  0  0
  2 86  1  0  0  0
  2 87  1  0  0  0
  3  4  1  0  0  0
  3 88  1  0  0  0
  3 89  1  0  0  0
  4  5  1  0  0  0
  4 90  1  0  0  0
  4 91  1  0  0  0
  5  6  1  0  0  0
  5 26  1  0  0  0
  5 92  1  0  0  0
  6 25  1  0  0  0
  6 93  1  0  0  0
  6 94  1  0  0  0
  7  8  2  0  0  0
  7 26  1  0  0  0
  7 29  1  0  0  0
  8  9  1  0  0  0
  8 22  1  0  0  0
  9 10  1  0  0  0
  9 27  2  0  0  0
 10 11  2  0  0  0
 10 15  1  0  0  0
 11 12  1  0  0  0
 11 95  1  0  0  0
 12 13  2  0  0  0
 12 96  1  0  0  0
 13 14  1  0  0  0
 13 31  1  0  0  0
 14 15  2  0  0  0
 14 97  1  0  0  0
 15 98  1  0  0  0
 16 17  2  0  0  0
 16 21  1  0  0  0
 16 31  1  0  0  0
 17 18  1  0  0  0
 17 99  1  0  0  0
 18 19  2  0  0  0
 18100  1  0  0  0
 19 20  1  0  0  0
 19 24  1  0  0  0
 20 21  2  0  0  0
 20101  1  0  0  0
 21 23  1  0  0  0
 22 28  1  0  0  0
 22 32  2  0  0  0
 26 27  1  0  0  0
 28102  1  0  0  0
 28103  1  0  0  0
 29104  1  0  0  0
 29105  1  0  0  0
 33 34  1  0  0  0
 33 66  1  0  0  0
 33 70  2  0  0  0
 34 36  1  0  0  0
 34 59  1  0  0  0
 34106  1  0  0  0
 35 44  2  0  0  0
 35 45  1  0  0  0
 35 68  1  0  0  0
 36 56  1  0  0  0
 36107  1  0  0  0
 37 39  1  0  0  0
 37 47  1  0  0  0
 37 66  1  0  0  0
 37108  1  0  0  0
 38 43  2  0  0  0
 38 46  1  0  0  0
 38 47  1  0  0  0
 39 64  1  0  0  0
 39 67  2  0  0  0
 40 52  1  0  0  0
 40 53  2  0  0  0
 40 58  1  0  0  0
 41109  1  0  0  0
 41110  1  0  0  0
 41111  1  0  0  0
 41 48  1  0  0  0
 42 43  1  0  0  0
 42 66  1  0  0  0
 42112  1  0  0  0
 42113  1  0  0  0
 43 44  1  0  0  0
 44114  1  0  0  0
 45 46  2  0  0  0
 45115  1  0  0  0
 46116  1  0  0  0
 47117  1  0  0  0
 47118  1  0  0  0
 48 56  1  0  0  0
 48 65  1  0  0  0
 48119  1  0  0  0
 49 50  1  0  0  0
 49 53  1  0  0  0
 49 64  1  0  0  0
 49120  1  0  0  0
 50 51  1  0  0  0
 50121  1  0  0  0
 50122  1  0  0  0
 51 52  1  0  0  0
 51123  1  0  0  0
 51124  1  0  0  0
 52125  1  0  0  0
 52126  1  0  0  0
 53 54  1  0  0  0
 54 55  2  0  0  0
 54127  1  0  0  0
 55 57  1  0  0  0
 55128  1  0  0  0
 56 69  2  0  0  0
 57 58  2  0  0  0
 57129  1  0  0  0
 58130  1  0  0  0
 59 60  1  0  0  0
 59 61  1  0  0  0
 59 62  1  0  0  0
 60131  1  0  0  0
 60132  1  0  0  0
 60133  1  0  0  0
 61134  1  0  0  0
 61135  1  0  0  0
 61136  1  0  0  0
 62137  1  0  0  0
 62138  1  0  0  0
 62139  1  0  0  0
 63 65  1  0  0  0
 63140  1  0  0  0
 63141  1  0  0  0
 63142  1  0  0  0
 64143  1  0  0  0
 65144  1  0  0  0
 68 82  1  0  0  0
 71 72  1  0  0  0
 71145  1  0  0  0
 71146  1  0  0  0
 71 77  1  0  0  0
 72 77  1  0  0  0
 72147  1  0  0  0
 72148  1  0  0  0
 73 74  1  0  0  0
 73149  1  0  0  0
 73150  1  0  0  0
 73 79  1  0  0  0
 74 84  1  0  0  0
 74151  1  0  0  0
 74152  1  0  0  0
 75 85  1  0  0  0
 75153  1  0  0  0
 75154  1  0  0  0
 75 78  1  0  0  0
 76 78  1  0  0  0
 76 85  1  0  0  0
 76155  1  0  0  0
 76156  1  0  0  0
 77157  1  0  0  0
 77 83  1  0  0  0
 78 83  1  0  0  0
 78158  1  0  0  0
 79 83  1  0  0  0
 79 84  1  0  0  0
 79159  1  0  0  0
 80 81  1  0  0  0
 80 82  1  0  0  0
 80160  1  0  0  0
 80161  1  0  0  0
 81162  1  0  0  0
 81163  1  0  0  0
 81 85  1  0  0  0
 82164  1  0  0  0
 82165  1  0  0  0
 83166  1  0  0  0
 85167  1  0  0  0
M  CHG  1  85   1
M  ISO  4   1 100  68 101  82 101  84 100
M  END
> <chiral flag>
0

> <version>
0

> <s_m_source_file>
/data/baiqing/PycharmProjects/Reinvent-master-3.2/result/LINK_invent/BTK/process_docking_weight1_custom_sum_contain_oxygen_bond_distance_aromatic_linkinvent_7_9_3/rearranged_h_0142.sdf

> <i_m_source_file_index>
39

> <r_mmod_Potential_Energy-OPLS-2005>
420.832244873047

> <r_mmod_Stretch_Energy-OPLS-2005>
61.8489456176758

> <r_mmod_Bend_Energy-OPLS-2005>
393.217956542969

> <r_mmod_Torsional_Energy-OPLS-2005>
436.263397216797

> <r_mmod_Improper_Torsional_Energy-OPLS-2005>
26.9104881286621

> <r_mmod_Van_der_Waal_Energy-OPLS-2005>
129.787734985352

> <r_mmod_Electrostatic_Energy-OPLS-2005>
-211.75862121582

> <r_mmod_Solvation_Energy-OPLS-2005>
-450.662109375

> <b_mmod_Minimization_Converged-OPLS-2005>
0

> <r_mmod_RMS_Derivative-OPLS-2005>
2.23077082633972

$$$$
40
                    3D
 Structure written by MMmdl.
157166  0  0  1  0            999 V2000
  -30.4306  -15.1835   20.3825 C   0  0  0  0  0  0
  -30.4451  -12.7437   19.5264 C   0  0  0  0  0  0
  -29.5330  -12.5701   18.2855 C   0  0  0  0  0  0
  -28.0756  -12.3075   18.7061 C   0  0  0  0  0  0
  -27.6181  -13.2649   19.8344 C   0  0  2  0  0  0
  -28.6548  -13.3775   20.9730 C   0  0  0  0  0  0
  -25.2393  -13.8243   20.5740 C   0  0  0  0  0  0
  -24.1746  -13.0442   20.9257 C   0  0  0  0  0  0
  -24.6389  -11.6934   20.8768 C   0  0  0  0  0  0
  -23.9083  -10.4295   21.0413 C   0  0  0  0  0  0
  -24.3631   -9.4208   21.9191 C   0  0  0  0  0  0
  -23.6300   -8.2243   22.0755 C   0  0  0  0  0  0
  -22.4281   -8.0282   21.3545 C   0  0  0  0  0  0
  -21.9925   -9.0258   20.4648 C   0  0  0  0  0  0
  -22.7255  -10.2137   20.3059 C   0  0  0  0  0  0
  -21.6853   -6.0738   22.5278 C   0  0  0  0  0  0
  -21.4015   -6.5638   23.8213 C   0  0  0  0  0  0
  -21.3661   -5.6789   24.9174 C   0  0  0  0  0  0
  -21.6045   -4.3052   24.7224 C   0  0  0  0  0  0
  -21.8816   -3.8147   23.4344 C   0  0  0  0  0  0
  -21.9194   -4.6965   22.3402 C   0  0  0  0  0  0
  -22.7761  -13.5189   21.1910 C   0  0  0  0  0  0
  -22.1659   -4.2148   21.0979 F   0  0  0  0  0  0
  -21.5630   -3.4537   25.7740 F   0  0  0  0  0  0
  -29.9033  -13.8671   20.3673 N   0  0  0  0  0  0
  -26.2826  -12.9501   20.3245 N   0  0  0  0  0  0
  -25.9324  -11.6613   20.5748 N   0  0  0  0  0  0
  -22.0416  -12.8170   22.0461 N   0  0  0  0  0  0
  -25.4023  -15.1987   20.4146 N   0  0  0  0  0  0
  -31.6392  -15.2369   20.1047 O   0  0  0  0  0  0
  -21.6638   -6.8887   21.4240 O   0  0  0  0  0  0
  -22.3438  -14.5495   20.6754 O   0  0  0  0  0  0
  -24.6589  -31.8271   23.1715 C   0  0  0  0  0  0
  -25.9313  -32.4594   23.8140 C   0  0  1  0  0  0
  -27.2160  -26.9768   20.1761 C   0  0  0  0  0  0
  -25.6005  -33.8396   24.2076 N   0  0  0  0  0  0
  -23.4686  -30.4408   21.5205 C   0  0  2  0  0  0
  -24.9196  -28.8318   20.1122 C   0  0  0  0  0  0
  -22.7621  -29.4482   22.4788 C   0  0  0  0  0  0
  -18.0321  -28.1419   22.8436 C   0  0  0  0  0  0
  -24.1502  -36.7198   23.2642 C   0  0  0  0  0  0
  -26.0335  -30.6491   21.3940 C   0  0  0  0  0  0
  -26.1023  -29.2432   20.7388 C   0  0  0  0  0  0
  -27.2475  -28.3355   20.7465 C   0  0  0  0  0  0
  -26.0081  -26.7046   19.4986 C   0  0  0  0  0  0
  -24.8932  -27.5797   19.4749 C   0  0  0  0  0  0
  -23.7038  -29.7540   20.1468 C   0  0  0  0  0  0
  -25.4135  -36.2956   24.0307 C   0  0  1  0  0  0
  -20.5934  -28.3772   23.1175 C   0  0  2  0  0  0
  -20.6820  -26.9466   22.5383 C   0  0  0  0  0  0
  -19.5802  -26.6396   21.5191 C   0  0  0  0  0  0
  -18.1969  -26.7951   22.1588 C   0  0  0  0  0  0
  -19.1579  -28.8908   23.2793 C   0  0  0  0  0  0
  -18.9501  -30.1488   23.8844 C   0  0  0  0  0  0
  -17.6504  -30.6607   24.0554 C   0  0  0  0  0  0
  -25.9103  -34.9348   23.5013 C   0  0  0  0  0  0
  -16.5386  -29.9097   23.6348 C   0  0  0  0  0  0
  -16.7304  -28.6522   23.0346 C   0  0  0  0  0  0
  -26.4595  -31.6513   25.0640 C   0  0  0  0  0  0
  -25.3722  -31.3739   26.1281 C   0  0  0  0  0  0
  -27.0494  -30.2885   24.6344 C   0  0  0  0  0  0
  -27.6081  -32.4321   25.7450 C   0  0  0  0  0  0
  -27.5586  -37.1732   24.8459 C   0  0  0  0  0  0
  -21.4304  -29.3059   22.3517 N   0  0  0  0  0  0
  -26.4271  -37.3705   23.9436 N   0  0  0  0  0  0
  -24.7409  -30.9970   22.0831 N   0  0  0  0  0  0
  -23.4175  -28.8074   23.3045 O   0  0  0  0  0  0
  -28.2368  -25.9091   20.2443 O   0  0  0  0  0  0
  -26.5689  -34.8893   22.4595 O   0  0  0  0  0  0
  -23.5683  -32.1236   23.6852 O   0  0  0  0  0  0
  -28.4291  -18.7257   21.0417 C   0  0  0  0  0  0
  -29.0728  -21.1413   20.3073 C   0  0  0  0  0  0
  -28.2165  -20.1906   20.9897 C   0  0  0  0  0  0
  -30.1271  -20.3055   19.7173 C   0  0  0  0  0  0
  -29.5187  -17.9662   20.4516 C   0  0  0  0  0  0
  -28.5356  -23.6103   19.0284 C   0  0  0  0  0  0
  -29.0273  -22.8921   20.2767 C   0  0  1  0  0  0
  -27.9813  -24.2976   20.2556 C   0  0  1  0  0  0
  -27.0088  -20.7517   21.7129 C   0  0  0  0  0  0
  -33.2902  -20.1486   19.5279 C   0  0  0  0  0  0
  -31.1778  -21.0326   18.8756 C   0  0  0  0  0  0
  -30.3208  -18.8882   19.7869 N   0  0  0  0  0  0
  -29.5852  -16.3683   20.5753 N   0  0  0  0  0  0
  -32.3096  -20.2444   18.5028 O   0  0  0  0  0  0
  -31.4658  -12.9449   19.1999 H   0  0  0  0  0  0
  -30.5003  -11.8180   20.1024 H   0  0  0  0  0  0
  -29.8942  -11.7572   17.6536 H   0  0  0  0  0  0
  -29.5771  -13.4758   17.6797 H   0  0  0  0  0  0
  -28.0107  -11.2755   19.0533 H   0  0  0  0  0  0
  -27.4089  -12.3836   17.8461 H   0  0  0  0  0  0
  -27.5536  -14.2466   19.3632 H   0  0  0  0  0  0
  -28.7976  -12.4196   21.4752 H   0  0  0  0  0  0
  -28.3098  -14.0768   21.7363 H   0  0  0  0  0  0
  -25.2775   -9.5681   22.4767 H   0  0  0  0  0  0
  -24.0008   -7.4634   22.7476 H   0  0  0  0  0  0
  -21.0855   -8.8782   19.8954 H   0  0  0  0  0  0
  -22.3716  -10.9677   19.6166 H   0  0  0  0  0  0
  -21.2002   -7.6144   23.9717 H   0  0  0  0  0  0
  -21.1487   -6.0519   25.9080 H   0  0  0  0  0  0
  -22.0597   -2.7605   23.2843 H   0  0  0  0  0  0
  -22.4032  -11.9812   22.4814 H   0  0  0  0  0  0
  -21.1039  -13.1201   22.2701 H   0  0  0  0  0  0
  -24.6211  -15.8388   20.5122 H   0  0  0  0  0  0
  -26.2230  -15.6394   20.0214 H   0  0  0  0  0  0
  -26.7368  -32.5160   23.0839 H   0  0  0  0  0  0
  -25.0132  -33.9464   25.0210 H   0  0  0  0  0  0
  -22.7830  -31.2731   21.3498 H   0  0  0  0  0  0
  -23.3795  -35.9496   23.3228 H   0  0  0  0  0  0
  -24.3600  -36.8911   22.2075 H   0  0  0  0  0  0
  -23.7234  -37.6353   23.6737 H   0  0  0  0  0  0
  -26.2057  -31.3958   20.6184 H   0  0  0  0  0  0
  -26.8974  -30.7027   22.0441 H   0  0  0  0  0  0
  -28.1453  -28.6445   21.2622 H   0  0  0  0  0  0
  -25.9004  -25.7514   19.0003 H   0  0  0  0  0  0
  -23.9925  -27.2571   18.9702 H   0  0  0  0  0  0
  -23.8556  -30.5205   19.3857 H   0  0  0  0  0  0
  -22.8146  -29.2042   19.8331 H   0  0  0  0  0  0
  -25.1327  -36.1729   25.0797 H   0  0  0  0  0  0
  -21.0012  -28.3412   24.1304 H   0  0  0  0  0  0
  -20.5732  -26.2401   23.3625 H   0  0  0  0  0  0
  -21.6689  -26.7490   22.1173 H   0  0  0  0  0  0
  -19.6997  -25.6301   21.1249 H   0  0  0  0  0  0
  -19.6751  -27.3178   20.6696 H   0  0  0  0  0  0
  -17.4247  -26.6671   21.3984 H   0  0  0  0  0  0
  -18.0380  -26.0100   22.8997 H   0  0  0  0  0  0
  -19.7991  -30.7291   24.2196 H   0  0  0  0  0  0
  -17.5080  -31.6286   24.5177 H   0  0  0  0  0  0
  -15.5394  -30.2994   23.7727 H   0  0  0  0  0  0
  -15.8691  -28.0843   22.7090 H   0  0  0  0  0  0
  -24.5934  -30.7081   25.7557 H   0  0  0  0  0  0
  -24.8885  -32.2933   26.4578 H   0  0  0  0  0  0
  -25.7937  -30.8965   27.0132 H   0  0  0  0  0  0
  -26.3148  -29.6544   24.1373 H   0  0  0  0  0  0
  -27.4078  -29.7255   25.4968 H   0  0  0  0  0  0
  -27.9066  -30.4065   23.9713 H   0  0  0  0  0  0
  -27.2652  -33.3675   26.1880 H   0  0  0  0  0  0
  -28.3969  -32.6797   25.0338 H   0  0  0  0  0  0
  -28.0669  -31.8543   26.5485 H   0  0  0  0  0  0
  -28.2505  -38.0114   24.7597 H   0  0  0  0  0  0
  -28.1174  -36.2647   24.6162 H   0  0  0  0  0  0
  -27.2313  -37.1216   25.8853 H   0  0  0  0  0  0
  -20.9568  -29.8713   21.6609 H   0  0  0  0  0  0
  -26.0111  -38.2746   24.1502 H   0  0  0  0  0  0
  -27.6944  -18.1508   21.5893 H   0  0  0  0  0  0
  -27.7993  -23.0950   18.4146 H   0  0  0  0  0  0
  -29.2880  -24.1435   18.4518 H   0  0  0  0  0  0
  -30.0085  -23.1752   20.6517 H   0  0  0  0  0  0
  -26.9554  -24.0942   20.5564 H   0  0  0  0  0  0
  -26.5774  -20.0281   22.4044 H   0  0  0  0  0  0
  -26.2404  -21.0356   20.9930 H   0  0  0  0  0  0
  -27.2818  -21.6359   22.2878 H   0  0  0  0  0  0
  -34.1271  -19.5454   19.1745 H   0  0  0  0  0  0
  -32.8957  -19.6781   20.4292 H   0  0  0  0  0  0
  -33.6800  -21.1317   19.7950 H   0  0  0  0  0  0
  -31.5028  -21.9403   19.3846 H   0  0  0  0  0  0
  -30.6873  -21.3568   17.9567 H   0  0  0  0  0  0
  -28.6940  -16.0258   20.8946 H   0  0  0  0  0  0
  1 25  1  0  0  0
  1 30  2  0  0  0
  1 83  1  0  0  0
  2  3  1  0  0  0
  2 25  1  0  0  0
  2 85  1  0  0  0
  2 86  1  0  0  0
  3  4  1  0  0  0
  3 87  1  0  0  0
  3 88  1  0  0  0
  4  5  1  0  0  0
  4 89  1  0  0  0
  4 90  1  0  0  0
  5  6  1  0  0  0
  5 26  1  0  0  0
  5 91  1  0  0  0
  6 25  1  0  0  0
  6 92  1  0  0  0
  6 93  1  0  0  0
  7  8  2  0  0  0
  7 26  1  0  0  0
  7 29  1  0  0  0
  8  9  1  0  0  0
  8 22  1  0  0  0
  9 10  1  0  0  0
  9 27  2  0  0  0
 10 11  2  0  0  0
 10 15  1  0  0  0
 11 12  1  0  0  0
 11 94  1  0  0  0
 12 13  2  0  0  0
 12 95  1  0  0  0
 13 14  1  0  0  0
 13 31  1  0  0  0
 14 15  2  0  0  0
 14 96  1  0  0  0
 15 97  1  0  0  0
 16 17  2  0  0  0
 16 21  1  0  0  0
 16 31  1  0  0  0
 17 18  1  0  0  0
 17 98  1  0  0  0
 18 19  2  0  0  0
 18 99  1  0  0  0
 19 20  1  0  0  0
 19 24  1  0  0  0
 20 21  2  0  0  0
 20100  1  0  0  0
 21 23  1  0  0  0
 22 28  1  0  0  0
 22 32  2  0  0  0
 26 27  1  0  0  0
 28101  1  0  0  0
 28102  1  0  0  0
 29103  1  0  0  0
 29104  1  0  0  0
 33 34  1  0  0  0
 33 66  1  0  0  0
 33 70  2  0  0  0
 34 36  1  0  0  0
 34 59  1  0  0  0
 34105  1  0  0  0
 35 44  2  0  0  0
 35 45  1  0  0  0
 35 68  1  0  0  0
 36 56  1  0  0  0
 36106  1  0  0  0
 37 39  1  0  0  0
 37 47  1  0  0  0
 37 66  1  0  0  0
 37107  1  0  0  0
 38 43  2  0  0  0
 38 46  1  0  0  0
 38 47  1  0  0  0
 39 64  1  0  0  0
 39 67  2  0  0  0
 40 52  1  0  0  0
 40 53  2  0  0  0
 40 58  1  0  0  0
 41108  1  0  0  0
 41109  1  0  0  0
 41110  1  0  0  0
 41 48  1  0  0  0
 42 43  1  0  0  0
 42 66  1  0  0  0
 42111  1  0  0  0
 42112  1  0  0  0
 43 44  1  0  0  0
 44113  1  0  0  0
 45 46  2  0  0  0
 45114  1  0  0  0
 46115  1  0  0  0
 47116  1  0  0  0
 47117  1  0  0  0
 48 56  1  0  0  0
 48 65  1  0  0  0
 48118  1  0  0  0
 49 50  1  0  0  0
 49 53  1  0  0  0
 49 64  1  0  0  0
 49119  1  0  0  0
 50 51  1  0  0  0
 50120  1  0  0  0
 50121  1  0  0  0
 51 52  1  0  0  0
 51122  1  0  0  0
 51123  1  0  0  0
 52124  1  0  0  0
 52125  1  0  0  0
 53 54  1  0  0  0
 54 55  2  0  0  0
 54126  1  0  0  0
 55 57  1  0  0  0
 55127  1  0  0  0
 56 69  2  0  0  0
 57 58  2  0  0  0
 57128  1  0  0  0
 58129  1  0  0  0
 59 60  1  0  0  0
 59 61  1  0  0  0
 59 62  1  0  0  0
 60130  1  0  0  0
 60131  1  0  0  0
 60132  1  0  0  0
 61133  1  0  0  0
 61134  1  0  0  0
 61135  1  0  0  0
 62136  1  0  0  0
 62137  1  0  0  0
 62138  1  0  0  0
 63 65  1  0  0  0
 63139  1  0  0  0
 63140  1  0  0  0
 63141  1  0  0  0
 64142  1  0  0  0
 65143  1  0  0  0
 68 78  1  0  0  0
 71 73  2  0  0  0
 71 75  1  0  0  0
 71144  1  0  0  0
 72 73  1  0  0  0
 72 74  2  0  0  0
 72 77  1  0  0  0
 73 79  1  0  0  0
 74 81  1  0  0  0
 74 82  1  0  0  0
 75 82  2  0  0  0
 75 83  1  0  0  0
 76 77  1  0  0  0
 76 78  1  0  0  0
 76145  1  0  0  0
 76146  1  0  0  0
 77 78  1  0  0  0
 77147  1  0  0  0
 78148  1  0  0  0
 79149  1  0  0  0
 79150  1  0  0  0
 79151  1  0  0  0
 80 84  1  0  0  0
 80152  1  0  0  0
 80153  1  0  0  0
 80154  1  0  0  0
 81 84  1  0  0  0
 81155  1  0  0  0
 81156  1  0  0  0
 83157  1  0  0  0
M  ISO  4   1 100  68 101  78 101  83 100
M  END
> <chiral flag>
0

> <version>
0

> <s_m_source_file>
/data/baiqing/PycharmProjects/Reinvent-master-3.2/result/LINK_invent/BTK/process_docking_weight1_custom_sum_contain_oxygen_bond_distance_aromatic_linkinvent_7_9_3/rearranged_h_0142.sdf

> <i_m_source_file_index>
40

> <r_mmod_Potential_Energy-OPLS-2005>
895.981384277344

> <r_mmod_Stretch_Energy-OPLS-2005>
461.018951416016

> <r_mmod_Bend_Energy-OPLS-2005>
397.111724853516

> <r_mmod_Torsional_Energy-OPLS-2005>
236.731903076172

> <r_mmod_Improper_Torsional_Energy-OPLS-2005>
3.58193039894104

> <r_mmod_Van_der_Waal_Energy-OPLS-2005>
128.549362182617

> <r_mmod_Electrostatic_Energy-OPLS-2005>
-463.891387939453

> <r_mmod_Solvation_Energy-OPLS-2005>
-246.701431274414

> <b_mmod_Minimization_Converged-OPLS-2005>
0

> <r_mmod_RMS_Derivative-OPLS-2005>
1.9566193819046

$$$$
41
                    3D
 Structure written by MMmdl.
182192  0  0  1  0            999 V2000
  -30.7366  -14.4360   20.6330 C   0  0  0  0  0  0
  -30.4200  -12.3120   19.4018 C   0  0  0  0  0  0
  -29.4836  -12.5110   18.1944 C   0  0  0  0  0  0
  -28.0093  -12.3491   18.6133 C   0  0  0  0  0  0
  -27.6564  -13.1849   19.8695 C   0  0  2  0  0  0
  -28.7031  -12.9595   20.9854 C   0  0  0  0  0  0
  -25.2583  -13.8094   20.5668 C   0  0  0  0  0  0
  -24.1825  -13.0410   20.9177 C   0  0  0  0  0  0
  -24.6354  -11.6864   20.8737 C   0  0  0  0  0  0
  -23.9014  -10.4269   21.0407 C   0  0  0  0  0  0
  -24.3586   -9.4193   21.9182 C   0  0  0  0  0  0
  -23.6270   -8.2228   22.0751 C   0  0  0  0  0  0
  -22.4253   -8.0269   21.3544 C   0  0  0  0  0  0
  -21.9877   -9.0235   20.4643 C   0  0  0  0  0  0
  -22.7196  -10.2114   20.3049 C   0  0  0  0  0  0
  -21.6840   -6.0728   22.5286 C   0  0  0  0  0  0
  -21.4008   -6.5636   23.8219 C   0  0  0  0  0  0
  -21.3655   -5.6793   24.9184 C   0  0  0  0  0  0
  -21.6041   -4.3055   24.7236 C   0  0  0  0  0  0
  -21.8817   -3.8144   23.4360 C   0  0  0  0  0  0
  -21.9183   -4.6955   22.3410 C   0  0  0  0  0  0
  -22.7854  -13.5229   21.1841 C   0  0  0  0  0  0
  -22.1653   -4.2137   21.0988 F   0  0  0  0  0  0
  -21.5624   -3.4539   25.7750 F   0  0  0  0  0  0
  -30.0334  -13.2827   20.4393 N   0  0  0  0  0  0
  -26.2990  -12.9215   20.3347 N   0  0  0  0  0  0
  -25.9269  -11.6402   20.5765 N   0  0  0  0  0  0
  -22.0495  -12.8234   22.0408 N   0  0  0  0  0  0
  -25.4314  -15.1812   20.4065 N   0  0  0  0  0  0
  -31.8387  -14.6320   20.1093 O   0  0  0  0  0  0
  -21.6623   -6.8866   21.4246 O   0  0  0  0  0  0
  -22.3551  -14.5540   20.6686 O   0  0  0  0  0  0
  -24.6110  -31.8704   23.2125 C   0  0  0  0  0  0
  -25.9012  -32.4843   23.8420 C   0  0  1  0  0  0
  -27.2590  -27.4643   20.1006 C   0  0  0  0  0  0
  -25.5878  -33.8642   24.2348 N   0  0  0  0  0  0
  -23.4008  -30.4909   21.5504 C   0  0  2  0  0  0
  -24.8554  -28.9572   20.1216 C   0  0  0  0  0  0
  -22.7404  -29.4667   22.5002 C   0  0  0  0  0  0
  -18.0271  -28.1379   22.8493 C   0  0  0  0  0  0
  -24.1484  -36.7324   23.2638 C   0  0  0  0  0  0
  -25.9259  -30.8434   21.3650 C   0  0  0  0  0  0
  -26.0100  -29.4756   20.7226 C   0  0  0  0  0  0
  -27.2125  -28.7352   20.7234 C   0  0  0  0  0  0
  -26.0886  -26.9585   19.4995 C   0  0  0  0  0  0
  -24.8867  -27.6918   19.5110 C   0  0  0  0  0  0
  -23.6129  -29.8180   20.1669 C   0  0  0  0  0  0
  -25.4104  -36.3130   24.0345 C   0  0  1  0  0  0
  -20.5861  -28.3665   23.1323 C   0  0  2  0  0  0
  -20.6764  -26.9402   22.5421 C   0  0  0  0  0  0
  -19.5745  -26.6389   21.5214 C   0  0  0  0  0  0
  -18.1921  -26.7927   22.1621 C   0  0  0  0  0  0
  -19.1519  -28.8839   23.2903 C   0  0  0  0  0  0
  -18.9449  -30.1447   23.8912 C   0  0  0  0  0  0
  -17.6451  -30.6585   24.0569 C   0  0  0  0  0  0
  -25.9027  -34.9492   23.5146 C   0  0  0  0  0  0
  -16.5343  -29.9089   23.6324 C   0  0  0  0  0  0
  -16.7261  -28.6506   23.0344 C   0  0  0  0  0  0
  -26.4459  -31.6607   25.0728 C   0  0  0  0  0  0
  -25.3742  -31.3685   26.1482 C   0  0  0  0  0  0
  -27.0287  -30.3064   24.6063 C   0  0  0  0  0  0
  -27.6037  -32.4323   25.7489 C   0  0  0  0  0  0
  -27.5585  -37.1815   24.8463 C   0  0  0  0  0  0
  -21.4137  -29.3032   22.3731 N   0  0  0  0  0  0
  -26.4294  -37.3810   23.9410 N   0  0  0  0  0  0
  -24.6633  -31.0826   22.1013 N   0  0  0  0  0  0
  -23.4175  -28.8214   23.3049 O   0  0  0  0  0  0
  -28.3786  -26.6652   20.0143 O   0  0  0  0  0  0
  -26.5594  -34.8936   22.4710 O   0  0  0  0  0  0
  -23.5309  -32.1441   23.7528 O   0  0  0  0  0  0
  -30.3592  -20.3456   22.0045 C   0  0  0  0  0  0
  -30.4977  -21.7366   21.8272 C   0  0  0  0  0  0
  -31.4649  -21.3439   19.6368 C   0  0  0  0  0  0
  -31.2768  -19.9460   19.7737 C   0  0  0  0  0  0
  -30.7439  -19.4386   20.9896 C   0  0  0  0  0  0
  -31.0590  -22.2504   20.6370 C   0  0  0  0  0  0
  -35.6527  -17.4109   20.2950 C   0  0  0  0  0  0
  -35.5130  -16.0104   19.7510 C   0  0  0  0  0  0
  -29.1748  -17.6546   21.2591 C   0  0  0  0  0  0
  -31.4096  -17.4608   22.2206 C   0  0  0  0  0  0
  -29.0219  -16.1324   21.0748 C   0  0  0  0  0  0
  -31.0443  -15.9822   22.5136 C   0  0  0  0  0  0
  -34.9432  -17.1808   18.9798 C   0  0  0  0  0  0
  -31.1195  -19.5544   17.2429 C   0  0  0  0  0  0
  -33.4412  -17.3513   18.8597 C   0  0  0  0  0  0
  -30.6232  -25.9317   20.4433 C   0  0  0  0  0  0
  -29.5417  -26.9815   20.7705 C   0  0  0  0  0  0
  -30.3461  -24.5230   21.0041 C   0  0  0  0  0  0
  -31.6220  -19.0203   18.5980 C   0  0  1  0  0  0
  -30.5734  -18.0538   21.1778 N   0  0  0  0  0  0
  -30.2021  -15.3407   21.4870 N   0  0  0  0  0  0
  -33.0736  -18.7490   18.5602 N   0  3  0  0  0  0
  -31.2444  -23.5956   20.3915 O   0  0  0  0  0  0
  -31.4618  -12.4169   19.0922 H   0  0  0  0  0  0
  -30.3308  -11.2961   19.7902 H   0  0  0  0  0  0
  -29.7264  -11.7969   17.4060 H   0  0  0  0  0  0
  -29.6371  -13.5031   17.7680 H   0  0  0  0  0  0
  -27.8325  -11.2913   18.8127 H   0  0  0  0  0  0
  -27.3506  -12.6150   17.7860 H   0  0  0  0  0  0
  -27.6864  -14.2233   19.5549 H   0  0  0  0  0  0
  -28.6881  -11.9162   21.3026 H   0  0  0  0  0  0
  -28.4570  -13.5263   21.8829 H   0  0  0  0  0  0
  -25.2740   -9.5671   22.4745 H   0  0  0  0  0  0
  -23.9977   -7.4620   22.7478 H   0  0  0  0  0  0
  -21.0802   -8.8757   19.8951 H   0  0  0  0  0  0
  -22.3661  -10.9655   19.6157 H   0  0  0  0  0  0
  -21.2002   -7.6148   23.9719 H   0  0  0  0  0  0
  -21.1475   -6.0526   25.9083 H   0  0  0  0  0  0
  -22.0592   -2.7604   23.2868 H   0  0  0  0  0  0
  -22.4108  -11.9889   22.4784 H   0  0  0  0  0  0
  -21.1119  -13.1259   22.2628 H   0  0  0  0  0  0
  -24.6624  -15.8342   20.5103 H   0  0  0  0  0  0
  -26.2796  -15.6170   20.0698 H   0  0  0  0  0  0
  -26.7089  -32.5588   23.1200 H   0  0  0  0  0  0
  -25.0038  -33.9811   25.0498 H   0  0  0  0  0  0
  -22.6883  -31.3058   21.4074 H   0  0  0  0  0  0
  -23.3751  -35.9652   23.3308 H   0  0  0  0  0  0
  -24.3581  -36.8929   22.2051 H   0  0  0  0  0  0
  -23.7230  -37.6530   23.6644 H   0  0  0  0  0  0
  -26.0311  -31.6051   20.5910 H   0  0  0  0  0  0
  -26.8159  -30.9065   21.9791 H   0  0  0  0  0  0
  -28.0908  -29.1542   21.1929 H   0  0  0  0  0  0
  -26.1127  -25.9899   19.0205 H   0  0  0  0  0  0
  -24.0014  -27.2814   19.0454 H   0  0  0  0  0  0
  -23.7184  -30.5893   19.4033 H   0  0  0  0  0  0
  -22.7413  -29.2303   19.8734 H   0  0  0  0  0  0
  -25.1278  -36.2006   25.0839 H   0  0  0  0  0  0
  -20.9944  -28.3227   24.1448 H   0  0  0  0  0  0
  -20.5671  -26.2269   23.3603 H   0  0  0  0  0  0
  -21.6635  -26.7454   22.1214 H   0  0  0  0  0  0
  -19.6909  -25.6304   21.1233 H   0  0  0  0  0  0
  -19.6688  -27.3209   20.6750 H   0  0  0  0  0  0
  -17.4193  -26.6679   21.4019 H   0  0  0  0  0  0
  -18.0319  -26.0065   22.9013 H   0  0  0  0  0  0
  -19.7928  -30.7259   24.2285 H   0  0  0  0  0  0
  -17.5010  -31.6268   24.5169 H   0  0  0  0  0  0
  -15.5346  -30.2997   23.7645 H   0  0  0  0  0  0
  -15.8660  -28.0837   22.7043 H   0  0  0  0  0  0
  -24.5907  -30.7043   25.7814 H   0  0  0  0  0  0
  -24.8942  -32.2829   26.4980 H   0  0  0  0  0  0
  -25.8117  -30.8820   27.0208 H   0  0  0  0  0  0
  -26.2815  -29.6836   24.1127 H   0  0  0  0  0  0
  -27.4086  -29.7284   25.4495 H   0  0  0  0  0  0
  -27.8638  -30.4405   23.9183 H   0  0  0  0  0  0
  -27.2651  -33.3604   26.2108 H   0  0  0  0  0  0
  -28.3824  -32.6917   25.0302 H   0  0  0  0  0  0
  -28.0728  -31.8422   26.5369 H   0  0  0  0  0  0
  -28.2602  -38.0115   24.7531 H   0  0  0  0  0  0
  -28.1083  -36.2651   24.6266 H   0  0  0  0  0  0
  -27.2306  -37.1440   25.8866 H   0  0  0  0  0  0
  -20.9293  -29.8747   21.6952 H   0  0  0  0  0  0
  -26.0191  -38.2892   24.1416 H   0  0  0  0  0  0
  -29.9384  -19.9807   22.9306 H   0  0  0  0  0  0
  -30.1838  -22.3894   22.6282 H   0  0  0  0  0  0
  -31.8965  -21.7478   18.7334 H   0  0  0  0  0  0
  -36.6383  -17.8705   20.2578 H   0  0  0  0  0  0
  -35.0493  -17.6760   21.1617 H   0  0  0  0  0  0
  -34.8157  -15.3434   20.2566 H   0  0  0  0  0  0
  -36.4088  -15.5327   19.3579 H   0  0  0  0  0  0
  -28.7795  -17.9427   22.2354 H   0  0  0  0  0  0
  -28.5741  -18.1840   20.5154 H   0  0  0  0  0  0
  -32.4525  -17.5153   21.9078 H   0  0  0  0  0  0
  -31.3519  -18.0402   23.1440 H   0  0  0  0  0  0
  -28.8436  -15.9770   20.0104 H   0  0  0  0  0  0
  -28.1301  -15.7850   21.5970 H   0  0  0  0  0  0
  -30.4807  -15.9403   23.4462 H   0  0  0  0  0  0
  -31.9532  -15.4072   22.7037 H   0  0  0  0  0  0
  -35.4927  -17.4594   18.0818 H   0  0  0  0  0  0
  -30.0482  -19.7540   17.2869 H   0  0  0  0  0  0
  -31.2757  -18.8205   16.4519 H   0  0  0  0  0  0
  -31.6157  -20.4746   16.9368 H   0  0  0  0  0  0
  -32.9696  -17.0325   19.7878 H   0  0  0  0  0  0
  -33.0701  -16.6951   18.0702 H   0  0  0  0  0  0
  -31.5844  -26.2762   20.8269 H   0  0  0  0  0  0
  -30.7349  -25.8779   19.3601 H   0  0  0  0  0  0
  -29.9094  -27.9702   20.4929 H   0  0  0  0  0  0
  -29.3200  -26.9911   21.8387 H   0  0  0  0  0  0
  -29.3181  -24.2279   20.7882 H   0  0  0  0  0  0
  -30.4721  -24.5347   22.0873 H   0  0  0  0  0  0
  -31.0950  -18.0748   18.7315 H   0  0  0  0  0  0
  -33.4253  -18.9875   17.6479 H   0  0  0  0  0  0
  -33.5219  -19.3515   19.2307 H   0  0  0  0  0  0
  1 25  1  0  0  0
  1 30  2  0  0  0
  1 91  1  0  0  0
  2  3  1  0  0  0
  2 25  1  0  0  0
  2 94  1  0  0  0
  2 95  1  0  0  0
  3  4  1  0  0  0
  3 96  1  0  0  0
  3 97  1  0  0  0
  4  5  1  0  0  0
  4 98  1  0  0  0
  4 99  1  0  0  0
  5  6  1  0  0  0
  5 26  1  0  0  0
  5100  1  0  0  0
  6 25  1  0  0  0
  6101  1  0  0  0
  6102  1  0  0  0
  7  8  2  0  0  0
  7 26  1  0  0  0
  7 29  1  0  0  0
  8  9  1  0  0  0
  8 22  1  0  0  0
  9 10  1  0  0  0
  9 27  2  0  0  0
 10 11  2  0  0  0
 10 15  1  0  0  0
 11 12  1  0  0  0
 11103  1  0  0  0
 12 13  2  0  0  0
 12104  1  0  0  0
 13 14  1  0  0  0
 13 31  1  0  0  0
 14 15  2  0  0  0
 14105  1  0  0  0
 15106  1  0  0  0
 16 17  2  0  0  0
 16 21  1  0  0  0
 16 31  1  0  0  0
 17 18  1  0  0  0
 17107  1  0  0  0
 18 19  2  0  0  0
 18108  1  0  0  0
 19 20  1  0  0  0
 19 24  1  0  0  0
 20 21  2  0  0  0
 20109  1  0  0  0
 21 23  1  0  0  0
 22 28  1  0  0  0
 22 32  2  0  0  0
 26 27  1  0  0  0
 28110  1  0  0  0
 28111  1  0  0  0
 29112  1  0  0  0
 29113  1  0  0  0
 33 34  1  0  0  0
 33 66  1  0  0  0
 33 70  2  0  0  0
 34 36  1  0  0  0
 34 59  1  0  0  0
 34114  1  0  0  0
 35 44  2  0  0  0
 35 45  1  0  0  0
 35 68  1  0  0  0
 36 56  1  0  0  0
 36115  1  0  0  0
 37 39  1  0  0  0
 37 47  1  0  0  0
 37 66  1  0  0  0
 37116  1  0  0  0
 38 43  2  0  0  0
 38 46  1  0  0  0
 38 47  1  0  0  0
 39 64  1  0  0  0
 39 67  2  0  0  0
 40 52  1  0  0  0
 40 53  2  0  0  0
 40 58  1  0  0  0
 41117  1  0  0  0
 41118  1  0  0  0
 41119  1  0  0  0
 41 48  1  0  0  0
 42 43  1  0  0  0
 42 66  1  0  0  0
 42120  1  0  0  0
 42121  1  0  0  0
 43 44  1  0  0  0
 44122  1  0  0  0
 45 46  2  0  0  0
 45123  1  0  0  0
 46124  1  0  0  0
 47125  1  0  0  0
 47126  1  0  0  0
 48 56  1  0  0  0
 48 65  1  0  0  0
 48127  1  0  0  0
 49 50  1  0  0  0
 49 53  1  0  0  0
 49 64  1  0  0  0
 49128  1  0  0  0
 50 51  1  0  0  0
 50129  1  0  0  0
 50130  1  0  0  0
 51 52  1  0  0  0
 51131  1  0  0  0
 51132  1  0  0  0
 52133  1  0  0  0
 52134  1  0  0  0
 53 54  1  0  0  0
 54 55  2  0  0  0
 54135  1  0  0  0
 55 57  1  0  0  0
 55136  1  0  0  0
 56 69  2  0  0  0
 57 58  2  0  0  0
 57137  1  0  0  0
 58138  1  0  0  0
 59 60  1  0  0  0
 59 61  1  0  0  0
 59 62  1  0  0  0
 60139  1  0  0  0
 60140  1  0  0  0
 60141  1  0  0  0
 61142  1  0  0  0
 61143  1  0  0  0
 61144  1  0  0  0
 62145  1  0  0  0
 62146  1  0  0  0
 62147  1  0  0  0
 63 65  1  0  0  0
 63148  1  0  0  0
 63149  1  0  0  0
 63150  1  0  0  0
 64151  1  0  0  0
 65152  1  0  0  0
 68 87  1  0  0  0
 71 72  2  0  0  0
 71 75  1  0  0  0
 71153  1  0  0  0
 72 76  1  0  0  0
 72154  1  0  0  0
 73 74  1  0  0  0
 73 76  2  0  0  0
 73155  1  0  0  0
 74 75  2  0  0  0
 74 89  1  0  0  0
 75 90  1  0  0  0
 76 93  1  0  0  0
 77 78  1  0  0  0
 77 83  1  0  0  0
 77156  1  0  0  0
 77157  1  0  0  0
 78 83  1  0  0  0
 78158  1  0  0  0
 78159  1  0  0  0
 79 81  1  0  0  0
 79 90  1  0  0  0
 79160  1  0  0  0
 79161  1  0  0  0
 80 82  1  0  0  0
 80 90  1  0  0  0
 80162  1  0  0  0
 80163  1  0  0  0
 81 91  1  0  0  0
 81164  1  0  0  0
 81165  1  0  0  0
 82 91  1  0  0  0
 82166  1  0  0  0
 82167  1  0  0  0
 83 85  1  0  0  0
 83168  1  0  0  0
 84169  1  0  0  0
 84170  1  0  0  0
 84171  1  0  0  0
 84 89  1  0  0  0
 85 92  1  0  0  0
 85172  1  0  0  0
 85173  1  0  0  0
 86 87  1  0  0  0
 86 88  1  0  0  0
 86174  1  0  0  0
 86175  1  0  0  0
 87176  1  0  0  0
 87177  1  0  0  0
 88 93  1  0  0  0
 88178  1  0  0  0
 88179  1  0  0  0
 89 92  1  0  0  0
 89180  1  0  0  0
 92181  1  0  0  0
 92182  1  0  0  0
M  CHG  1  92   1
M  ISO  4   1 100  68 101  87 101  91 100
M  END
> <chiral flag>
0

> <version>
0

> <s_m_source_file>
/data/baiqing/PycharmProjects/Reinvent-master-3.2/result/LINK_invent/BTK/process_docking_weight1_custom_sum_contain_oxygen_bond_distance_aromatic_linkinvent_7_9_3/rearranged_h_0142.sdf

> <i_m_source_file_index>
41

> <r_mmod_Potential_Energy-OPLS-2005>
-31.2856845855713

> <r_mmod_Stretch_Energy-OPLS-2005>
39.4238739013672

> <r_mmod_Bend_Energy-OPLS-2005>
113.44450378418

> <r_mmod_Torsional_Energy-OPLS-2005>
411.930389404297

> <r_mmod_Improper_Torsional_Energy-OPLS-2005>
8.28140068054199

> <r_mmod_Van_der_Waal_Energy-OPLS-2005>
156.784912109375

> <r_mmod_Electrostatic_Energy-OPLS-2005>
-365.682586669922

> <r_mmod_Solvation_Energy-OPLS-2005>
-404.585784912109

> <b_mmod_Minimization_Converged-OPLS-2005>
0

> <r_mmod_RMS_Derivative-OPLS-2005>
1.35537302494049

$$$$
42
                    3D
 Structure written by MMmdl.
171180  0  0  1  0            999 V2000
  -30.6332  -14.6710   20.4352 C   0  0  0  0  0  0
  -30.4323  -12.4038   19.4549 C   0  0  0  0  0  0
  -29.5026  -12.4722   18.2238 C   0  0  0  0  0  0
  -28.0273  -12.3083   18.6429 C   0  0  0  0  0  0
  -27.6416  -13.2076   19.8477 C   0  0  2  0  0  0
  -28.6923  -13.1386   20.9766 C   0  0  0  0  0  0
  -25.2554  -13.8130   20.5705 C   0  0  0  0  0  0
  -24.1810  -13.0406   20.9202 C   0  0  0  0  0  0
  -24.6362  -11.6877   20.8757 C   0  0  0  0  0  0
  -23.9030  -10.4268   21.0425 C   0  0  0  0  0  0
  -24.3597   -9.4185   21.9189 C   0  0  0  0  0  0
  -23.6283   -8.2218   22.0748 C   0  0  0  0  0  0
  -22.4264   -8.0256   21.3544 C   0  0  0  0  0  0
  -21.9897   -9.0223   20.4636 C   0  0  0  0  0  0
  -22.7212  -10.2113   20.3060 C   0  0  0  0  0  0
  -21.6834   -6.0728   22.5285 C   0  0  0  0  0  0
  -21.4002   -6.5637   23.8217 C   0  0  0  0  0  0
  -21.3660   -5.6795   24.9180 C   0  0  0  0  0  0
  -21.6050   -4.3059   24.7238 C   0  0  0  0  0  0
  -21.8817   -3.8147   23.4358 C   0  0  0  0  0  0
  -21.9187   -4.6957   22.3409 C   0  0  0  0  0  0
  -22.7844  -13.5221   21.1865 C   0  0  0  0  0  0
  -22.1655   -4.2140   21.0988 F   0  0  0  0  0  0
  -21.5635   -3.4544   25.7751 F   0  0  0  0  0  0
  -29.9952  -13.4609   20.3840 N   0  0  0  0  0  0
  -26.2938  -12.9283   20.3301 N   0  0  0  0  0  0
  -25.9291  -11.6459   20.5779 N   0  0  0  0  0  0
  -22.0484  -12.8203   22.0402 N   0  0  0  0  0  0
  -25.4347  -15.1843   20.4146 N   0  0  0  0  0  0
  -31.8457  -14.7592   20.2186 O   0  0  0  0  0  0
  -21.6630   -6.8862   21.4240 O   0  0  0  0  0  0
  -22.3532  -14.5534   20.6717 O   0  0  0  0  0  0
  -24.6233  -31.8614   23.2043 C   0  0  0  0  0  0
  -25.9077  -32.4788   23.8370 C   0  0  1  0  0  0
  -27.2268  -27.3365   20.1168 C   0  0  0  0  0  0
  -25.5898  -33.8593   24.2285 N   0  0  0  0  0  0
  -23.4150  -30.4842   21.5496 C   0  0  2  0  0  0
  -24.8605  -28.9428   20.1146 C   0  0  0  0  0  0
  -22.7453  -29.4623   22.4986 C   0  0  0  0  0  0
  -18.0259  -28.1361   22.8507 C   0  0  0  0  0  0
  -24.1475  -36.7302   23.2643 C   0  0  0  0  0  0
  -25.9533  -30.7971   21.3746 C   0  0  0  0  0  0
  -26.0275  -29.4256   20.7188 C   0  0  0  0  0  0
  -27.2117  -28.6351   20.7091 C   0  0  0  0  0  0
  -26.0304  -26.8975   19.5031 C   0  0  0  0  0  0
  -24.8647  -27.6836   19.4973 C   0  0  0  0  0  0
  -23.6255  -29.8176   20.1643 C   0  0  0  0  0  0
  -25.4099  -36.3093   24.0332 C   0  0  1  0  0  0
  -20.5864  -28.3662   23.1301 C   0  0  2  0  0  0
  -20.6743  -26.9394   22.5408 C   0  0  0  0  0  0
  -19.5721  -26.6368   21.5214 C   0  0  0  0  0  0
  -18.1902  -26.7904   22.1629 C   0  0  0  0  0  0
  -19.1516  -28.8825   23.2894 C   0  0  0  0  0  0
  -18.9441  -30.1429   23.8915 C   0  0  0  0  0  0
  -17.6455  -30.6580   24.0552 C   0  0  0  0  0  0
  -25.9053  -34.9462   23.5115 C   0  0  0  0  0  0
  -16.5343  -29.9080   23.6326 C   0  0  0  0  0  0
  -16.7254  -28.6478   23.0374 C   0  0  0  0  0  0
  -26.4492  -31.6600   25.0735 C   0  0  0  0  0  0
  -25.3755  -31.3700   26.1482 C   0  0  0  0  0  0
  -27.0346  -30.3024   24.6183 C   0  0  0  0  0  0
  -27.6057  -32.4359   25.7486 C   0  0  0  0  0  0
  -27.5582  -37.1772   24.8462 C   0  0  0  0  0  0
  -21.4170  -29.3019   22.3710 N   0  0  0  0  0  0
  -26.4277  -37.3788   23.9435 N   0  0  0  0  0  0
  -24.6824  -31.0634   22.1001 N   0  0  0  0  0  0
  -23.4193  -28.8155   23.3059 O   0  0  0  0  0  0
  -28.3883  -26.5520   20.1331 O   0  0  0  0  0  0
  -26.5638  -34.8927   22.4691 O   0  0  0  0  0  0
  -23.5392  -32.1429   23.7359 O   0  0  0  0  0  0
  -27.9526  -24.3370   19.0632 C   0  0  0  0  0  0
  -28.1961  -22.9384   19.0340 C   0  0  0  0  0  0
  -29.0288  -22.3121   20.0216 C   0  0  0  0  0  0
  -29.4193  -23.2054   21.0771 C   0  0  0  0  0  0
  -28.4201  -25.1403   20.1205 C   0  0  0  0  0  0
  -29.7798  -17.8239   18.9683 C   0  0  0  0  0  0
  -29.5022  -16.3094   19.0297 C   0  0  0  0  0  0
  -29.4764  -18.3086   20.3817 C   0  0  1  0  0  0
  -30.0640  -17.0627   21.1813 C   0  0  1  0  0  0
  -27.5732  -22.1644   17.8782 C   0  0  0  0  0  0
  -30.2302  -22.7724   22.2812 C   0  0  0  0  0  0
  -29.4650  -16.9135   22.5890 C   0  0  0  0  0  0
  -30.7976  -21.0536   18.7337 C   0  0  0  0  0  0
  -31.2948  -19.7795   21.2550 C   0  0  0  0  0  0
  -29.6077  -20.8500   19.7059 C   0  0  1  0  0  0
  -29.1285  -24.5443   21.1110 N   0  0  0  0  0  0
  -29.8411  -15.8070   20.3805 N   0  0  0  0  0  0
  -29.8971  -19.7487   20.7453 N   0  3  1  0  0  0
  -31.4743  -12.5267   19.1502 H   0  0  0  0  0  0
  -30.3685  -11.4289   19.9401 H   0  0  0  0  0  0
  -29.7733  -11.6964   17.5061 H   0  0  0  0  0  0
  -29.6352  -13.4249   17.7087 H   0  0  0  0  0  0
  -27.8751  -11.2598   18.9031 H   0  0  0  0  0  0
  -27.3717  -12.5078   17.7949 H   0  0  0  0  0  0
  -27.6282  -14.2232   19.4657 H   0  0  0  0  0  0
  -28.7179  -12.1450   21.4255 H   0  0  0  0  0  0
  -28.4455  -13.8378   21.7772 H   0  0  0  0  0  0
  -25.2743   -9.5653   22.4766 H   0  0  0  0  0  0
  -23.9985   -7.4603   22.7461 H   0  0  0  0  0  0
  -21.0832   -8.8731   19.8941 H   0  0  0  0  0  0
  -22.3663  -10.9651   19.6173 H   0  0  0  0  0  0
  -21.1993   -7.6147   23.9708 H   0  0  0  0  0  0
  -21.1488   -6.0539   25.9083 H   0  0  0  0  0  0
  -22.0603   -2.7605   23.2871 H   0  0  0  0  0  0
  -22.4100  -11.9868   22.4795 H   0  0  0  0  0  0
  -21.1094  -13.1211   22.2606 H   0  0  0  0  0  0
  -24.6807  -15.8518   20.5315 H   0  0  0  0  0  0
  -26.3029  -15.6128   20.1208 H   0  0  0  0  0  0
  -26.7142  -32.5452   23.1119 H   0  0  0  0  0  0
  -25.0026  -33.9755   25.0412 H   0  0  0  0  0  0
  -22.7065  -31.3030   21.4075 H   0  0  0  0  0  0
  -23.3763  -35.9604   23.3276 H   0  0  0  0  0  0
  -24.3574  -36.8969   22.2066 H   0  0  0  0  0  0
  -23.7199  -37.6470   23.6711 H   0  0  0  0  0  0
  -26.0832  -31.5607   20.6062 H   0  0  0  0  0  0
  -26.8333  -30.8454   22.0036 H   0  0  0  0  0  0
  -28.1130  -29.0109   21.1748 H   0  0  0  0  0  0
  -25.9520  -25.9372   19.0287 H   0  0  0  0  0  0
  -23.9710  -27.3094   19.0170 H   0  0  0  0  0  0
  -23.7342  -30.5942   19.4066 H   0  0  0  0  0  0
  -22.7475  -29.2393   19.8702 H   0  0  0  0  0  0
  -25.1268  -36.1942   25.0823 H   0  0  0  0  0  0
  -20.9937  -28.3227   24.1431 H   0  0  0  0  0  0
  -20.5642  -26.2281   23.3598 H   0  0  0  0  0  0
  -21.6608  -26.7417   22.1210 H   0  0  0  0  0  0
  -19.6890  -25.6283   21.1230 H   0  0  0  0  0  0
  -19.6641  -27.3185   20.6753 H   0  0  0  0  0  0
  -17.4160  -26.6646   21.4037 H   0  0  0  0  0  0
  -18.0308  -26.0021   22.9005 H   0  0  0  0  0  0
  -19.7921  -30.7212   24.2317 H   0  0  0  0  0  0
  -17.5012  -31.6271   24.5123 H   0  0  0  0  0  0
  -15.5344  -30.2991   23.7633 H   0  0  0  0  0  0
  -15.8642  -28.0790   22.7134 H   0  0  0  0  0  0
  -24.5935  -30.7050   25.7816 H   0  0  0  0  0  0
  -24.8941  -32.2845   26.4964 H   0  0  0  0  0  0
  -25.8107  -30.8850   27.0231 H   0  0  0  0  0  0
  -26.2901  -29.6727   24.1297 H   0  0  0  0  0  0
  -27.4153  -29.7324   25.4668 H   0  0  0  0  0  0
  -27.8737  -30.4322   23.9341 H   0  0  0  0  0  0
  -27.2711  -33.3713   26.1988 H   0  0  0  0  0  0
  -28.3895  -32.6833   25.0319 H   0  0  0  0  0  0
  -28.0710  -31.8542   26.5451 H   0  0  0  0  0  0
  -28.2553  -38.0114   24.7586 H   0  0  0  0  0  0
  -28.1113  -36.2642   24.6192 H   0  0  0  0  0  0
  -27.2305  -37.1319   25.8861 H   0  0  0  0  0  0
  -20.9349  -29.8786   21.6951 H   0  0  0  0  0  0
  -26.0159  -38.2853   24.1476 H   0  0  0  0  0  0
  -27.4482  -24.7961   18.2270 H   0  0  0  0  0  0
  -29.1785  -18.3145   18.2020 H   0  0  0  0  0  0
  -30.8300  -17.9772   18.7240 H   0  0  0  0  0  0
  -30.0378  -15.7925   18.2298 H   0  0  0  0  0  0
  -28.4409  -16.1476   18.8475 H   0  0  0  0  0  0
  -28.3890  -18.2909   20.4903 H   0  0  0  0  0  0
  -31.1456  -17.1633   21.2807 H   0  0  0  0  0  0
  -26.9410  -22.8054   17.2610 H   0  0  0  0  0  0
  -26.9317  -21.3670   18.2570 H   0  0  0  0  0  0
  -28.3234  -21.7307   17.2186 H   0  0  0  0  0  0
  -31.2943  -22.8012   22.0541 H   0  0  0  0  0  0
  -29.9447  -21.7826   22.6280 H   0  0  0  0  0  0
  -30.0668  -23.4476   23.1225 H   0  0  0  0  0  0
  -28.3903  -16.7318   22.5470 H   0  0  0  0  0  0
  -29.6273  -17.8090   23.1901 H   0  0  0  0  0  0
  -29.9209  -16.0804   23.1256 H   0  0  0  0  0  0
  -30.5003  -21.6031   17.8420 H   0  0  0  0  0  0
  -31.2316  -20.1208   18.3838 H   0  0  0  0  0  0
  -31.5961  -21.6336   19.1948 H   0  0  0  0  0  0
  -31.3700  -19.3037   22.2321 H   0  0  0  0  0  0
  -31.6869  -20.7841   21.3622 H   0  0  0  0  0  0
  -31.9713  -19.2636   20.5739 H   0  0  0  0  0  0
  -28.8172  -20.3814   19.1275 H   0  0  0  0  0  0
  -29.3083  -19.9708   21.5343 H   0  0  0  0  0  0
  1 25  1  0  0  0
  1 30  2  0  0  0
  1 87  1  0  0  0
  2  3  1  0  0  0
  2 25  1  0  0  0
  2 89  1  0  0  0
  2 90  1  0  0  0
  3  4  1  0  0  0
  3 91  1  0  0  0
  3 92  1  0  0  0
  4  5  1  0  0  0
  4 93  1  0  0  0
  4 94  1  0  0  0
  5  6  1  0  0  0
  5 26  1  0  0  0
  5 95  1  0  0  0
  6 25  1  0  0  0
  6 96  1  0  0  0
  6 97  1  0  0  0
  7  8  2  0  0  0
  7 26  1  0  0  0
  7 29  1  0  0  0
  8  9  1  0  0  0
  8 22  1  0  0  0
  9 10  1  0  0  0
  9 27  2  0  0  0
 10 11  2  0  0  0
 10 15  1  0  0  0
 11 12  1  0  0  0
 11 98  1  0  0  0
 12 13  2  0  0  0
 12 99  1  0  0  0
 13 14  1  0  0  0
 13 31  1  0  0  0
 14 15  2  0  0  0
 14100  1  0  0  0
 15101  1  0  0  0
 16 17  2  0  0  0
 16 21  1  0  0  0
 16 31  1  0  0  0
 17 18  1  0  0  0
 17102  1  0  0  0
 18 19  2  0  0  0
 18103  1  0  0  0
 19 20  1  0  0  0
 19 24  1  0  0  0
 20 21  2  0  0  0
 20104  1  0  0  0
 21 23  1  0  0  0
 22 28  1  0  0  0
 22 32  2  0  0  0
 26 27  1  0  0  0
 28105  1  0  0  0
 28106  1  0  0  0
 29107  1  0  0  0
 29108  1  0  0  0
 33 34  1  0  0  0
 33 66  1  0  0  0
 33 70  2  0  0  0
 34 36  1  0  0  0
 34 59  1  0  0  0
 34109  1  0  0  0
 35 44  2  0  0  0
 35 45  1  0  0  0
 35 68  1  0  0  0
 36 56  1  0  0  0
 36110  1  0  0  0
 37 39  1  0  0  0
 37 47  1  0  0  0
 37 66  1  0  0  0
 37111  1  0  0  0
 38 43  2  0  0  0
 38 46  1  0  0  0
 38 47  1  0  0  0
 39 64  1  0  0  0
 39 67  2  0  0  0
 40 52  1  0  0  0
 40 53  2  0  0  0
 40 58  1  0  0  0
 41112  1  0  0  0
 41113  1  0  0  0
 41114  1  0  0  0
 41 48  1  0  0  0
 42 43  1  0  0  0
 42 66  1  0  0  0
 42115  1  0  0  0
 42116  1  0  0  0
 43 44  1  0  0  0
 44117  1  0  0  0
 45 46  2  0  0  0
 45118  1  0  0  0
 46119  1  0  0  0
 47120  1  0  0  0
 47121  1  0  0  0
 48 56  1  0  0  0
 48 65  1  0  0  0
 48122  1  0  0  0
 49 50  1  0  0  0
 49 53  1  0  0  0
 49 64  1  0  0  0
 49123  1  0  0  0
 50 51  1  0  0  0
 50124  1  0  0  0
 50125  1  0  0  0
 51 52  1  0  0  0
 51126  1  0  0  0
 51127  1  0  0  0
 52128  1  0  0  0
 52129  1  0  0  0
 53 54  1  0  0  0
 54 55  2  0  0  0
 54130  1  0  0  0
 55 57  1  0  0  0
 55131  1  0  0  0
 56 69  2  0  0  0
 57 58  2  0  0  0
 57132  1  0  0  0
 58133  1  0  0  0
 59 60  1  0  0  0
 59 61  1  0  0  0
 59 62  1  0  0  0
 60134  1  0  0  0
 60135  1  0  0  0
 60136  1  0  0  0
 61137  1  0  0  0
 61138  1  0  0  0
 61139  1  0  0  0
 62140  1  0  0  0
 62141  1  0  0  0
 62142  1  0  0  0
 63 65  1  0  0  0
 63143  1  0  0  0
 63144  1  0  0  0
 63145  1  0  0  0
 64146  1  0  0  0
 65147  1  0  0  0
 68 75  1  0  0  0
 71 72  2  0  0  0
 71 75  1  0  0  0
 71148  1  0  0  0
 72 73  1  0  0  0
 72 80  1  0  0  0
 73 74  2  0  0  0
 73 85  1  0  0  0
 74 81  1  0  0  0
 74 86  1  0  0  0
 75 86  2  0  0  0
 76 77  1  0  0  0
 76149  1  0  0  0
 76150  1  0  0  0
 76 78  1  0  0  0
 77 87  1  0  0  0
 77151  1  0  0  0
 77152  1  0  0  0
 78 79  1  0  0  0
 78 88  1  0  0  0
 78153  1  0  0  0
 79 82  1  0  0  0
 79 87  1  0  0  0
 79154  1  0  0  0
 80155  1  0  0  0
 80156  1  0  0  0
 80157  1  0  0  0
 81158  1  0  0  0
 81159  1  0  0  0
 81160  1  0  0  0
 82161  1  0  0  0
 82162  1  0  0  0
 82163  1  0  0  0
 83164  1  0  0  0
 83165  1  0  0  0
 83166  1  0  0  0
 83 85  1  0  0  0
 84167  1  0  0  0
 84168  1  0  0  0
 84169  1  0  0  0
 84 88  1  0  0  0
 85 88  1  0  0  0
 85170  1  0  0  0
 88171  1  0  0  0
M  CHG  1  88   1
M  ISO  4   1 100  68 101  75 101  87 100
M  END
> <chiral flag>
0

> <version>
0

> <s_m_source_file>
/data/baiqing/PycharmProjects/Reinvent-master-3.2/result/LINK_invent/BTK/process_docking_weight1_custom_sum_contain_oxygen_bond_distance_aromatic_linkinvent_7_9_3/rearranged_h_0142.sdf

> <i_m_source_file_index>
42

> <r_mmod_Potential_Energy-OPLS-2005>
209.952819824219

> <r_mmod_Stretch_Energy-OPLS-2005>
93.1184539794922

> <r_mmod_Bend_Energy-OPLS-2005>
210.136123657227

> <r_mmod_Torsional_Energy-OPLS-2005>
383.327728271484

> <r_mmod_Improper_Torsional_Energy-OPLS-2005>
15.7415609359741

> <r_mmod_Van_der_Waal_Energy-OPLS-2005>
150.569580078125

> <r_mmod_Electrostatic_Energy-OPLS-2005>
-263.194885253906

> <r_mmod_Solvation_Energy-OPLS-2005>
-433.668853759766

> <b_mmod_Minimization_Converged-OPLS-2005>
0

> <r_mmod_RMS_Derivative-OPLS-2005>
2.29189682006836

$$$$
43
                    3D
 Structure written by MMmdl.
161170  0  0  1  0            999 V2000
  -30.6463  -14.5994   20.5144 C   0  0  0  0  0  0
  -30.4400  -12.3782   19.4253 C   0  0  0  0  0  0
  -29.4988  -12.5196   18.2081 C   0  0  0  0  0  0
  -28.0250  -12.3503   18.6283 C   0  0  0  0  0  0
  -27.6585  -13.2088   19.8696 C   0  0  2  0  0  0
  -28.7141  -13.0385   20.9894 C   0  0  0  0  0  0
  -25.2600  -13.8160   20.5719 C   0  0  0  0  0  0
  -24.1842  -13.0431   20.9209 C   0  0  0  0  0  0
  -24.6375  -11.6896   20.8708 C   0  0  0  0  0  0
  -23.9028  -10.4272   21.0334 C   0  0  0  0  0  0
  -24.3593   -9.4203   21.9135 C   0  0  0  0  0  0
  -23.6281   -8.2240   22.0737 C   0  0  0  0  0  0
  -22.4253   -8.0246   21.3544 C   0  0  0  0  0  0
  -21.9874   -9.0205   20.4640 C   0  0  0  0  0  0
  -22.7183  -10.2093   20.3013 C   0  0  0  0  0  0
  -21.6845   -6.0695   22.5268 C   0  0  0  0  0  0
  -21.4014   -6.5606   23.8199 C   0  0  0  0  0  0
  -21.3675   -5.6764   24.9168 C   0  0  0  0  0  0
  -21.6059   -4.3030   24.7212 C   0  0  0  0  0  0
  -21.8832   -3.8106   23.4340 C   0  0  0  0  0  0
  -21.9207   -4.6929   22.3383 C   0  0  0  0  0  0
  -22.7866  -13.5253   21.1820 C   0  0  0  0  0  0
  -22.1663   -4.2120   21.0966 F   0  0  0  0  0  0
  -21.5645   -3.4507   25.7725 F   0  0  0  0  0  0
  -30.0284  -13.3824   20.4199 N   0  0  0  0  0  0
  -26.3029  -12.9326   20.3400 N   0  0  0  0  0  0
  -25.9322  -11.6488   20.5772 N   0  0  0  0  0  0
  -22.0498  -12.8247   22.0395 N   0  0  0  0  0  0
  -25.4301  -15.1865   20.4064 N   0  0  0  0  0  0
  -31.8124  -14.7736   20.1494 O   0  0  0  0  0  0
  -21.6651   -6.8829   21.4218 O   0  0  0  0  0  0
  -22.3562  -14.5536   20.6648 O   0  0  0  0  0  0
  -24.6168  -31.8648   23.2067 C   0  0  0  0  0  0
  -25.9053  -32.4795   23.8333 C   0  0  1  0  0  0
  -27.2094  -27.3508   20.0986 C   0  0  0  0  0  0
  -25.5876  -33.8592   24.2253 N   0  0  0  0  0  0
  -23.4033  -30.4870   21.5566 C   0  0  2  0  0  0
  -24.8472  -28.9446   20.1098 C   0  0  0  0  0  0
  -22.7412  -29.4630   22.5058 C   0  0  0  0  0  0
  -18.0264  -28.1357   22.8527 C   0  0  0  0  0  0
  -24.1482  -36.7291   23.2633 C   0  0  0  0  0  0
  -25.9429  -30.7927   21.3793 C   0  0  0  0  0  0
  -26.0130  -29.4229   20.7227 C   0  0  0  0  0  0
  -27.1964  -28.6317   20.7194 C   0  0  0  0  0  0
  -26.0324  -26.9233   19.4470 C   0  0  0  0  0  0
  -24.8551  -27.6964   19.4662 C   0  0  0  0  0  0
  -23.6097  -29.8198   20.1711 C   0  0  0  0  0  0
  -25.4112  -36.3083   24.0318 C   0  0  1  0  0  0
  -20.5858  -28.3607   23.1358 C   0  0  2  0  0  0
  -20.6764  -26.9339   22.5457 C   0  0  0  0  0  0
  -19.5727  -26.6363   21.5266 C   0  0  0  0  0  0
  -18.1909  -26.7907   22.1667 C   0  0  0  0  0  0
  -19.1520  -28.8808   23.2926 C   0  0  0  0  0  0
  -18.9450  -30.1432   23.8903 C   0  0  0  0  0  0
  -17.6450  -30.6571   24.0565 C   0  0  0  0  0  0
  -25.9062  -34.9457   23.5097 C   0  0  0  0  0  0
  -16.5334  -29.9064   23.6352 C   0  0  0  0  0  0
  -16.7258  -28.6481   23.0380 C   0  0  0  0  0  0
  -26.4446  -31.6583   25.0682 C   0  0  0  0  0  0
  -25.3671  -31.3724   26.1397 C   0  0  0  0  0  0
  -27.0261  -30.2999   24.6124 C   0  0  0  0  0  0
  -27.6014  -32.4299   25.7437 C   0  0  0  0  0  0
  -27.5584  -37.1774   24.8444 C   0  0  0  0  0  0
  -21.4142  -29.2961   22.3766 N   0  0  0  0  0  0
  -26.4276  -37.3792   23.9421 N   0  0  0  0  0  0
  -24.6728  -31.0660   22.1032 N   0  0  0  0  0  0
  -23.4169  -28.8193   23.3120 O   0  0  0  0  0  0
  -28.3334  -26.5261   20.0972 O   0  0  0  0  0  0
  -26.5683  -34.8912   22.4701 O   0  0  0  0  0  0
  -23.5364  -32.1447   23.7453 O   0  0  0  0  0  0
  -31.0271  -19.4134   20.4581 C   0  0  0  0  0  0
  -28.5391  -19.1946   20.1314 C   0  0  0  0  0  0
  -30.9694  -17.8803   20.1098 C   0  0  0  0  0  0
  -28.5672  -17.8019   20.8480 C   0  0  0  0  0  0
  -28.3966  -22.5165   20.1034 C   0  0  0  0  0  0
  -30.7028  -22.5813   20.3544 C   0  0  0  0  0  0
  -29.6553  -20.1687   20.5829 C   0  0  2  0  0  0
  -29.6214  -21.5994   19.8788 C   0  0  1  0  0  0
  -29.9605  -17.1148   21.0076 C   0  0  1  0  0  0
  -28.8633  -23.9709   19.7662 C   0  0  1  0  0  0
  -28.1390  -25.1397   20.5484 C   0  0  0  0  0  0
  -29.8209  -15.6279   20.8480 N   0  0  0  0  0  0
  -30.2645  -23.9179   20.0538 O   0  0  0  0  0  0
  -31.4775  -12.5095   19.1166 H   0  0  0  0  0  0
  -30.3735  -11.3749   19.8502 H   0  0  0  0  0  0
  -29.7585  -11.7886   17.4418 H   0  0  0  0  0  0
  -29.6380  -13.5012   17.7508 H   0  0  0  0  0  0
  -27.8635  -11.2928   18.8439 H   0  0  0  0  0  0
  -27.3612  -12.5899   17.7961 H   0  0  0  0  0  0
  -27.6778  -14.2486   19.5440 H   0  0  0  0  0  0
  -28.7328  -12.0059   21.3417 H   0  0  0  0  0  0
  -28.4724  -13.6463   21.8641 H   0  0  0  0  0  0
  -25.2720   -9.5722   22.4729 H   0  0  0  0  0  0
  -23.9989   -7.4649   22.7466 H   0  0  0  0  0  0
  -21.0809   -8.8688   19.8948 H   0  0  0  0  0  0
  -22.3587  -10.9626   19.6130 H   0  0  0  0  0  0
  -21.1996   -7.6110   23.9706 H   0  0  0  0  0  0
  -21.1493   -6.0479   25.9085 H   0  0  0  0  0  0
  -22.0609   -2.7563   23.2834 H   0  0  0  0  0  0
  -22.4068  -11.9930   22.4843 H   0  0  0  0  0  0
  -21.1113  -13.1283   22.2550 H   0  0  0  0  0  0
  -24.6633  -15.8392   20.5263 H   0  0  0  0  0  0
  -26.2645  -15.6195   20.0332 H   0  0  0  0  0  0
  -26.7098  -32.5467   23.1052 H   0  0  0  0  0  0
  -24.9863  -33.9765   25.0276 H   0  0  0  0  0  0
  -22.6870  -31.3025   21.4254 H   0  0  0  0  0  0
  -23.3767  -35.9598   23.3255 H   0  0  0  0  0  0
  -24.3559  -36.8980   22.2052 H   0  0  0  0  0  0
  -23.7207  -37.6454   23.6713 H   0  0  0  0  0  0
  -26.0806  -31.5546   20.6100 H   0  0  0  0  0  0
  -26.8197  -30.8358   22.0128 H   0  0  0  0  0  0
  -28.0876  -28.9843   21.2192 H   0  0  0  0  0  0
  -26.0168  -25.9856   18.9107 H   0  0  0  0  0  0
  -23.9649  -27.3308   18.9697 H   0  0  0  0  0  0
  -23.7000  -30.5947   19.4105 H   0  0  0  0  0  0
  -22.7277  -29.2423   19.8903 H   0  0  0  0  0  0
  -25.1309  -36.1907   25.0816 H   0  0  0  0  0  0
  -20.9957  -28.3164   24.1474 H   0  0  0  0  0  0
  -20.5721  -26.2185   23.3636 H   0  0  0  0  0  0
  -21.6623  -26.7426   22.1192 H   0  0  0  0  0  0
  -19.6870  -25.6298   21.1244 H   0  0  0  0  0  0
  -19.6667  -27.3223   20.6844 H   0  0  0  0  0  0
  -17.4195  -26.6692   21.4055 H   0  0  0  0  0  0
  -18.0242  -26.0034   22.9034 H   0  0  0  0  0  0
  -19.7926  -30.7271   24.2240 H   0  0  0  0  0  0
  -17.4999  -31.6266   24.5135 H   0  0  0  0  0  0
  -15.5333  -30.2962   23.7691 H   0  0  0  0  0  0
  -15.8650  -28.0805   22.7103 H   0  0  0  0  0  0
  -24.5835  -30.7102   25.7695 H   0  0  0  0  0  0
  -24.8864  -32.2896   26.4811 H   0  0  0  0  0  0
  -25.7951  -30.8866   27.0171 H   0  0  0  0  0  0
  -26.2812  -29.6752   24.1180 H   0  0  0  0  0  0
  -27.3980  -29.7250   25.4612 H   0  0  0  0  0  0
  -27.8676  -30.4255   23.9305 H   0  0  0  0  0  0
  -27.2645  -33.3621   26.1974 H   0  0  0  0  0  0
  -28.3823  -32.6822   25.0254 H   0  0  0  0  0  0
  -28.0652  -31.8428   26.5370 H   0  0  0  0  0  0
  -28.2561  -38.0117   24.7608 H   0  0  0  0  0  0
  -28.1139  -36.2672   24.6152 H   0  0  0  0  0  0
  -27.2315  -37.1249   25.8841 H   0  0  0  0  0  0
  -20.9318  -29.8539   21.6863 H   0  0  0  0  0  0
  -26.0157  -38.2847   24.1515 H   0  0  0  0  0  0
  -31.6604  -19.9173   19.7273 H   0  0  0  0  0  0
  -31.5566  -19.5190   21.4067 H   0  0  0  0  0  0
  -27.5617  -19.6515   20.2801 H   0  0  0  0  0  0
  -28.6247  -19.0538   19.0533 H   0  0  0  0  0  0
  -31.9687  -17.4520   20.2022 H   0  0  0  0  0  0
  -30.6921  -17.7634   19.0608 H   0  0  0  0  0  0
  -27.9128  -17.1480   20.2705 H   0  0  0  0  0  0
  -28.0983  -17.8859   21.8304 H   0  0  0  0  0  0
  -28.0767  -22.4585   21.1446 H   0  0  0  0  0  0
  -27.5488  -22.2218   19.4848 H   0  0  0  0  0  0
  -31.6747  -22.3811   19.8995 H   0  0  0  0  0  0
  -30.8211  -22.5064   21.4354 H   0  0  0  0  0  0
  -29.4859  -20.3545   21.6452 H   0  0  0  0  0  0
  -29.7430  -21.4555   18.8038 H   0  0  0  0  0  0
  -30.2896  -17.2654   22.0389 H   0  0  0  0  0  0
  -28.7439  -24.1329   18.6927 H   0  0  0  0  0  0
  -28.4543  -25.1013   21.5897 H   0  0  0  0  0  0
  -27.0800  -24.8870   20.5893 H   0  0  0  0  0  0
  -28.8946  -15.2964   21.0696 H   0  0  0  0  0  0
  1 25  1  0  0  0
  1 30  2  0  0  0
  1 82  1  0  0  0
  2  3  1  0  0  0
  2 25  1  0  0  0
  2 84  1  0  0  0
  2 85  1  0  0  0
  3  4  1  0  0  0
  3 86  1  0  0  0
  3 87  1  0  0  0
  4  5  1  0  0  0
  4 88  1  0  0  0
  4 89  1  0  0  0
  5  6  1  0  0  0
  5 26  1  0  0  0
  5 90  1  0  0  0
  6 25  1  0  0  0
  6 91  1  0  0  0
  6 92  1  0  0  0
  7  8  2  0  0  0
  7 26  1  0  0  0
  7 29  1  0  0  0
  8  9  1  0  0  0
  8 22  1  0  0  0
  9 10  1  0  0  0
  9 27  2  0  0  0
 10 11  2  0  0  0
 10 15  1  0  0  0
 11 12  1  0  0  0
 11 93  1  0  0  0
 12 13  2  0  0  0
 12 94  1  0  0  0
 13 14  1  0  0  0
 13 31  1  0  0  0
 14 15  2  0  0  0
 14 95  1  0  0  0
 15 96  1  0  0  0
 16 17  2  0  0  0
 16 21  1  0  0  0
 16 31  1  0  0  0
 17 18  1  0  0  0
 17 97  1  0  0  0
 18 19  2  0  0  0
 18 98  1  0  0  0
 19 20  1  0  0  0
 19 24  1  0  0  0
 20 21  2  0  0  0
 20 99  1  0  0  0
 21 23  1  0  0  0
 22 28  1  0  0  0
 22 32  2  0  0  0
 26 27  1  0  0  0
 28100  1  0  0  0
 28101  1  0  0  0
 29102  1  0  0  0
 29103  1  0  0  0
 33 34  1  0  0  0
 33 66  1  0  0  0
 33 70  2  0  0  0
 34 36  1  0  0  0
 34 59  1  0  0  0
 34104  1  0  0  0
 35 44  2  0  0  0
 35 45  1  0  0  0
 35 68  1  0  0  0
 36 56  1  0  0  0
 36105  1  0  0  0
 37 39  1  0  0  0
 37 47  1  0  0  0
 37 66  1  0  0  0
 37106  1  0  0  0
 38 43  2  0  0  0
 38 46  1  0  0  0
 38 47  1  0  0  0
 39 64  1  0  0  0
 39 67  2  0  0  0
 40 52  1  0  0  0
 40 53  2  0  0  0
 40 58  1  0  0  0
 41107  1  0  0  0
 41108  1  0  0  0
 41109  1  0  0  0
 41 48  1  0  0  0
 42 43  1  0  0  0
 42 66  1  0  0  0
 42110  1  0  0  0
 42111  1  0  0  0
 43 44  1  0  0  0
 44112  1  0  0  0
 45 46  2  0  0  0
 45113  1  0  0  0
 46114  1  0  0  0
 47115  1  0  0  0
 47116  1  0  0  0
 48 56  1  0  0  0
 48 65  1  0  0  0
 48117  1  0  0  0
 49 50  1  0  0  0
 49 53  1  0  0  0
 49 64  1  0  0  0
 49118  1  0  0  0
 50 51  1  0  0  0
 50119  1  0  0  0
 50120  1  0  0  0
 51 52  1  0  0  0
 51121  1  0  0  0
 51122  1  0  0  0
 52123  1  0  0  0
 52124  1  0  0  0
 53 54  1  0  0  0
 54 55  2  0  0  0
 54125  1  0  0  0
 55 57  1  0  0  0
 55126  1  0  0  0
 56 69  2  0  0  0
 57 58  2  0  0  0
 57127  1  0  0  0
 58128  1  0  0  0
 59 60  1  0  0  0
 59 61  1  0  0  0
 59 62  1  0  0  0
 60129  1  0  0  0
 60130  1  0  0  0
 60131  1  0  0  0
 61132  1  0  0  0
 61133  1  0  0  0
 61134  1  0  0  0
 62135  1  0  0  0
 62136  1  0  0  0
 62137  1  0  0  0
 63 65  1  0  0  0
 63138  1  0  0  0
 63139  1  0  0  0
 63140  1  0  0  0
 64141  1  0  0  0
 65142  1  0  0  0
 68 81  1  0  0  0
 71 73  1  0  0  0
 71143  1  0  0  0
 71144  1  0  0  0
 71 77  1  0  0  0
 72 74  1  0  0  0
 72 77  1  0  0  0
 72145  1  0  0  0
 72146  1  0  0  0
 73 79  1  0  0  0
 73147  1  0  0  0
 73148  1  0  0  0
 74 79  1  0  0  0
 74149  1  0  0  0
 74150  1  0  0  0
 75 80  1  0  0  0
 75151  1  0  0  0
 75152  1  0  0  0
 75 78  1  0  0  0
 76 78  1  0  0  0
 76 83  1  0  0  0
 76153  1  0  0  0
 76154  1  0  0  0
 77 78  1  0  0  0
 77155  1  0  0  0
 78156  1  0  0  0
 79 82  1  0  0  0
 79157  1  0  0  0
 80 81  1  0  0  0
 80 83  1  0  0  0
 80158  1  0  0  0
 81159  1  0  0  0
 81160  1  0  0  0
 82161  1  0  0  0
M  ISO  4   1 100  68 101  81 101  82 100
M  END
> <chiral flag>
0

> <version>
0

> <s_m_source_file>
/data/baiqing/PycharmProjects/Reinvent-master-3.2/result/LINK_invent/BTK/process_docking_weight1_custom_sum_contain_oxygen_bond_distance_aromatic_linkinvent_7_9_3/rearranged_h_0142.sdf

> <i_m_source_file_index>
43

> <r_mmod_Potential_Energy-OPLS-2005>
125.178817749023

> <r_mmod_Stretch_Energy-OPLS-2005>
63.5572280883789

> <r_mmod_Bend_Energy-OPLS-2005>
157.279907226562

> <r_mmod_Torsional_Energy-OPLS-2005>
297.70703125

> <r_mmod_Improper_Torsional_Energy-OPLS-2005>
4.50553941726685

> <r_mmod_Van_der_Waal_Energy-OPLS-2005>
126.784317016602

> <r_mmod_Electrostatic_Energy-OPLS-2005>
-349.186218261719

> <r_mmod_Solvation_Energy-OPLS-2005>
-211.945343017578

> <b_mmod_Minimization_Converged-OPLS-2005>
0

> <r_mmod_RMS_Derivative-OPLS-2005>
4.5049352645874

$$$$
44
                    3D
 Structure written by MMmdl.
167176  0  0  1  0            999 V2000
  -30.6614  -14.5257   20.5412 C   0  0  0  0  0  0
  -30.4474  -12.3281   19.4574 C   0  0  0  0  0  0
  -29.5161  -12.4618   18.2339 C   0  0  0  0  0  0
  -28.0325  -12.3296   18.6385 C   0  0  0  0  0  0
  -27.6615  -13.2051   19.8664 C   0  0  2  0  0  0
  -28.6976  -13.0170   20.9971 C   0  0  0  0  0  0
  -25.2567  -13.8150   20.5619 C   0  0  0  0  0  0
  -24.1818  -13.0426   20.9150 C   0  0  0  0  0  0
  -24.6374  -11.6892   20.8682 C   0  0  0  0  0  0
  -23.9014  -10.4293   21.0365 C   0  0  0  0  0  0
  -24.3575   -9.4229   21.9158 C   0  0  0  0  0  0
  -23.6292   -8.2231   22.0728 C   0  0  0  0  0  0
  -22.4274   -8.0250   21.3511 C   0  0  0  0  0  0
  -21.9871   -9.0220   20.4622 C   0  0  0  0  0  0
  -22.7161  -10.2131   20.3037 C   0  0  0  0  0  0
  -21.6839   -6.0708   22.5288 C   0  0  0  0  0  0
  -21.4010   -6.5628   23.8218 C   0  0  0  0  0  0
  -21.3658   -5.6784   24.9184 C   0  0  0  0  0  0
  -21.6071   -4.3048   24.7242 C   0  0  0  0  0  0
  -21.8813   -3.8120   23.4358 C   0  0  0  0  0  0
  -21.9193   -4.6933   22.3409 C   0  0  0  0  0  0
  -22.7833  -13.5223   21.1848 C   0  0  0  0  0  0
  -22.1648   -4.2112   21.0976 F   0  0  0  0  0  0
  -21.5645   -3.4540   25.7759 F   0  0  0  0  0  0
  -30.0269  -13.3283   20.4514 N   0  0  0  0  0  0
  -26.3013  -12.9329   20.3277 N   0  0  0  0  0  0
  -25.9317  -11.6493   20.5731 N   0  0  0  0  0  0
  -22.0419  -12.8270   22.0409 N   0  0  0  0  0  0
  -25.4318  -15.1865   20.4017 N   0  0  0  0  0  0
  -31.8243  -14.6911   20.1564 O   0  0  0  0  0  0
  -21.6629   -6.8857   21.4242 O   0  0  0  0  0  0
  -22.3533  -14.5524   20.6673 O   0  0  0  0  0  0
  -24.6105  -31.8672   23.2114 C   0  0  0  0  0  0
  -25.8994  -32.4823   23.8416 C   0  0  1  0  0  0
  -27.2291  -27.4477   20.1218 C   0  0  0  0  0  0
  -25.5866  -33.8619   24.2357 N   0  0  0  0  0  0
  -23.3990  -30.4937   21.5478 C   0  0  2  0  0  0
  -24.8492  -28.9587   20.1127 C   0  0  0  0  0  0
  -22.7373  -29.4688   22.4940 C   0  0  0  0  0  0
  -18.0275  -28.1425   22.8478 C   0  0  0  0  0  0
  -24.1474  -36.7335   23.2638 C   0  0  0  0  0  0
  -25.9243  -30.8402   21.3606 C   0  0  0  0  0  0
  -26.0050  -29.4762   20.7116 C   0  0  0  0  0  0
  -27.1999  -28.7264   20.7178 C   0  0  0  0  0  0
  -26.0715  -26.9497   19.4859 C   0  0  0  0  0  0
  -24.8750  -27.6946   19.4980 C   0  0  0  0  0  0
  -23.6079  -29.8197   20.1650 C   0  0  0  0  0  0
  -25.4082  -36.3123   24.0355 C   0  0  1  0  0  0
  -20.5856  -28.3717   23.1301 C   0  0  2  0  0  0
  -20.6781  -26.9451   22.5419 C   0  0  0  0  0  0
  -19.5769  -26.6419   21.5207 C   0  0  0  0  0  0
  -18.1944  -26.7982   22.1607 C   0  0  0  0  0  0
  -19.1534  -28.8874   23.2902 C   0  0  0  0  0  0
  -18.9462  -30.1475   23.8923 C   0  0  0  0  0  0
  -17.6473  -30.6629   24.0587 C   0  0  0  0  0  0
  -25.9005  -34.9478   23.5154 C   0  0  0  0  0  0
  -16.5351  -29.9146   23.6333 C   0  0  0  0  0  0
  -16.7266  -28.6569   23.0320 C   0  0  0  0  0  0
  -26.4458  -31.6611   25.0739 C   0  0  0  0  0  0
  -25.3773  -31.3701   26.1535 C   0  0  0  0  0  0
  -27.0265  -30.3048   24.6100 C   0  0  0  0  0  0
  -27.6069  -32.4319   25.7466 C   0  0  0  0  0  0
  -27.5594  -37.1801   24.8450 C   0  0  0  0  0  0
  -21.4106  -29.3073   22.3684 N   0  0  0  0  0  0
  -26.4277  -37.3803   23.9445 N   0  0  0  0  0  0
  -24.6622  -31.0822   22.0987 N   0  0  0  0  0  0
  -23.4161  -28.8204   23.2961 O   0  0  0  0  0  0
  -28.3343  -26.6418   20.2479 O   0  0  0  0  0  0
  -26.5563  -34.8922   22.4711 O   0  0  0  0  0  0
  -23.5304  -32.1402   23.7532 O   0  0  0  0  0  0
  -29.8021  -16.6876   18.7014 C   0  0  0  0  0  0
  -29.7745  -17.8233   17.8839 C   0  0  0  0  0  0
  -29.8226  -18.1034   20.6898 C   0  0  0  0  0  0
  -29.8306  -19.2674   19.8600 C   0  0  0  0  0  0
  -29.8584  -16.8007   20.1070 C   0  0  0  0  0  0
  -29.8373  -19.1079   18.4488 C   0  0  0  0  0  0
  -28.5287  -21.4705   19.9988 C   0  0  0  0  0  0
  -30.0736  -21.0051   21.8630 C   0  0  0  0  0  0
  -28.7337  -22.9800   20.1616 C   0  0  0  0  0  0
  -30.2149  -22.5370   22.1071 C   0  0  0  0  0  0
  -29.8224  -20.7220   20.3724 C   0  0  1  0  0  0
  -29.1627  -20.2634   16.4743 C   0  0  0  0  0  0
  -29.3734  -24.8293   21.6449 C   0  0  0  0  0  0
  -28.1422  -25.7230   21.3423 C   0  0  0  0  0  0
  -29.8860  -15.5881   20.8729 N   0  0  0  0  0  0
  -29.0921  -23.3620   21.5553 N   0  3  1  0  0  0
  -29.9499  -20.2303   17.6578 O   0  0  0  0  0  0
  -31.4871  -12.4622   19.1502 H   0  0  0  0  0  0
  -30.3946  -11.3288   19.8921 H   0  0  0  0  0  0
  -29.7732  -11.7002   17.4965 H   0  0  0  0  0  0
  -29.6840  -13.4236   17.7516 H   0  0  0  0  0  0
  -27.8538  -11.2800   18.8801 H   0  0  0  0  0  0
  -27.3837  -12.5605   17.7940 H   0  0  0  0  0  0
  -27.6973  -14.2438   19.5364 H   0  0  0  0  0  0
  -28.6845  -11.9867   21.3552 H   0  0  0  0  0  0
  -28.4573  -13.6409   21.8579 H   0  0  0  0  0  0
  -25.2685   -9.5766   22.4765 H   0  0  0  0  0  0
  -24.0007   -7.4649   22.7472 H   0  0  0  0  0  0
  -21.0768   -8.8724   19.8973 H   0  0  0  0  0  0
  -22.3534  -10.9679   19.6182 H   0  0  0  0  0  0
  -21.1977   -7.6128   23.9729 H   0  0  0  0  0  0
  -21.1492   -6.0483   25.9101 H   0  0  0  0  0  0
  -22.0589   -2.7576   23.2853 H   0  0  0  0  0  0
  -22.3926  -11.9953   22.4908 H   0  0  0  0  0  0
  -21.1058  -13.1404   22.2562 H   0  0  0  0  0  0
  -24.6695  -15.8449   20.5226 H   0  0  0  0  0  0
  -26.2914  -15.6256   20.0959 H   0  0  0  0  0  0
  -26.7037  -32.5548   23.1166 H   0  0  0  0  0  0
  -25.0058  -33.9778   25.0532 H   0  0  0  0  0  0
  -22.6878  -31.3112   21.4059 H   0  0  0  0  0  0
  -23.3744  -35.9661   23.3252 H   0  0  0  0  0  0
  -24.3594  -36.8989   22.2064 H   0  0  0  0  0  0
  -23.7204  -37.6521   23.6667 H   0  0  0  0  0  0
  -26.0303  -31.5981   20.5839 H   0  0  0  0  0  0
  -26.8142  -30.8980   21.9760 H   0  0  0  0  0  0
  -28.0820  -29.1104   21.2142 H   0  0  0  0  0  0
  -26.0859  -25.9771   19.0159 H   0  0  0  0  0  0
  -23.9833  -27.2857   19.0450 H   0  0  0  0  0  0
  -23.7135  -30.5899   19.4014 H   0  0  0  0  0  0
  -22.7343  -29.2341   19.8741 H   0  0  0  0  0  0
  -25.1242  -36.1989   25.0849 H   0  0  0  0  0  0
  -20.9973  -28.3325   24.1405 H   0  0  0  0  0  0
  -20.5709  -26.2320   23.3611 H   0  0  0  0  0  0
  -21.6654  -26.7537   22.1188 H   0  0  0  0  0  0
  -19.6948  -25.6328   21.1241 H   0  0  0  0  0  0
  -19.6747  -27.3218   20.6727 H   0  0  0  0  0  0
  -17.4224  -26.6719   21.3996 H   0  0  0  0  0  0
  -18.0367  -26.0126   22.9011 H   0  0  0  0  0  0
  -19.7937  -30.7282   24.2310 H   0  0  0  0  0  0
  -17.5036  -31.6295   24.5210 H   0  0  0  0  0  0
  -15.5367  -30.3066   23.7649 H   0  0  0  0  0  0
  -15.8657  -28.0919   22.6992 H   0  0  0  0  0  0
  -24.5924  -30.7053   25.7910 H   0  0  0  0  0  0
  -24.8997  -32.2843   26.5066 H   0  0  0  0  0  0
  -25.8188  -30.8839   27.0246 H   0  0  0  0  0  0
  -26.2771  -29.6802   24.1218 H   0  0  0  0  0  0
  -27.4080  -29.7302   25.4557 H   0  0  0  0  0  0
  -27.8603  -30.4362   23.9198 H   0  0  0  0  0  0
  -27.2719  -33.3600   26.2110 H   0  0  0  0  0  0
  -28.3836  -32.6903   25.0257 H   0  0  0  0  0  0
  -28.0786  -31.8403   26.5324 H   0  0  0  0  0  0
  -28.2560  -38.0144   24.7559 H   0  0  0  0  0  0
  -28.1134  -36.2685   24.6166 H   0  0  0  0  0  0
  -27.2342  -37.1325   25.8854 H   0  0  0  0  0  0
  -20.9252  -29.8773   21.6896 H   0  0  0  0  0  0
  -26.0168  -38.2871   24.1501 H   0  0  0  0  0  0
  -29.8014  -15.7202   18.2212 H   0  0  0  0  0  0
  -29.7403  -17.6809   16.8157 H   0  0  0  0  0  0
  -29.8207  -18.2126   21.7675 H   0  0  0  0  0  0
  -28.2547  -21.3056   18.9607 H   0  0  0  0  0  0
  -27.6830  -21.1058   20.5815 H   0  0  0  0  0  0
  -29.2673  -20.5964   22.4722 H   0  0  0  0  0  0
  -30.9956  -20.5207   22.1861 H   0  0  0  0  0  0
  -27.8287  -23.4830   19.8200 H   0  0  0  0  0  0
  -29.5290  -23.3134   19.4924 H   0  0  0  0  0  0
  -31.1445  -22.8803   21.6526 H   0  0  0  0  0  0
  -30.3139  -22.7234   23.1779 H   0  0  0  0  0  0
  -30.6504  -21.1952   19.8376 H   0  0  0  0  0  0
  -29.1982  -21.2666   16.0498 H   0  0  0  0  0  0
  -28.1202  -20.0442   16.7061 H   0  0  0  0  0  0
  -29.5218  -19.5713   15.7144 H   0  0  0  0  0  0
  -29.7246  -25.0638   22.6525 H   0  0  0  0  0  0
  -30.2008  -25.0894   20.9828 H   0  0  0  0  0  0
  -27.8819  -26.2796   22.2456 H   0  0  0  0  0  0
  -27.2649  -25.1065   21.1444 H   0  0  0  0  0  0
  -29.0090  -15.3459   21.3118 H   0  0  0  0  0  0
  -28.2878  -23.1687   22.1387 H   0  0  0  0  0  0
  1 25  1  0  0  0
  1 30  2  0  0  0
  1 85  1  0  0  0
  2  3  1  0  0  0
  2 25  1  0  0  0
  2 88  1  0  0  0
  2 89  1  0  0  0
  3  4  1  0  0  0
  3 90  1  0  0  0
  3 91  1  0  0  0
  4  5  1  0  0  0
  4 92  1  0  0  0
  4 93  1  0  0  0
  5  6  1  0  0  0
  5 26  1  0  0  0
  5 94  1  0  0  0
  6 25  1  0  0  0
  6 95  1  0  0  0
  6 96  1  0  0  0
  7  8  2  0  0  0
  7 26  1  0  0  0
  7 29  1  0  0  0
  8  9  1  0  0  0
  8 22  1  0  0  0
  9 10  1  0  0  0
  9 27  2  0  0  0
 10 11  2  0  0  0
 10 15  1  0  0  0
 11 12  1  0  0  0
 11 97  1  0  0  0
 12 13  2  0  0  0
 12 98  1  0  0  0
 13 14  1  0  0  0
 13 31  1  0  0  0
 14 15  2  0  0  0
 14 99  1  0  0  0
 15100  1  0  0  0
 16 17  2  0  0  0
 16 21  1  0  0  0
 16 31  1  0  0  0
 17 18  1  0  0  0
 17101  1  0  0  0
 18 19  2  0  0  0
 18102  1  0  0  0
 19 20  1  0  0  0
 19 24  1  0  0  0
 20 21  2  0  0  0
 20103  1  0  0  0
 21 23  1  0  0  0
 22 28  1  0  0  0
 22 32  2  0  0  0
 26 27  1  0  0  0
 28104  1  0  0  0
 28105  1  0  0  0
 29106  1  0  0  0
 29107  1  0  0  0
 33 34  1  0  0  0
 33 66  1  0  0  0
 33 70  2  0  0  0
 34 36  1  0  0  0
 34 59  1  0  0  0
 34108  1  0  0  0
 35 44  2  0  0  0
 35 45  1  0  0  0
 35 68  1  0  0  0
 36 56  1  0  0  0
 36109  1  0  0  0
 37 39  1  0  0  0
 37 47  1  0  0  0
 37 66  1  0  0  0
 37110  1  0  0  0
 38 43  2  0  0  0
 38 46  1  0  0  0
 38 47  1  0  0  0
 39 64  1  0  0  0
 39 67  2  0  0  0
 40 52  1  0  0  0
 40 53  2  0  0  0
 40 58  1  0  0  0
 41111  1  0  0  0
 41112  1  0  0  0
 41113  1  0  0  0
 41 48  1  0  0  0
 42 43  1  0  0  0
 42 66  1  0  0  0
 42114  1  0  0  0
 42115  1  0  0  0
 43 44  1  0  0  0
 44116  1  0  0  0
 45 46  2  0  0  0
 45117  1  0  0  0
 46118  1  0  0  0
 47119  1  0  0  0
 47120  1  0  0  0
 48 56  1  0  0  0
 48 65  1  0  0  0
 48121  1  0  0  0
 49 50  1  0  0  0
 49 53  1  0  0  0
 49 64  1  0  0  0
 49122  1  0  0  0
 50 51  1  0  0  0
 50123  1  0  0  0
 50124  1  0  0  0
 51 52  1  0  0  0
 51125  1  0  0  0
 51126  1  0  0  0
 52127  1  0  0  0
 52128  1  0  0  0
 53 54  1  0  0  0
 54 55  2  0  0  0
 54129  1  0  0  0
 55 57  1  0  0  0
 55130  1  0  0  0
 56 69  2  0  0  0
 57 58  2  0  0  0
 57131  1  0  0  0
 58132  1  0  0  0
 59 60  1  0  0  0
 59 61  1  0  0  0
 59 62  1  0  0  0
 60133  1  0  0  0
 60134  1  0  0  0
 60135  1  0  0  0
 61136  1  0  0  0
 61137  1  0  0  0
 61138  1  0  0  0
 62139  1  0  0  0
 62140  1  0  0  0
 62141  1  0  0  0
 63 65  1  0  0  0
 63142  1  0  0  0
 63143  1  0  0  0
 63144  1  0  0  0
 64145  1  0  0  0
 65146  1  0  0  0
 68 84  1  0  0  0
 71 72  2  0  0  0
 71 75  1  0  0  0
 71147  1  0  0  0
 72 76  1  0  0  0
 72148  1  0  0  0
 73 74  1  0  0  0
 73 75  2  0  0  0
 73149  1  0  0  0
 74 76  2  0  0  0
 74 81  1  0  0  0
 75 85  1  0  0  0
 76 87  1  0  0  0
 77 79  1  0  0  0
 77 81  1  0  0  0
 77150  1  0  0  0
 77151  1  0  0  0
 78 80  1  0  0  0
 78 81  1  0  0  0
 78152  1  0  0  0
 78153  1  0  0  0
 79 86  1  0  0  0
 79154  1  0  0  0
 79155  1  0  0  0
 80 86  1  0  0  0
 80156  1  0  0  0
 80157  1  0  0  0
 81158  1  0  0  0
 82 87  1  0  0  0
 82159  1  0  0  0
 82160  1  0  0  0
 82161  1  0  0  0
 83 84  1  0  0  0
 83162  1  0  0  0
 83163  1  0  0  0
 83 86  1  0  0  0
 84164  1  0  0  0
 84165  1  0  0  0
 85166  1  0  0  0
 86167  1  0  0  0
M  CHG  1  86   1
M  ISO  4   1 100  68 101  84 101  85 100
M  END
> <chiral flag>
0

> <version>
0

> <s_m_source_file>
/data/baiqing/PycharmProjects/Reinvent-master-3.2/result/LINK_invent/BTK/process_docking_weight1_custom_sum_contain_oxygen_bond_distance_aromatic_linkinvent_7_9_3/rearranged_h_0142.sdf

> <i_m_source_file_index>
44

> <r_mmod_Potential_Energy-OPLS-2005>
-23.7789649963379

> <r_mmod_Stretch_Energy-OPLS-2005>
43.2277755737305

> <r_mmod_Bend_Energy-OPLS-2005>
111.109481811523

> <r_mmod_Torsional_Energy-OPLS-2005>
329.353668212891

> <r_mmod_Improper_Torsional_Energy-OPLS-2005>
7.58277177810669

> <r_mmod_Van_der_Waal_Energy-OPLS-2005>
166.303207397461

> <r_mmod_Electrostatic_Energy-OPLS-2005>
-278.882293701172

> <r_mmod_Solvation_Energy-OPLS-2005>
-427.053588867188

> <b_mmod_Minimization_Converged-OPLS-2005>
0

> <r_mmod_RMS_Derivative-OPLS-2005>
5.10893201828003

$$$$
45
                    3D
 Structure written by MMmdl.
170179  0  0  1  0            999 V2000
  -30.7840  -14.3594   20.6859 C   0  0  0  0  0  0
  -30.4099  -12.2902   19.3973 C   0  0  0  0  0  0
  -29.4781  -12.5243   18.1943 C   0  0  0  0  0  0
  -28.0048  -12.3800   18.6138 C   0  0  0  0  0  0
  -27.6647  -13.2056   19.8818 C   0  0  2  0  0  0
  -28.7024  -12.9620   21.0004 C   0  0  0  0  0  0
  -25.2593  -13.8174   20.5686 C   0  0  0  0  0  0
  -24.1832  -13.0444   20.9173 C   0  0  0  0  0  0
  -24.6382  -11.6912   20.8727 C   0  0  0  0  0  0
  -23.9045  -10.4297   21.0397 C   0  0  0  0  0  0
  -24.3602   -9.4220   21.9177 C   0  0  0  0  0  0
  -23.6285   -8.2253   22.0749 C   0  0  0  0  0  0
  -22.4272   -8.0283   21.3541 C   0  0  0  0  0  0
  -21.9900   -9.0250   20.4643 C   0  0  0  0  0  0
  -22.7219  -10.2133   20.3049 C   0  0  0  0  0  0
  -21.6855   -6.0730   22.5272 C   0  0  0  0  0  0
  -21.4013   -6.5636   23.8202 C   0  0  0  0  0  0
  -21.3660   -5.6793   24.9168 C   0  0  0  0  0  0
  -21.6050   -4.3055   24.7221 C   0  0  0  0  0  0
  -21.8823   -3.8142   23.4344 C   0  0  0  0  0  0
  -21.9196   -4.6958   22.3398 C   0  0  0  0  0  0
  -22.7861  -13.5245   21.1844 C   0  0  0  0  0  0
  -22.1665   -4.2145   21.0978 F   0  0  0  0  0  0
  -21.5633   -3.4540   25.7735 F   0  0  0  0  0  0
  -30.0476  -13.2400   20.4618 N   0  0  0  0  0  0
  -26.3031  -12.9337   20.3402 N   0  0  0  0  0  0
  -25.9310  -11.6491   20.5768 N   0  0  0  0  0  0
  -22.0507  -12.8219   22.0403 N   0  0  0  0  0  0
  -25.4352  -15.1882   20.4097 N   0  0  0  0  0  0
  -31.7891  -14.6442   20.0285 O   0  0  0  0  0  0
  -21.6645   -6.8873   21.4235 O   0  0  0  0  0  0
  -22.3543  -14.5551   20.6713 O   0  0  0  0  0  0
  -24.6107  -31.8694   23.2154 C   0  0  0  0  0  0
  -25.9007  -32.4808   23.8445 C   0  0  1  0  0  0
  -27.2286  -27.4531   20.0776 C   0  0  0  0  0  0
  -25.5864  -33.8617   24.2359 N   0  0  0  0  0  0
  -23.3961  -30.4987   21.5533 C   0  0  2  0  0  0
  -24.8383  -28.9678   20.1144 C   0  0  0  0  0  0
  -22.7385  -29.4692   22.5001 C   0  0  0  0  0  0
  -18.0268  -28.1353   22.8504 C   0  0  0  0  0  0
  -24.1484  -36.7355   23.2644 C   0  0  0  0  0  0
  -25.9237  -30.8386   21.3657 C   0  0  0  0  0  0
  -25.9974  -29.4750   20.7127 C   0  0  0  0  0  0
  -27.1912  -28.7210   20.6991 C   0  0  0  0  0  0
  -26.0502  -26.9652   19.4625 C   0  0  0  0  0  0
  -24.8576  -27.7088   19.4926 C   0  0  0  0  0  0
  -23.6021  -29.8350   20.1668 C   0  0  0  0  0  0
  -25.4088  -36.3107   24.0343 C   0  0  1  0  0  0
  -20.5851  -28.3647   23.1322 C   0  0  2  0  0  0
  -20.6745  -26.9387   22.5412 C   0  0  0  0  0  0
  -19.5735  -26.6375   21.5199 C   0  0  0  0  0  0
  -18.1916  -26.7911   22.1615 C   0  0  0  0  0  0
  -19.1515  -28.8816   23.2919 C   0  0  0  0  0  0
  -18.9449  -30.1422   23.8941 C   0  0  0  0  0  0
  -17.6449  -30.6574   24.0557 C   0  0  0  0  0  0
  -25.9014  -34.9465   23.5147 C   0  0  0  0  0  0
  -16.5341  -29.9071   23.6310 C   0  0  0  0  0  0
  -16.7260  -28.6474   23.0362 C   0  0  0  0  0  0
  -26.4450  -31.6563   25.0766 C   0  0  0  0  0  0
  -25.3764  -31.3611   26.1548 C   0  0  0  0  0  0
  -27.0265  -30.3002   24.6122 C   0  0  0  0  0  0
  -27.6039  -32.4271   25.7516 C   0  0  0  0  0  0
  -27.5571  -37.1820   24.8453 C   0  0  0  0  0  0
  -21.4119  -29.3030   22.3739 N   0  0  0  0  0  0
  -26.4268  -37.3796   23.9420 N   0  0  0  0  0  0
  -24.6611  -31.0837   22.1027 N   0  0  0  0  0  0
  -23.4179  -28.8228   23.3016 O   0  0  0  0  0  0
  -28.4183  -26.7561   20.0997 O   0  0  0  0  0  0
  -26.5595  -34.8914   22.4718 O   0  0  0  0  0  0
  -23.5309  -32.1448   23.7563 O   0  0  0  0  0  0
  -30.5009  -21.0798   22.5244 C   0  0  0  0  0  0
  -30.3601  -22.3676   21.9854 C   0  0  0  0  0  0
  -28.4442  -21.3874   23.7929 C   0  0  0  0  0  0
  -29.5437  -20.5709   23.4268 C   0  0  0  0  0  0
  -29.2546  -23.1809   22.3193 C   0  0  0  0  0  0
  -28.3023  -22.7006   23.2678 C   0  0  0  0  0  0
  -30.8530  -17.1667   24.4981 C   0  0  0  0  0  0
  -31.5777  -16.1110   23.6599 C   0  0  0  0  0  0
  -30.1964  -17.5651   22.2385 C   0  0  0  0  0  0
  -30.6290  -18.3040   23.5100 C   0  0  1  0  0  0
  -31.0914  -16.3098   22.2091 C   0  0  2  0  0  0
  -27.4023  -20.8408   24.7675 C   0  0  0  0  0  0
  -27.1316  -24.8231   23.5575 C   0  0  0  0  0  0
  -28.4326  -25.3948   19.6658 C   0  0  0  0  0  0
  -29.5361  -24.6223   20.3980 C   0  0  0  0  0  0
  -29.6603  -19.2848   23.9850 N   0  0  0  0  0  0
  -30.3876  -15.1208   21.7165 N   0  0  0  0  0  0
  -27.1996  -23.4119   23.7101 O   0  0  0  0  0  0
  -29.1027  -24.4239   21.7443 O   0  0  0  0  0  0
  -31.4525  -12.3849   19.0879 H   0  0  0  0  0  0
  -30.3052  -11.2682   19.7660 H   0  0  0  0  0  0
  -29.7085  -11.8169   17.3967 H   0  0  0  0  0  0
  -29.6484  -13.5199   17.7812 H   0  0  0  0  0  0
  -27.8132  -11.3224   18.7957 H   0  0  0  0  0  0
  -27.3502  -12.6701   17.7920 H   0  0  0  0  0  0
  -27.7204  -14.2587   19.6047 H   0  0  0  0  0  0
  -28.6592  -11.9258   21.3398 H   0  0  0  0  0  0
  -28.4502  -13.5626   21.8742 H   0  0  0  0  0  0
  -25.2741   -9.5706   22.4753 H   0  0  0  0  0  0
  -24.0004   -7.4645   22.7463 H   0  0  0  0  0  0
  -21.0839   -8.8756   19.8942 H   0  0  0  0  0  0
  -22.3668  -10.9669   19.6160 H   0  0  0  0  0  0
  -21.2001   -7.6142   23.9702 H   0  0  0  0  0  0
  -21.1482   -6.0525   25.9072 H   0  0  0  0  0  0
  -22.0605   -2.7604   23.2845 H   0  0  0  0  0  0
  -22.4139  -11.9881   22.4775 H   0  0  0  0  0  0
  -21.1117  -13.1223   22.2610 H   0  0  0  0  0  0
  -24.6775  -15.8534   20.5201 H   0  0  0  0  0  0
  -26.3036  -15.6207   20.1180 H   0  0  0  0  0  0
  -26.7085  -32.5533   23.1221 H   0  0  0  0  0  0
  -24.9932  -33.9775   25.0446 H   0  0  0  0  0  0
  -22.6826  -31.3145   21.4172 H   0  0  0  0  0  0
  -23.3714  -35.9725   23.3266 H   0  0  0  0  0  0
  -24.3587  -36.9040   22.2071 H   0  0  0  0  0  0
  -23.7278  -37.6564   23.6692 H   0  0  0  0  0  0
  -26.0346  -31.6047   20.5968 H   0  0  0  0  0  0
  -26.8110  -30.8912   21.9843 H   0  0  0  0  0  0
  -28.0860  -29.1057   21.1700 H   0  0  0  0  0  0
  -26.0206  -26.0229   18.9380 H   0  0  0  0  0  0
  -23.9666  -27.3127   19.0219 H   0  0  0  0  0  0
  -23.7118  -30.6117   19.4090 H   0  0  0  0  0  0
  -22.7230  -29.2597   19.8716 H   0  0  0  0  0  0
  -25.1250  -36.1963   25.0835 H   0  0  0  0  0  0
  -20.9953  -28.3202   24.1439 H   0  0  0  0  0  0
  -20.5621  -26.2267   23.3598 H   0  0  0  0  0  0
  -21.6619  -26.7406   22.1232 H   0  0  0  0  0  0
  -19.6892  -25.6289   21.1224 H   0  0  0  0  0  0
  -19.6663  -27.3180   20.6723 H   0  0  0  0  0  0
  -17.4176  -26.6668   21.4018 H   0  0  0  0  0  0
  -18.0317  -26.0046   22.9001 H   0  0  0  0  0  0
  -19.7921  -30.7217   24.2354 H   0  0  0  0  0  0
  -17.4998  -31.6273   24.5126 H   0  0  0  0  0  0
  -15.5338  -30.2974   23.7619 H   0  0  0  0  0  0
  -15.8662  -28.0791   22.7072 H   0  0  0  0  0  0
  -24.5964  -30.6903   25.7929 H   0  0  0  0  0  0
  -24.8903  -32.2709   26.5071 H   0  0  0  0  0  0
  -25.8192  -30.8778   27.0271 H   0  0  0  0  0  0
  -26.2785  -29.6761   24.1213 H   0  0  0  0  0  0
  -27.4062  -29.7239   25.4574 H   0  0  0  0  0  0
  -27.8613  -30.4314   23.9241 H   0  0  0  0  0  0
  -27.2680  -33.3580   26.2096 H   0  0  0  0  0  0
  -28.3833  -32.6811   25.0325 H   0  0  0  0  0  0
  -28.0709  -31.8394   26.5432 H   0  0  0  0  0  0
  -28.2537  -38.0158   24.7508 H   0  0  0  0  0  0
  -28.1112  -36.2686   24.6222 H   0  0  0  0  0  0
  -27.2311  -37.1409   25.8863 H   0  0  0  0  0  0
  -20.9260  -29.8802   21.7019 H   0  0  0  0  0  0
  -26.0148  -38.2878   24.1425 H   0  0  0  0  0  0
  -31.3631  -20.5064   22.2213 H   0  0  0  0  0  0
  -31.1220  -22.7199   21.3058 H   0  0  0  0  0  0
  -31.4288  -17.4710   25.3738 H   0  0  0  0  0  0
  -29.8993  -16.7654   24.8440 H   0  0  0  0  0  0
  -31.4121  -15.1032   24.0436 H   0  0  0  0  0  0
  -32.6528  -16.2961   23.7034 H   0  0  0  0  0  0
  -30.3072  -18.1749   21.3409 H   0  0  0  0  0  0
  -29.1438  -17.2823   22.3116 H   0  0  0  0  0  0
  -31.5995  -18.7738   23.3475 H   0  0  0  0  0  0
  -31.9643  -16.5359   21.5923 H   0  0  0  0  0  0
  -27.8367  -20.7345   25.7611 H   0  0  0  0  0  0
  -27.0490  -19.8628   24.4395 H   0  0  0  0  0  0
  -26.5205  -21.4724   24.8597 H   0  0  0  0  0  0
  -26.3389  -25.2135   24.1957 H   0  0  0  0  0  0
  -26.8835  -25.0979   22.5322 H   0  0  0  0  0  0
  -28.0573  -25.3120   23.8628 H   0  0  0  0  0  0
  -27.4998  -24.8636   19.8535 H   0  0  0  0  0  0
  -28.6105  -25.3805   18.5896 H   0  0  0  0  0  0
  -30.4830  -25.1619   20.3785 H   0  0  0  0  0  0
  -29.6807  -23.6818   19.8646 H   0  0  0  0  0  0
  -28.9356  -18.9671   24.6218 H   0  0  0  0  0  0
  -29.5725  -14.8107   22.2235 H   0  0  0  0  0  0
  1 25  1  0  0  0
  1 30  2  0  0  0
  1 87  1  0  0  0
  2  3  1  0  0  0
  2 25  1  0  0  0
  2 90  1  0  0  0
  2 91  1  0  0  0
  3  4  1  0  0  0
  3 92  1  0  0  0
  3 93  1  0  0  0
  4  5  1  0  0  0
  4 94  1  0  0  0
  4 95  1  0  0  0
  5  6  1  0  0  0
  5 26  1  0  0  0
  5 96  1  0  0  0
  6 25  1  0  0  0
  6 97  1  0  0  0
  6 98  1  0  0  0
  7  8  2  0  0  0
  7 26  1  0  0  0
  7 29  1  0  0  0
  8  9  1  0  0  0
  8 22  1  0  0  0
  9 10  1  0  0  0
  9 27  2  0  0  0
 10 11  2  0  0  0
 10 15  1  0  0  0
 11 12  1  0  0  0
 11 99  1  0  0  0
 12 13  2  0  0  0
 12100  1  0  0  0
 13 14  1  0  0  0
 13 31  1  0  0  0
 14 15  2  0  0  0
 14101  1  0  0  0
 15102  1  0  0  0
 16 17  2  0  0  0
 16 21  1  0  0  0
 16 31  1  0  0  0
 17 18  1  0  0  0
 17103  1  0  0  0
 18 19  2  0  0  0
 18104  1  0  0  0
 19 20  1  0  0  0
 19 24  1  0  0  0
 20 21  2  0  0  0
 20105  1  0  0  0
 21 23  1  0  0  0
 22 28  1  0  0  0
 22 32  2  0  0  0
 26 27  1  0  0  0
 28106  1  0  0  0
 28107  1  0  0  0
 29108  1  0  0  0
 29109  1  0  0  0
 33 34  1  0  0  0
 33 66  1  0  0  0
 33 70  2  0  0  0
 34 36  1  0  0  0
 34 59  1  0  0  0
 34110  1  0  0  0
 35 44  2  0  0  0
 35 45  1  0  0  0
 35 68  1  0  0  0
 36 56  1  0  0  0
 36111  1  0  0  0
 37 39  1  0  0  0
 37 47  1  0  0  0
 37 66  1  0  0  0
 37112  1  0  0  0
 38 43  2  0  0  0
 38 46  1  0  0  0
 38 47  1  0  0  0
 39 64  1  0  0  0
 39 67  2  0  0  0
 40 52  1  0  0  0
 40 53  2  0  0  0
 40 58  1  0  0  0
 41113  1  0  0  0
 41114  1  0  0  0
 41115  1  0  0  0
 41 48  1  0  0  0
 42 43  1  0  0  0
 42 66  1  0  0  0
 42116  1  0  0  0
 42117  1  0  0  0
 43 44  1  0  0  0
 44118  1  0  0  0
 45 46  2  0  0  0
 45119  1  0  0  0
 46120  1  0  0  0
 47121  1  0  0  0
 47122  1  0  0  0
 48 56  1  0  0  0
 48 65  1  0  0  0
 48123  1  0  0  0
 49 50  1  0  0  0
 49 53  1  0  0  0
 49 64  1  0  0  0
 49124  1  0  0  0
 50 51  1  0  0  0
 50125  1  0  0  0
 50126  1  0  0  0
 51 52  1  0  0  0
 51127  1  0  0  0
 51128  1  0  0  0
 52129  1  0  0  0
 52130  1  0  0  0
 53 54  1  0  0  0
 54 55  2  0  0  0
 54131  1  0  0  0
 55 57  1  0  0  0
 55132  1  0  0  0
 56 69  2  0  0  0
 57 58  2  0  0  0
 57133  1  0  0  0
 58134  1  0  0  0
 59 60  1  0  0  0
 59 61  1  0  0  0
 59 62  1  0  0  0
 60135  1  0  0  0
 60136  1  0  0  0
 60137  1  0  0  0
 61138  1  0  0  0
 61139  1  0  0  0
 61140  1  0  0  0
 62141  1  0  0  0
 62142  1  0  0  0
 62143  1  0  0  0
 63 65  1  0  0  0
 63144  1  0  0  0
 63145  1  0  0  0
 63146  1  0  0  0
 64147  1  0  0  0
 65148  1  0  0  0
 68 84  1  0  0  0
 71 72  2  0  0  0
 71 74  1  0  0  0
 71149  1  0  0  0
 72 75  1  0  0  0
 72150  1  0  0  0
 73 74  2  0  0  0
 73 76  1  0  0  0
 73 82  1  0  0  0
 74 86  1  0  0  0
 75 76  2  0  0  0
 75 89  1  0  0  0
 76 88  1  0  0  0
 77 78  1  0  0  0
 77 80  1  0  0  0
 77151  1  0  0  0
 77152  1  0  0  0
 78 81  1  0  0  0
 78153  1  0  0  0
 78154  1  0  0  0
 79 80  1  0  0  0
 79 81  1  0  0  0
 79155  1  0  0  0
 79156  1  0  0  0
 80 86  1  0  0  0
 80157  1  0  0  0
 81 87  1  0  0  0
 81158  1  0  0  0
 82159  1  0  0  0
 82160  1  0  0  0
 82161  1  0  0  0
 83 88  1  0  0  0
 83162  1  0  0  0
 83163  1  0  0  0
 83164  1  0  0  0
 84 85  1  0  0  0
 84165  1  0  0  0
 84166  1  0  0  0
 85 89  1  0  0  0
 85167  1  0  0  0
 85168  1  0  0  0
 86169  1  0  0  0
 87170  1  0  0  0
M  ISO  4   1 100  68 101  84 101  87 100
M  END
> <chiral flag>
0

> <version>
0

> <s_m_source_file>
/data/baiqing/PycharmProjects/Reinvent-master-3.2/result/LINK_invent/BTK/process_docking_weight1_custom_sum_contain_oxygen_bond_distance_aromatic_linkinvent_7_9_3/rearranged_h_0142.sdf

> <i_m_source_file_index>
45

> <r_mmod_Potential_Energy-OPLS-2005>
-32.9285087585449

> <r_mmod_Stretch_Energy-OPLS-2005>
36.8840446472168

> <r_mmod_Bend_Energy-OPLS-2005>
154.365661621094

> <r_mmod_Torsional_Energy-OPLS-2005>
226.535064697266

> <r_mmod_Improper_Torsional_Energy-OPLS-2005>
2.2392954826355

> <r_mmod_Van_der_Waal_Energy-OPLS-2005>
176.955474853516

> <r_mmod_Electrostatic_Energy-OPLS-2005>
-419.981842041016

> <r_mmod_Solvation_Energy-OPLS-2005>
-218.240966796875

> <b_mmod_Minimization_Converged-OPLS-2005>
0

> <r_mmod_RMS_Derivative-OPLS-2005>
1.69784593582153

$$$$
46
                    3D
 Structure written by MMmdl.
162170  0  0  1  0            999 V2000
  -30.5730  -14.7400   20.4832 C   0  0  0  0  0  0
  -30.4474  -12.4622   19.4555 C   0  0  0  0  0  0
  -29.5084  -12.4992   18.2291 C   0  0  0  0  0  0
  -28.0395  -12.3007   18.6539 C   0  0  0  0  0  0
  -27.6400  -13.2141   19.8415 C   0  0  2  0  0  0
  -28.6826  -13.1413   20.9762 C   0  0  0  0  0  0
  -25.2505  -13.8162   20.5636 C   0  0  0  0  0  0
  -24.1810  -13.0438   20.9200 C   0  0  0  0  0  0
  -24.6396  -11.6904   20.8766 C   0  0  0  0  0  0
  -23.9076  -10.4292   21.0428 C   0  0  0  0  0  0
  -24.3635   -9.4192   21.9193 C   0  0  0  0  0  0
  -23.6295   -8.2236   22.0761 C   0  0  0  0  0  0
  -22.4264   -8.0296   21.3556 C   0  0  0  0  0  0
  -21.9913   -9.0270   20.4654 C   0  0  0  0  0  0
  -22.7260  -10.2138   20.3058 C   0  0  0  0  0  0
  -21.6838   -6.0755   22.5292 C   0  0  0  0  0  0
  -21.4022   -6.5652   23.8228 C   0  0  0  0  0  0
  -21.3658   -5.6795   24.9181 C   0  0  0  0  0  0
  -21.6032   -4.3057   24.7219 C   0  0  0  0  0  0
  -21.8815   -3.8163   23.4332 C   0  0  0  0  0  0
  -21.9182   -4.6987   22.3400 C   0  0  0  0  0  0
  -22.7828  -13.5220   21.1859 C   0  0  0  0  0  0
  -22.1640   -4.2180   21.0971 F   0  0  0  0  0  0
  -21.5618   -3.4530   25.7724 F   0  0  0  0  0  0
  -29.9819  -13.5033   20.3956 N   0  0  0  0  0  0
  -26.2915  -12.9340   20.3207 N   0  0  0  0  0  0
  -25.9311  -11.6501   20.5749 N   0  0  0  0  0  0
  -22.0456  -12.8245   22.0419 N   0  0  0  0  0  0
  -25.4173  -15.1895   20.4020 N   0  0  0  0  0  0
  -31.7680  -14.8892   20.2154 O   0  0  0  0  0  0
  -21.6622   -6.8898   21.4250 O   0  0  0  0  0  0
  -22.3511  -14.5525   20.6694 O   0  0  0  0  0  0
  -24.6298  -31.8595   23.2002 C   0  0  0  0  0  0
  -25.9135  -32.4772   23.8349 C   0  0  1  0  0  0
  -27.2029  -27.2565   20.1453 C   0  0  0  0  0  0
  -25.5939  -33.8574   24.2255 N   0  0  0  0  0  0
  -23.4257  -30.4839   21.5444 C   0  0  2  0  0  0
  -24.8716  -28.9320   20.1139 C   0  0  0  0  0  0
  -22.7495  -29.4637   22.4925 C   0  0  0  0  0  0
  -18.0295  -28.1384   22.8498 C   0  0  0  0  0  0
  -24.1491  -36.7270   23.2634 C   0  0  0  0  0  0
  -25.9754  -30.7689   21.3854 C   0  0  0  0  0  0
  -26.0464  -29.3923   20.7261 C   0  0  0  0  0  0
  -27.2185  -28.5674   20.7307 C   0  0  0  0  0  0
  -26.0162  -26.8792   19.4806 C   0  0  0  0  0  0
  -24.8602  -27.6810   19.4810 C   0  0  0  0  0  0
  -23.6441  -29.8211   20.1603 C   0  0  0  0  0  0
  -25.4120  -36.3074   24.0319 C   0  0  1  0  0  0
  -20.5901  -28.3700   23.1251 C   0  0  2  0  0  0
  -20.6781  -26.9417   22.5396 C   0  0  0  0  0  0
  -19.5744  -26.6384   21.5213 C   0  0  0  0  0  0
  -18.1933  -26.7923   22.1645 C   0  0  0  0  0  0
  -19.1554  -28.8860   23.2873 C   0  0  0  0  0  0
  -18.9485  -30.1455   23.8902 C   0  0  0  0  0  0
  -17.6484  -30.6596   24.0559 C   0  0  0  0  0  0
  -25.9068  -34.9445   23.5088 C   0  0  0  0  0  0
  -16.5372  -29.9098   23.6329 C   0  0  0  0  0  0
  -16.7288  -28.6498   23.0374 C   0  0  0  0  0  0
  -26.4485  -31.6603   25.0746 C   0  0  0  0  0  0
  -25.3687  -31.3811   26.1461 C   0  0  0  0  0  0
  -27.0323  -30.3000   24.6271 C   0  0  0  0  0  0
  -27.6033  -32.4351   25.7536 C   0  0  0  0  0  0
  -27.5583  -37.1788   24.8461 C   0  0  0  0  0  0
  -21.4206  -29.3050   22.3647 N   0  0  0  0  0  0
  -26.4295  -37.3772   23.9409 N   0  0  0  0  0  0
  -24.6958  -31.0551   22.0985 N   0  0  0  0  0  0
  -23.4193  -28.8178   23.3028 O   0  0  0  0  0  0
  -28.2573  -26.3161   20.1959 O   0  0  0  0  0  0
  -26.5642  -34.8927   22.4657 O   0  0  0  0  0  0
  -23.5442  -32.1444   23.7279 O   0  0  0  0  0  0
  -29.4027  -23.6136   19.1141 C   0  0  0  0  0  0
  -28.6569  -23.6028   20.3072 C   0  0  0  0  0  0
  -28.5644  -22.2909   20.9603 C   0  0  0  0  0  0
  -29.9598  -22.4237   18.6055 C   0  0  0  0  0  0
  -29.1837  -21.1115   20.3684 C   0  0  0  0  0  0
  -30.7344  -22.4348   17.3054 C   0  0  0  0  0  0
  -26.3039  -22.4113   22.2104 C   0  0  0  0  0  0
  -28.4963  -22.7248   23.4958 C   0  0  0  0  0  0
  -27.9063  -24.9496   20.7354 C   0  0  0  0  0  0
  -29.9751  -17.2647   21.1158 C   0  0  0  0  0  0
  -29.4714  -18.5341   20.2427 C   0  0  0  0  0  0
  -27.8052  -22.0777   22.2831 C   0  0  0  0  0  0
  -29.8465  -21.2158   19.2010 N   0  0  0  0  0  0
  -29.7308  -15.8156   20.6952 N   0  0  0  0  0  0
  -29.1819  -19.8127   20.9633 O   0  0  0  0  0  0
  -31.4770  -12.6337   19.1378 H   0  0  0  0  0  0
  -30.4370  -11.4808   19.9330 H   0  0  0  0  0  0
  -29.8002  -11.7367   17.5056 H   0  0  0  0  0  0
  -29.6097  -13.4593   17.7216 H   0  0  0  0  0  0
  -27.9192  -11.2546   18.9391 H   0  0  0  0  0  0
  -27.3719  -12.4568   17.8058 H   0  0  0  0  0  0
  -27.6358  -14.2303   19.4474 H   0  0  0  0  0  0
  -28.7207  -12.1429   21.4129 H   0  0  0  0  0  0
  -28.4107  -13.8136   21.7919 H   0  0  0  0  0  0
  -25.2784   -9.5644   22.4763 H   0  0  0  0  0  0
  -23.9996   -7.4613   22.7479 H   0  0  0  0  0  0
  -21.0837   -8.8812   19.8961 H   0  0  0  0  0  0
  -22.3741  -10.9689   19.6163 H   0  0  0  0  0  0
  -21.2039   -7.6165   23.9743 H   0  0  0  0  0  0
  -21.1468   -6.0522   25.9085 H   0  0  0  0  0  0
  -22.0595   -2.7634   23.2814 H   0  0  0  0  0  0
  -22.4064  -11.9929   22.4863 H   0  0  0  0  0  0
  -21.1080  -13.1311   22.2611 H   0  0  0  0  0  0
  -24.6397  -15.8318   20.5068 H   0  0  0  0  0  0
  -26.2448  -15.6339   20.0269 H   0  0  0  0  0  0
  -26.7193  -32.5423   23.1092 H   0  0  0  0  0  0
  -25.0066  -33.9727   25.0384 H   0  0  0  0  0  0
  -22.7217  -31.3066   21.4003 H   0  0  0  0  0  0
  -23.3770  -35.9586   23.3309 H   0  0  0  0  0  0
  -24.3581  -36.8887   22.2048 H   0  0  0  0  0  0
  -23.7234  -37.6467   23.6649 H   0  0  0  0  0  0
  -26.1284  -31.5315   20.6199 H   0  0  0  0  0  0
  -26.8474  -30.8078   22.0274 H   0  0  0  0  0  0
  -28.1162  -28.9101   21.2268 H   0  0  0  0  0  0
  -25.9630  -25.9271   18.9718 H   0  0  0  0  0  0
  -23.9616  -27.3233   18.9982 H   0  0  0  0  0  0
  -23.7682  -30.6007   19.4078 H   0  0  0  0  0  0
  -22.7617  -29.2567   19.8499 H   0  0  0  0  0  0
  -25.1296  -36.1921   25.0807 H   0  0  0  0  0  0
  -21.0019  -28.3295   24.1361 H   0  0  0  0  0  0
  -20.5686  -26.2321   23.3612 H   0  0  0  0  0  0
  -21.6644  -26.7431   22.1184 H   0  0  0  0  0  0
  -19.6901  -25.6293   21.1244 H   0  0  0  0  0  0
  -19.6666  -27.3192   20.6733 H   0  0  0  0  0  0
  -17.4188  -26.6669   21.4062 H   0  0  0  0  0  0
  -18.0353  -26.0063   22.9040 H   0  0  0  0  0  0
  -19.7961  -30.7258   24.2292 H   0  0  0  0  0  0
  -17.5046  -31.6285   24.5149 H   0  0  0  0  0  0
  -15.5374  -30.3008   23.7644 H   0  0  0  0  0  0
  -15.8685  -28.0807   22.7118 H   0  0  0  0  0  0
  -24.5870  -30.7135   25.7817 H   0  0  0  0  0  0
  -24.8868  -32.3007   26.4776 H   0  0  0  0  0  0
  -25.7982  -30.9082   27.0300 H   0  0  0  0  0  0
  -26.2925  -29.6799   24.1195 H   0  0  0  0  0  0
  -27.3869  -29.7220   25.4817 H   0  0  0  0  0  0
  -27.8862  -30.4258   23.9619 H   0  0  0  0  0  0
  -27.2615  -33.3655   26.2084 H   0  0  0  0  0  0
  -28.3861  -32.6915   25.0384 H   0  0  0  0  0  0
  -28.0670  -31.8500   26.5489 H   0  0  0  0  0  0
  -28.2573  -38.0111   24.7539 H   0  0  0  0  0  0
  -28.1110  -36.2642   24.6244 H   0  0  0  0  0  0
  -27.2307  -37.1381   25.8866 H   0  0  0  0  0  0
  -20.9401  -29.8782   21.6863 H   0  0  0  0  0  0
  -26.0176  -38.2840   24.1434 H   0  0  0  0  0  0
  -29.5160  -24.5407   18.5662 H   0  0  0  0  0  0
  -30.4131  -21.6153   16.6612 H   0  0  0  0  0  0
  -31.7984  -22.3088   17.5037 H   0  0  0  0  0  0
  -30.5926  -23.3712   16.7629 H   0  0  0  0  0  0
  -25.8153  -21.8780   21.3926 H   0  0  0  0  0  0
  -26.1043  -23.4733   22.0939 H   0  0  0  0  0  0
  -25.7977  -22.1079   23.1271 H   0  0  0  0  0  0
  -29.5481  -22.4415   23.5515 H   0  0  0  0  0  0
  -28.0293  -22.3874   24.4224 H   0  0  0  0  0  0
  -28.4407  -23.8107   23.4983 H   0  0  0  0  0  0
  -27.9517  -25.0459   21.8172 H   0  0  0  0  0  0
  -26.8644  -24.7341   20.5106 H   0  0  0  0  0  0
  -31.0291  -17.3939   21.3627 H   0  0  0  0  0  0
  -29.4569  -17.3349   22.0731 H   0  0  0  0  0  0
  -28.5439  -18.2665   19.7353 H   0  0  0  0  0  0
  -30.2019  -18.6999   19.4520 H   0  0  0  0  0  0
  -27.8308  -21.0091   22.4962 H   0  0  0  0  0  0
  -28.7657  -15.5317   20.7695 H   0  0  0  0  0  0
  1 25  1  0  0  0
  1 30  2  0  0  0
  1 84  1  0  0  0
  2  3  1  0  0  0
  2 25  1  0  0  0
  2 86  1  0  0  0
  2 87  1  0  0  0
  3  4  1  0  0  0
  3 88  1  0  0  0
  3 89  1  0  0  0
  4  5  1  0  0  0
  4 90  1  0  0  0
  4 91  1  0  0  0
  5  6  1  0  0  0
  5 26  1  0  0  0
  5 92  1  0  0  0
  6 25  1  0  0  0
  6 93  1  0  0  0
  6 94  1  0  0  0
  7  8  2  0  0  0
  7 26  1  0  0  0
  7 29  1  0  0  0
  8  9  1  0  0  0
  8 22  1  0  0  0
  9 10  1  0  0  0
  9 27  2  0  0  0
 10 11  2  0  0  0
 10 15  1  0  0  0
 11 12  1  0  0  0
 11 95  1  0  0  0
 12 13  2  0  0  0
 12 96  1  0  0  0
 13 14  1  0  0  0
 13 31  1  0  0  0
 14 15  2  0  0  0
 14 97  1  0  0  0
 15 98  1  0  0  0
 16 17  2  0  0  0
 16 21  1  0  0  0
 16 31  1  0  0  0
 17 18  1  0  0  0
 17 99  1  0  0  0
 18 19  2  0  0  0
 18100  1  0  0  0
 19 20  1  0  0  0
 19 24  1  0  0  0
 20 21  2  0  0  0
 20101  1  0  0  0
 21 23  1  0  0  0
 22 28  1  0  0  0
 22 32  2  0  0  0
 26 27  1  0  0  0
 28102  1  0  0  0
 28103  1  0  0  0
 29104  1  0  0  0
 29105  1  0  0  0
 33 34  1  0  0  0
 33 66  1  0  0  0
 33 70  2  0  0  0
 34 36  1  0  0  0
 34 59  1  0  0  0
 34106  1  0  0  0
 35 44  2  0  0  0
 35 45  1  0  0  0
 35 68  1  0  0  0
 36 56  1  0  0  0
 36107  1  0  0  0
 37 39  1  0  0  0
 37 47  1  0  0  0
 37 66  1  0  0  0
 37108  1  0  0  0
 38 43  2  0  0  0
 38 46  1  0  0  0
 38 47  1  0  0  0
 39 64  1  0  0  0
 39 67  2  0  0  0
 40 52  1  0  0  0
 40 53  2  0  0  0
 40 58  1  0  0  0
 41109  1  0  0  0
 41110  1  0  0  0
 41111  1  0  0  0
 41 48  1  0  0  0
 42 43  1  0  0  0
 42 66  1  0  0  0
 42112  1  0  0  0
 42113  1  0  0  0
 43 44  1  0  0  0
 44114  1  0  0  0
 45 46  2  0  0  0
 45115  1  0  0  0
 46116  1  0  0  0
 47117  1  0  0  0
 47118  1  0  0  0
 48 56  1  0  0  0
 48 65  1  0  0  0
 48119  1  0  0  0
 49 50  1  0  0  0
 49 53  1  0  0  0
 49 64  1  0  0  0
 49120  1  0  0  0
 50 51  1  0  0  0
 50121  1  0  0  0
 50122  1  0  0  0
 51 52  1  0  0  0
 51123  1  0  0  0
 51124  1  0  0  0
 52125  1  0  0  0
 52126  1  0  0  0
 53 54  1  0  0  0
 54 55  2  0  0  0
 54127  1  0  0  0
 55 57  1  0  0  0
 55128  1  0  0  0
 56 69  2  0  0  0
 57 58  2  0  0  0
 57129  1  0  0  0
 58130  1  0  0  0
 59 60  1  0  0  0
 59 61  1  0  0  0
 59 62  1  0  0  0
 60131  1  0  0  0
 60132  1  0  0  0
 60133  1  0  0  0
 61134  1  0  0  0
 61135  1  0  0  0
 61136  1  0  0  0
 62137  1  0  0  0
 62138  1  0  0  0
 62139  1  0  0  0
 63 65  1  0  0  0
 63140  1  0  0  0
 63141  1  0  0  0
 63142  1  0  0  0
 64143  1  0  0  0
 65144  1  0  0  0
 68 79  1  0  0  0
 71 72  2  0  0  0
 71 74  1  0  0  0
 71145  1  0  0  0
 72 73  1  0  0  0
 72 79  1  0  0  0
 73 75  2  0  0  0
 73 82  1  0  0  0
 74 76  1  0  0  0
 74 83  2  0  0  0
 75 83  1  0  0  0
 75 85  1  0  0  0
 76146  1  0  0  0
 76147  1  0  0  0
 76148  1  0  0  0
 77149  1  0  0  0
 77150  1  0  0  0
 77151  1  0  0  0
 77 82  1  0  0  0
 78 82  1  0  0  0
 78152  1  0  0  0
 78153  1  0  0  0
 78154  1  0  0  0
 79155  1  0  0  0
 79156  1  0  0  0
 80 81  1  0  0  0
 80 84  1  0  0  0
 80157  1  0  0  0
 80158  1  0  0  0
 81 85  1  0  0  0
 81159  1  0  0  0
 81160  1  0  0  0
 82161  1  0  0  0
 84162  1  0  0  0
M  ISO  4   1 100  68 101  79 101  84 100
M  END
> <chiral flag>
0

> <version>
0

> <s_m_source_file>
/data/baiqing/PycharmProjects/Reinvent-master-3.2/result/LINK_invent/BTK/process_docking_weight1_custom_sum_contain_oxygen_bond_distance_aromatic_linkinvent_7_9_3/rearranged_h_0142.sdf

> <i_m_source_file_index>
46

> <r_mmod_Potential_Energy-OPLS-2005>
-31.4861812591553

> <r_mmod_Stretch_Energy-OPLS-2005>
124.30445098877

> <r_mmod_Bend_Energy-OPLS-2005>
177.108459472656

> <r_mmod_Torsional_Energy-OPLS-2005>
228.984176635742

> <r_mmod_Improper_Torsional_Energy-OPLS-2005>
5.06118297576904

> <r_mmod_Van_der_Waal_Energy-OPLS-2005>
146.624359130859

> <r_mmod_Electrostatic_Energy-OPLS-2005>
-592.932006835938

> <r_mmod_Solvation_Energy-OPLS-2005>
-214.942138671875

> <b_mmod_Minimization_Converged-OPLS-2005>
0

> <r_mmod_RMS_Derivative-OPLS-2005>
3.33663177490234

$$$$
47
                    3D
 Structure written by MMmdl.
155164  0  0  1  0            999 V2000
  -30.5206  -14.8845   20.4335 C   0  0  0  0  0  0
  -30.4496  -12.5451   19.4839 C   0  0  0  0  0  0
  -29.5183  -12.5329   18.2483 C   0  0  0  0  0  0
  -28.0506  -12.3224   18.6674 C   0  0  0  0  0  0
  -27.6396  -13.2335   19.8526 C   0  0  2  0  0  0
  -28.6837  -13.1969   20.9897 C   0  0  0  0  0  0
  -25.2497  -13.8192   20.5684 C   0  0  0  0  0  0
  -24.1793  -13.0431   20.9203 C   0  0  0  0  0  0
  -24.6395  -11.6912   20.8762 C   0  0  0  0  0  0
  -23.9068  -10.4290   21.0422 C   0  0  0  0  0  0
  -24.3613   -9.4202   21.9199 C   0  0  0  0  0  0
  -23.6293   -8.2235   22.0767 C   0  0  0  0  0  0
  -22.4280   -8.0278   21.3548 C   0  0  0  0  0  0
  -21.9914   -9.0246   20.4641 C   0  0  0  0  0  0
  -22.7245  -10.2127   20.3064 C   0  0  0  0  0  0
  -21.6852   -6.0728   22.5283 C   0  0  0  0  0  0
  -21.4005   -6.5635   23.8214 C   0  0  0  0  0  0
  -21.3661   -5.6795   24.9180 C   0  0  0  0  0  0
  -21.6050   -4.3058   24.7230 C   0  0  0  0  0  0
  -21.8818   -3.8142   23.4356 C   0  0  0  0  0  0
  -21.9191   -4.6955   22.3407 C   0  0  0  0  0  0
  -22.7818  -13.5213   21.1872 C   0  0  0  0  0  0
  -22.1663   -4.2148   21.0983 F   0  0  0  0  0  0
  -21.5631   -3.4540   25.7738 F   0  0  0  0  0  0
  -29.9702  -13.6086   20.4083 N   0  0  0  0  0  0
  -26.2930  -12.9394   20.3290 N   0  0  0  0  0  0
  -25.9329  -11.6538   20.5767 N   0  0  0  0  0  0
  -22.0463  -12.8196   22.0421 N   0  0  0  0  0  0
  -25.4172  -15.1913   20.4047 N   0  0  0  0  0  0
  -31.6970  -15.0218   20.0809 O   0  0  0  0  0  0
  -21.6640   -6.8879   21.4252 O   0  0  0  0  0  0
  -22.3500  -14.5519   20.6722 O   0  0  0  0  0  0
  -24.6400  -31.8466   23.1872 C   0  0  0  0  0  0
  -25.9189  -32.4700   23.8252 C   0  0  1  0  0  0
  -27.2254  -27.1724   20.1381 C   0  0  0  0  0  0
  -25.5956  -33.8506   24.2191 N   0  0  0  0  0  0
  -23.4400  -30.4638   21.5339 C   0  0  2  0  0  0
  -24.8890  -28.8908   20.1061 C   0  0  0  0  0  0
  -22.7536  -29.4560   22.4886 C   0  0  0  0  0  0
  -18.0302  -28.1389   22.8482 C   0  0  0  0  0  0
  -24.1493  -36.7260   23.2638 C   0  0  0  0  0  0
  -25.9908  -30.7322   21.3755 C   0  0  0  0  0  0
  -26.0627  -29.3446   20.7201 C   0  0  0  0  0  0
  -27.2279  -28.4992   20.7199 C   0  0  0  0  0  0
  -26.0240  -26.8020   19.4968 C   0  0  0  0  0  0
  -24.8803  -27.6329   19.4810 C   0  0  0  0  0  0
  -23.6608  -29.7858   20.1538 C   0  0  0  0  0  0
  -25.4124  -36.3039   24.0314 C   0  0  1  0  0  0
  -20.5905  -28.3720   23.1259 C   0  0  2  0  0  0
  -20.6786  -26.9428   22.5419 C   0  0  0  0  0  0
  -19.5770  -26.6386   21.5218 C   0  0  0  0  0  0
  -18.1948  -26.7934   22.1619 C   0  0  0  0  0  0
  -19.1553  -28.8873   23.2857 C   0  0  0  0  0  0
  -18.9464  -30.1467   23.8884 C   0  0  0  0  0  0
  -17.6460  -30.6588   24.0566 C   0  0  0  0  0  0
  -25.9074  -34.9414   23.5063 C   0  0  0  0  0  0
  -16.5353  -29.9083   23.6331 C   0  0  0  0  0  0
  -16.7284  -28.6499   23.0358 C   0  0  0  0  0  0
  -26.4520  -31.6537   25.0671 C   0  0  0  0  0  0
  -25.3705  -31.3697   26.1361 C   0  0  0  0  0  0
  -27.0373  -30.2941   24.6193 C   0  0  0  0  0  0
  -27.6053  -32.4282   25.7466 C   0  0  0  0  0  0
  -27.5579  -37.1784   24.8469 C   0  0  0  0  0  0
  -21.4235  -29.3051   22.3637 N   0  0  0  0  0  0
  -26.4294  -37.3750   23.9405 N   0  0  0  0  0  0
  -24.7104  -31.0343   22.0883 N   0  0  0  0  0  0
  -23.4198  -28.8119   23.3032 O   0  0  0  0  0  0
  -28.3162  -26.2491   20.2470 O   0  0  0  0  0  0
  -26.5664  -34.8917   22.4642 O   0  0  0  0  0  0
  -23.5529  -32.1344   23.7115 O   0  0  0  0  0  0
  -29.1068  -19.7880   21.5980 C   0  0  0  0  0  0
  -29.2753  -18.3479   21.6781 C   0  0  0  0  0  0
  -29.8622  -18.2397   19.3702 C   0  0  0  0  0  0
  -29.2889  -20.4946   20.3745 C   0  0  0  0  0  0
  -29.6826  -17.4928   20.5892 C   0  0  0  0  0  0
  -29.6520  -19.6765   19.2903 C   0  0  0  0  0  0
  -29.3219  -21.7983   18.4271 C   0  0  0  0  0  0
  -29.3387  -22.0446   19.9578 C   0  0  1  0  0  0
  -26.9879  -22.9016   20.7734 C   0  0  0  0  0  0
  -28.4106  -24.8196   19.6742 C   0  0  0  0  0  0
  -28.4275  -23.3503   20.4810 C   0  0  2  0  0  0
  -29.6803  -15.9753   20.7400 N   0  0  0  0  0  0
  -29.7944  -20.4470   18.1619 O   0  0  0  0  0  0
  -31.4806  -12.7151   19.1688 H   0  0  0  0  0  0
  -30.4454  -11.5736   19.9815 H   0  0  0  0  0  0
  -29.8215  -11.7534   17.5471 H   0  0  0  0  0  0
  -29.6103  -13.4797   17.7146 H   0  0  0  0  0  0
  -27.9384  -11.2759   18.9534 H   0  0  0  0  0  0
  -27.3857  -12.4790   17.8173 H   0  0  0  0  0  0
  -27.6222  -14.2484   19.4558 H   0  0  0  0  0  0
  -28.7540  -12.1972   21.4207 H   0  0  0  0  0  0
  -28.3924  -13.8575   21.8075 H   0  0  0  0  0  0
  -25.2759   -9.5677   22.4764 H   0  0  0  0  0  0
  -23.9999   -7.4628   22.7487 H   0  0  0  0  0  0
  -21.0851   -8.8765   19.8929 H   0  0  0  0  0  0
  -22.3720  -10.9662   19.6158 H   0  0  0  0  0  0
  -21.1999   -7.6144   23.9712 H   0  0  0  0  0  0
  -21.1486   -6.0528   25.9080 H   0  0  0  0  0  0
  -22.0599   -2.7607   23.2856 H   0  0  0  0  0  0
  -22.4085  -11.9856   22.4795 H   0  0  0  0  0  0
  -21.1081  -13.1219   22.2621 H   0  0  0  0  0  0
  -24.6392  -15.8376   20.4832 H   0  0  0  0  0  0
  -26.2540  -15.6270   20.0384 H   0  0  0  0  0  0
  -26.7245  -32.5314   23.0972 H   0  0  0  0  0  0
  -25.0071  -33.9613   25.0319 H   0  0  0  0  0  0
  -22.7419  -31.2887   21.3800 H   0  0  0  0  0  0
  -23.3763  -35.9584   23.3292 H   0  0  0  0  0  0
  -24.3581  -36.8910   22.2055 H   0  0  0  0  0  0
  -23.7238  -37.6449   23.6685 H   0  0  0  0  0  0
  -26.1334  -31.4845   20.5981 H   0  0  0  0  0  0
  -26.8669  -30.7902   22.0092 H   0  0  0  0  0  0
  -28.1236  -28.8431   21.2177 H   0  0  0  0  0  0
  -25.9279  -25.8296   19.0395 H   0  0  0  0  0  0
  -23.9790  -27.2785   19.0001 H   0  0  0  0  0  0
  -23.7863  -30.5577   19.3944 H   0  0  0  0  0  0
  -22.7774  -29.2205   19.8503 H   0  0  0  0  0  0
  -25.1303  -36.1878   25.0806 H   0  0  0  0  0  0
  -20.9980  -28.3318   24.1387 H   0  0  0  0  0  0
  -20.5694  -26.2328   23.3628 H   0  0  0  0  0  0
  -21.6655  -26.7456   22.1209 H   0  0  0  0  0  0
  -19.6940  -25.6295   21.1257 H   0  0  0  0  0  0
  -19.6708  -27.3188   20.6737 H   0  0  0  0  0  0
  -17.4213  -26.6685   21.4017 H   0  0  0  0  0  0
  -18.0339  -26.0078   22.9009 H   0  0  0  0  0  0
  -19.7939  -30.7288   24.2252 H   0  0  0  0  0  0
  -17.5015  -31.6268   24.5172 H   0  0  0  0  0  0
  -15.5352  -30.2978   23.7672 H   0  0  0  0  0  0
  -15.8683  -28.0814   22.7080 H   0  0  0  0  0  0
  -24.5927  -30.7001   25.7672 H   0  0  0  0  0  0
  -24.8831  -32.2854   26.4704 H   0  0  0  0  0  0
  -25.7995  -30.8931   27.0179 H   0  0  0  0  0  0
  -26.2959  -29.6664   24.1228 H   0  0  0  0  0  0
  -27.4051  -29.7232   25.4726 H   0  0  0  0  0  0
  -27.8843  -30.4198   23.9447 H   0  0  0  0  0  0
  -27.2664  -33.3612   26.1976 H   0  0  0  0  0  0
  -28.3906  -32.6777   25.0320 H   0  0  0  0  0  0
  -28.0664  -31.8431   26.5435 H   0  0  0  0  0  0
  -28.2580  -38.0096   24.7523 H   0  0  0  0  0  0
  -28.1095  -36.2621   24.6292 H   0  0  0  0  0  0
  -27.2296  -37.1424   25.8874 H   0  0  0  0  0  0
  -20.9448  -29.8752   21.6806 H   0  0  0  0  0  0
  -26.0170  -38.2823   24.1407 H   0  0  0  0  0  0
  -28.8434  -20.3394   22.4895 H   0  0  0  0  0  0
  -29.0838  -17.8856   22.6363 H   0  0  0  0  0  0
  -30.1258  -17.7071   18.4673 H   0  0  0  0  0  0
  -29.9159  -22.5400   17.8922 H   0  0  0  0  0  0
  -28.3016  -21.8678   18.0498 H   0  0  0  0  0  0
  -30.3646  -22.3258   20.2002 H   0  0  0  0  0  0
  -26.9681  -22.0244   21.4207 H   0  0  0  0  0  0
  -26.4611  -22.6489   19.8532 H   0  0  0  0  0  0
  -26.4246  -23.6891   21.2771 H   0  0  0  0  0  0
  -27.7354  -24.7260   18.8254 H   0  0  0  0  0  0
  -29.3869  -24.8561   19.1906 H   0  0  0  0  0  0
  -28.8518  -23.5807   21.4579 H   0  0  0  0  0  0
  -28.8262  -15.6357   21.1580 H   0  0  0  0  0  0
  1 25  1  0  0  0
  1 30  2  0  0  0
  1 82  1  0  0  0
  2  3  1  0  0  0
  2 25  1  0  0  0
  2 84  1  0  0  0
  2 85  1  0  0  0
  3  4  1  0  0  0
  3 86  1  0  0  0
  3 87  1  0  0  0
  4  5  1  0  0  0
  4 88  1  0  0  0
  4 89  1  0  0  0
  5  6  1  0  0  0
  5 26  1  0  0  0
  5 90  1  0  0  0
  6 25  1  0  0  0
  6 91  1  0  0  0
  6 92  1  0  0  0
  7  8  2  0  0  0
  7 26  1  0  0  0
  7 29  1  0  0  0
  8  9  1  0  0  0
  8 22  1  0  0  0
  9 10  1  0  0  0
  9 27  2  0  0  0
 10 11  2  0  0  0
 10 15  1  0  0  0
 11 12  1  0  0  0
 11 93  1  0  0  0
 12 13  2  0  0  0
 12 94  1  0  0  0
 13 14  1  0  0  0
 13 31  1  0  0  0
 14 15  2  0  0  0
 14 95  1  0  0  0
 15 96  1  0  0  0
 16 17  2  0  0  0
 16 21  1  0  0  0
 16 31  1  0  0  0
 17 18  1  0  0  0
 17 97  1  0  0  0
 18 19  2  0  0  0
 18 98  1  0  0  0
 19 20  1  0  0  0
 19 24  1  0  0  0
 20 21  2  0  0  0
 20 99  1  0  0  0
 21 23  1  0  0  0
 22 28  1  0  0  0
 22 32  2  0  0  0
 26 27  1  0  0  0
 28100  1  0  0  0
 28101  1  0  0  0
 29102  1  0  0  0
 29103  1  0  0  0
 33 34  1  0  0  0
 33 66  1  0  0  0
 33 70  2  0  0  0
 34 36  1  0  0  0
 34 59  1  0  0  0
 34104  1  0  0  0
 35 44  2  0  0  0
 35 45  1  0  0  0
 35 68  1  0  0  0
 36 56  1  0  0  0
 36105  1  0  0  0
 37 39  1  0  0  0
 37 47  1  0  0  0
 37 66  1  0  0  0
 37106  1  0  0  0
 38 43  2  0  0  0
 38 46  1  0  0  0
 38 47  1  0  0  0
 39 64  1  0  0  0
 39 67  2  0  0  0
 40 52  1  0  0  0
 40 53  2  0  0  0
 40 58  1  0  0  0
 41107  1  0  0  0
 41108  1  0  0  0
 41109  1  0  0  0
 41 48  1  0  0  0
 42 43  1  0  0  0
 42 66  1  0  0  0
 42110  1  0  0  0
 42111  1  0  0  0
 43 44  1  0  0  0
 44112  1  0  0  0
 45 46  2  0  0  0
 45113  1  0  0  0
 46114  1  0  0  0
 47115  1  0  0  0
 47116  1  0  0  0
 48 56  1  0  0  0
 48 65  1  0  0  0
 48117  1  0  0  0
 49 50  1  0  0  0
 49 53  1  0  0  0
 49 64  1  0  0  0
 49118  1  0  0  0
 50 51  1  0  0  0
 50119  1  0  0  0
 50120  1  0  0  0
 51 52  1  0  0  0
 51121  1  0  0  0
 51122  1  0  0  0
 52123  1  0  0  0
 52124  1  0  0  0
 53 54  1  0  0  0
 54 55  2  0  0  0
 54125  1  0  0  0
 55 57  1  0  0  0
 55126  1  0  0  0
 56 69  2  0  0  0
 57 58  2  0  0  0
 57127  1  0  0  0
 58128  1  0  0  0
 59 60  1  0  0  0
 59 61  1  0  0  0
 59 62  1  0  0  0
 60129  1  0  0  0
 60130  1  0  0  0
 60131  1  0  0  0
 61132  1  0  0  0
 61133  1  0  0  0
 61134  1  0  0  0
 62135  1  0  0  0
 62136  1  0  0  0
 62137  1  0  0  0
 63 65  1  0  0  0
 63138  1  0  0  0
 63139  1  0  0  0
 63140  1  0  0  0
 64141  1  0  0  0
 65142  1  0  0  0
 68 80  1  0  0  0
 71 72  2  0  0  0
 71 74  1  0  0  0
 71143  1  0  0  0
 72 75  1  0  0  0
 72144  1  0  0  0
 73 75  2  0  0  0
 73 76  1  0  0  0
 73145  1  0  0  0
 74 76  2  0  0  0
 74 78  1  0  0  0
 75 82  1  0  0  0
 76 83  1  0  0  0
 77 83  1  0  0  0
 77146  1  0  0  0
 77147  1  0  0  0
 77 78  1  0  0  0
 78 81  1  0  0  0
 78148  1  0  0  0
 79149  1  0  0  0
 79150  1  0  0  0
 79151  1  0  0  0
 79 81  1  0  0  0
 80 81  1  0  0  0
 80152  1  0  0  0
 80153  1  0  0  0
 81154  1  0  0  0
 82155  1  0  0  0
M  ISO  4   1 100  68 101  80 101  82 100
M  END
> <chiral flag>
0

> <version>
0

> <s_m_source_file>
/data/baiqing/PycharmProjects/Reinvent-master-3.2/result/LINK_invent/BTK/process_docking_weight1_custom_sum_contain_oxygen_bond_distance_aromatic_linkinvent_7_9_3/rearranged_h_0142.sdf

> <i_m_source_file_index>
47

> <r_mmod_Potential_Energy-OPLS-2005>
466.304321289062

> <r_mmod_Stretch_Energy-OPLS-2005>
196.436508178711

> <r_mmod_Bend_Energy-OPLS-2005>
316.074890136719

> <r_mmod_Torsional_Energy-OPLS-2005>
242.123062133789

> <r_mmod_Improper_Torsional_Energy-OPLS-2005>
5.0107889175415

> <r_mmod_Van_der_Waal_Energy-OPLS-2005>
120.735847473145

> <r_mmod_Electrostatic_Energy-OPLS-2005>
-349.710632324219

> <r_mmod_Solvation_Energy-OPLS-2005>
-217.433715820312

> <b_mmod_Minimization_Converged-OPLS-2005>
0

> <r_mmod_RMS_Derivative-OPLS-2005>
1.66327047348022

$$$$
48
                    3D
 Structure written by MMmdl.
164174  0  0  1  0            999 V2000
  -30.6415  -14.8849   20.4231 C   0  0  0  0  0  0
  -30.4188  -12.5594   19.4779 C   0  0  0  0  0  0
  -29.5043  -12.4988   18.2377 C   0  0  0  0  0  0
  -28.0427  -12.2836   18.6711 C   0  0  0  0  0  0
  -27.6221  -13.2323   19.8235 C   0  0  2  0  0  0
  -28.6724  -13.2880   20.9561 C   0  0  0  0  0  0
  -25.2438  -13.8172   20.5667 C   0  0  0  0  0  0
  -24.1752  -13.0418   20.9231 C   0  0  0  0  0  0
  -24.6356  -11.6908   20.8784 C   0  0  0  0  0  0
  -23.9039  -10.4291   21.0438 C   0  0  0  0  0  0
  -24.3601   -9.4207   21.9206 C   0  0  0  0  0  0
  -23.6276   -8.2234   22.0758 C   0  0  0  0  0  0
  -22.4258   -8.0274   21.3544 C   0  0  0  0  0  0
  -21.9895   -9.0243   20.4645 C   0  0  0  0  0  0
  -22.7219  -10.2130   20.3076 C   0  0  0  0  0  0
  -21.6848   -6.0736   22.5279 C   0  0  0  0  0  0
  -21.4020   -6.5641   23.8214 C   0  0  0  0  0  0
  -21.3657   -5.6793   24.9167 C   0  0  0  0  0  0
  -21.6042   -4.3055   24.7222 C   0  0  0  0  0  0
  -21.8810   -3.8144   23.4339 C   0  0  0  0  0  0
  -21.9192   -4.6963   22.3399 C   0  0  0  0  0  0
  -22.7787  -13.5225   21.1876 C   0  0  0  0  0  0
  -22.1653   -4.2147   21.0976 F   0  0  0  0  0  0
  -21.5619   -3.4542   25.7731 F   0  0  0  0  0  0
  -29.9406  -13.6854   20.3307 N   0  0  0  0  0  0
  -26.2845  -12.9380   20.3208 N   0  0  0  0  0  0
  -25.9285  -11.6535   20.5785 N   0  0  0  0  0  0
  -22.0414  -12.8239   22.0438 N   0  0  0  0  0  0
  -25.4048  -15.1880   20.3991 N   0  0  0  0  0  0
  -31.8578  -14.8131   20.2164 O   0  0  0  0  0  0
  -21.6625   -6.8872   21.4235 O   0  0  0  0  0  0
  -22.3489  -14.5538   20.6726 O   0  0  0  0  0  0
  -24.6351  -31.8526   23.1930 C   0  0  0  0  0  0
  -25.9163  -32.4724   23.8303 C   0  0  1  0  0  0
  -27.2111  -27.1825   20.1421 C   0  0  0  0  0  0
  -25.5954  -33.8524   24.2214 N   0  0  0  0  0  0
  -23.4359  -30.4716   21.5390 C   0  0  2  0  0  0
  -24.8824  -28.9077   20.1069 C   0  0  0  0  0  0
  -22.7521  -29.4586   22.4896 C   0  0  0  0  0  0
  -18.0283  -28.1386   22.8473 C   0  0  0  0  0  0
  -24.1491  -36.7251   23.2642 C   0  0  0  0  0  0
  -25.9870  -30.7376   21.3850 C   0  0  0  0  0  0
  -26.0562  -29.3540   20.7245 C   0  0  0  0  0  0
  -27.2181  -28.5053   20.7293 C   0  0  0  0  0  0
  -26.0092  -26.8197   19.4956 C   0  0  0  0  0  0
  -24.8697  -27.6519   19.4819 C   0  0  0  0  0  0
  -23.6571  -29.8057   20.1542 C   0  0  0  0  0  0
  -25.4132  -36.3046   24.0312 C   0  0  1  0  0  0
  -20.5883  -28.3721   23.1250 C   0  0  2  0  0  0
  -20.6803  -26.9440   22.5411 C   0  0  0  0  0  0
  -19.5768  -26.6367   21.5247 C   0  0  0  0  0  0
  -18.1944  -26.7918   22.1636 C   0  0  0  0  0  0
  -19.1535  -28.8868   23.2852 C   0  0  0  0  0  0
  -18.9456  -30.1463   23.8875 C   0  0  0  0  0  0
  -17.6467  -30.6595   24.0549 C   0  0  0  0  0  0
  -25.9080  -34.9417   23.5085 C   0  0  0  0  0  0
  -16.5352  -29.9098   23.6328 C   0  0  0  0  0  0
  -16.7271  -28.6499   23.0346 C   0  0  0  0  0  0
  -26.4521  -31.6563   25.0715 C   0  0  0  0  0  0
  -25.3732  -31.3744   26.1431 C   0  0  0  0  0  0
  -27.0380  -30.2970   24.6248 C   0  0  0  0  0  0
  -27.6062  -32.4325   25.7493 C   0  0  0  0  0  0
  -27.5572  -37.1794   24.8468 C   0  0  0  0  0  0
  -21.4211  -29.3079   22.3647 N   0  0  0  0  0  0
  -26.4283  -37.3757   23.9410 N   0  0  0  0  0  0
  -24.7056  -31.0421   22.0945 N   0  0  0  0  0  0
  -23.4196  -28.8147   23.3026 O   0  0  0  0  0  0
  -28.2951  -26.2522   20.2468 O   0  0  0  0  0  0
  -26.5644  -34.8906   22.4652 O   0  0  0  0  0  0
  -23.5494  -32.1383   23.7198 O   0  0  0  0  0  0
  -27.4999  -22.4025   22.6068 C   0  0  0  0  0  0
  -27.6957  -23.5408   21.8079 C   0  0  0  0  0  0
  -28.7807  -22.0950   20.1750 C   0  0  0  0  0  0
  -27.8924  -21.0958   22.2194 C   0  0  0  0  0  0
  -28.6046  -20.8703   20.9931 C   0  0  0  0  0  0
  -28.3108  -23.4542   20.5517 C   0  0  0  0  0  0
  -26.4852  -20.0526   24.2700 C   0  0  0  0  0  0
  -26.1763  -19.2781   23.0227 C   0  0  0  0  0  0
  -28.1863  -18.1144   20.5341 C   0  0  0  0  0  0
  -30.3357  -18.8722   19.8748 C   0  0  0  0  0  0
  -28.7121  -16.6448   20.9090 C   0  0  0  0  0  0
  -30.9370  -17.4212   20.2455 C   0  0  0  0  0  0
  -27.5228  -19.9608   23.1616 C   0  0  0  0  0  0
  -29.1629  -19.3245   20.7869 C   0  0  0  0  0  0
  -28.3493  -24.8226   19.6717 C   0  0  0  0  0  0
  -30.0541  -16.1936   20.4218 N   0  0  0  0  0  0
  -31.4544  -12.6798   19.1580 H   0  0  0  0  0  0
  -30.3860  -11.6198   20.0311 H   0  0  0  0  0  0
  -29.8204  -11.6958   17.5704 H   0  0  0  0  0  0
  -29.5933  -13.4224   17.6638 H   0  0  0  0  0  0
  -27.9457  -11.2494   19.0030 H   0  0  0  0  0  0
  -27.3706  -12.3926   17.8180 H   0  0  0  0  0  0
  -27.5721  -14.2133   19.3577 H   0  0  0  0  0  0
  -28.7631  -12.3214   21.4527 H   0  0  0  0  0  0
  -28.3829  -14.0008   21.7280 H   0  0  0  0  0  0
  -25.2741   -9.5688   22.4796 H   0  0  0  0  0  0
  -23.9978   -7.4636   22.7490 H   0  0  0  0  0  0
  -21.0816   -8.8771   19.8962 H   0  0  0  0  0  0
  -22.3672  -10.9672   19.6199 H   0  0  0  0  0  0
  -21.2032   -7.6156   23.9718 H   0  0  0  0  0  0
  -21.1477   -6.0522   25.9073 H   0  0  0  0  0  0
  -22.0598   -2.7603   23.2841 H   0  0  0  0  0  0
  -22.3997  -11.9902   22.4842 H   0  0  0  0  0  0
  -21.1048  -13.1317   22.2636 H   0  0  0  0  0  0
  -24.6298  -15.8363   20.4954 H   0  0  0  0  0  0
  -26.2396  -15.6226   20.0301 H   0  0  0  0  0  0
  -26.7220  -32.5329   23.1023 H   0  0  0  0  0  0
  -25.0124  -33.9657   25.0379 H   0  0  0  0  0  0
  -22.7346  -31.2975   21.3919 H   0  0  0  0  0  0
  -23.3762  -35.9573   23.3312 H   0  0  0  0  0  0
  -24.3587  -36.8870   22.2059 H   0  0  0  0  0  0
  -23.7223  -37.6440   23.6674 H   0  0  0  0  0  0
  -26.1363  -31.4969   20.6171 H   0  0  0  0  0  0
  -26.8595  -30.7877   22.0239 H   0  0  0  0  0  0
  -28.1114  -28.8452   21.2358 H   0  0  0  0  0  0
  -25.8996  -25.8559   19.0267 H   0  0  0  0  0  0
  -23.9676  -27.3040   18.9988 H   0  0  0  0  0  0
  -23.7886  -30.5867   19.4046 H   0  0  0  0  0  0
  -22.7710  -29.2500   19.8403 H   0  0  0  0  0  0
  -25.1317  -36.1907   25.0794 H   0  0  0  0  0  0
  -20.9953  -28.3330   24.1380 H   0  0  0  0  0  0
  -20.5747  -26.2348   23.3634 H   0  0  0  0  0  0
  -21.6667  -26.7528   22.1170 H   0  0  0  0  0  0
  -19.6920  -25.6267   21.1325 H   0  0  0  0  0  0
  -19.6686  -27.3134   20.6750 H   0  0  0  0  0  0
  -17.4223  -26.6634   21.4033 H   0  0  0  0  0  0
  -18.0336  -26.0098   22.9056 H   0  0  0  0  0  0
  -19.7927  -30.7271   24.2261 H   0  0  0  0  0  0
  -17.5021  -31.6264   24.5161 H   0  0  0  0  0  0
  -15.5340  -30.2985   23.7674 H   0  0  0  0  0  0
  -15.8671  -28.0811   22.7082 H   0  0  0  0  0  0
  -24.5927  -30.7053   25.7775 H   0  0  0  0  0  0
  -24.8895  -32.2923   26.4789 H   0  0  0  0  0  0
  -25.8045  -30.8983   27.0248 H   0  0  0  0  0  0
  -26.2978  -29.6720   24.1230 H   0  0  0  0  0  0
  -27.3996  -29.7235   25.4793 H   0  0  0  0  0  0
  -27.8890  -30.4224   23.9547 H   0  0  0  0  0  0
  -27.2657  -33.3656   26.2002 H   0  0  0  0  0  0
  -28.3908  -32.6834   25.0337 H   0  0  0  0  0  0
  -28.0692  -31.8489   26.5464 H   0  0  0  0  0  0
  -28.2600  -38.0079   24.7511 H   0  0  0  0  0  0
  -28.1050  -36.2611   24.6312 H   0  0  0  0  0  0
  -27.2284  -37.1461   25.8864 H   0  0  0  0  0  0
  -20.9454  -29.8775   21.6782 H   0  0  0  0  0  0
  -26.0160  -38.2823   24.1421 H   0  0  0  0  0  0
  -27.0135  -22.5588   23.5586 H   0  0  0  0  0  0
  -27.3384  -24.4970   22.1627 H   0  0  0  0  0  0
  -29.2869  -21.9964   19.2250 H   0  0  0  0  0  0
  -26.6418  -19.4528   25.1649 H   0  0  0  0  0  0
  -25.9027  -20.9560   24.4206 H   0  0  0  0  0  0
  -25.4592  -19.7096   22.3256 H   0  0  0  0  0  0
  -26.1560  -18.1931   23.0955 H   0  0  0  0  0  0
  -27.2559  -18.2576   21.0634 H   0  0  0  0  0  0
  -27.8732  -18.1229   19.4894 H   0  0  0  0  0  0
  -31.1402  -19.6014   19.9453 H   0  0  0  0  0  0
  -30.0197  -18.8877   18.8295 H   0  0  0  0  0  0
  -27.9673  -15.9487   20.5495 H   0  0  0  0  0  0
  -28.7089  -16.5444   21.9956 H   0  0  0  0  0  0
  -31.7136  -17.1997   19.5116 H   0  0  0  0  0  0
  -31.4709  -17.5330   21.1910 H   0  0  0  0  0  0
  -28.3822  -19.3490   23.4225 H   0  0  0  0  0  0
  -29.6138  -19.1439   21.7591 H   0  0  0  0  0  0
  -27.6226  -24.7036   18.8729 H   0  0  0  0  0  0
  -29.3039  -24.7861   19.1471 H   0  0  0  0  0  0
  1 25  1  0  0  0
  1 30  2  0  0  0
  1 86  1  0  0  0
  2  3  1  0  0  0
  2 25  1  0  0  0
  2 87  1  0  0  0
  2 88  1  0  0  0
  3  4  1  0  0  0
  3 89  1  0  0  0
  3 90  1  0  0  0
  4  5  1  0  0  0
  4 91  1  0  0  0
  4 92  1  0  0  0
  5  6  1  0  0  0
  5 26  1  0  0  0
  5 93  1  0  0  0
  6 25  1  0  0  0
  6 94  1  0  0  0
  6 95  1  0  0  0
  7  8  2  0  0  0
  7 26  1  0  0  0
  7 29  1  0  0  0
  8  9  1  0  0  0
  8 22  1  0  0  0
  9 10  1  0  0  0
  9 27  2  0  0  0
 10 11  2  0  0  0
 10 15  1  0  0  0
 11 12  1  0  0  0
 11 96  1  0  0  0
 12 13  2  0  0  0
 12 97  1  0  0  0
 13 14  1  0  0  0
 13 31  1  0  0  0
 14 15  2  0  0  0
 14 98  1  0  0  0
 15 99  1  0  0  0
 16 17  2  0  0  0
 16 21  1  0  0  0
 16 31  1  0  0  0
 17 18  1  0  0  0
 17100  1  0  0  0
 18 19  2  0  0  0
 18101  1  0  0  0
 19 20  1  0  0  0
 19 24  1  0  0  0
 20 21  2  0  0  0
 20102  1  0  0  0
 21 23  1  0  0  0
 22 28  1  0  0  0
 22 32  2  0  0  0
 26 27  1  0  0  0
 28103  1  0  0  0
 28104  1  0  0  0
 29105  1  0  0  0
 29106  1  0  0  0
 33 34  1  0  0  0
 33 66  1  0  0  0
 33 70  2  0  0  0
 34 36  1  0  0  0
 34 59  1  0  0  0
 34107  1  0  0  0
 35 44  2  0  0  0
 35 45  1  0  0  0
 35 68  1  0  0  0
 36 56  1  0  0  0
 36108  1  0  0  0
 37 39  1  0  0  0
 37 47  1  0  0  0
 37 66  1  0  0  0
 37109  1  0  0  0
 38 43  2  0  0  0
 38 46  1  0  0  0
 38 47  1  0  0  0
 39 64  1  0  0  0
 39 67  2  0  0  0
 40 52  1  0  0  0
 40 53  2  0  0  0
 40 58  1  0  0  0
 41110  1  0  0  0
 41111  1  0  0  0
 41112  1  0  0  0
 41 48  1  0  0  0
 42 43  1  0  0  0
 42 66  1  0  0  0
 42113  1  0  0  0
 42114  1  0  0  0
 43 44  1  0  0  0
 44115  1  0  0  0
 45 46  2  0  0  0
 45116  1  0  0  0
 46117  1  0  0  0
 47118  1  0  0  0
 47119  1  0  0  0
 48 56  1  0  0  0
 48 65  1  0  0  0
 48120  1  0  0  0
 49 50  1  0  0  0
 49 53  1  0  0  0
 49 64  1  0  0  0
 49121  1  0  0  0
 50 51  1  0  0  0
 50122  1  0  0  0
 50123  1  0  0  0
 51 52  1  0  0  0
 51124  1  0  0  0
 51125  1  0  0  0
 52126  1  0  0  0
 52127  1  0  0  0
 53 54  1  0  0  0
 54 55  2  0  0  0
 54128  1  0  0  0
 55 57  1  0  0  0
 55129  1  0  0  0
 56 69  2  0  0  0
 57 58  2  0  0  0
 57130  1  0  0  0
 58131  1  0  0  0
 59 60  1  0  0  0
 59 61  1  0  0  0
 59 62  1  0  0  0
 60132  1  0  0  0
 60133  1  0  0  0
 60134  1  0  0  0
 61135  1  0  0  0
 61136  1  0  0  0
 61137  1  0  0  0
 62138  1  0  0  0
 62139  1  0  0  0
 62140  1  0  0  0
 63 65  1  0  0  0
 63141  1  0  0  0
 63142  1  0  0  0
 63143  1  0  0  0
 64144  1  0  0  0
 65145  1  0  0  0
 68 85  1  0  0  0
 71 72  2  0  0  0
 71 74  1  0  0  0
 71146  1  0  0  0
 72 76  1  0  0  0
 72147  1  0  0  0
 73 75  1  0  0  0
 73 76  2  0  0  0
 73148  1  0  0  0
 74 75  2  0  0  0
 74 83  1  0  0  0
 75 84  1  0  0  0
 76 85  1  0  0  0
 77 78  1  0  0  0
 77 83  1  0  0  0
 77149  1  0  0  0
 77150  1  0  0  0
 78 83  1  0  0  0
 78151  1  0  0  0
 78152  1  0  0  0
 79 81  1  0  0  0
 79 84  1  0  0  0
 79153  1  0  0  0
 79154  1  0  0  0
 80 82  1  0  0  0
 80 84  1  0  0  0
 80155  1  0  0  0
 80156  1  0  0  0
 81 86  1  0  0  0
 81157  1  0  0  0
 81158  1  0  0  0
 82 86  1  0  0  0
 82159  1  0  0  0
 82160  1  0  0  0
 83161  1  0  0  0
 84162  1  0  0  0
 85163  1  0  0  0
 85164  1  0  0  0
M  ISO  4   1 100  68 101  85 101  86 100
M  END
> <chiral flag>
0

> <version>
0

> <s_m_source_file>
/data/baiqing/PycharmProjects/Reinvent-master-3.2/result/LINK_invent/BTK/process_docking_weight1_custom_sum_contain_oxygen_bond_distance_aromatic_linkinvent_7_9_3/rearranged_h_0142.sdf

> <i_m_source_file_index>
48

> <r_mmod_Potential_Energy-OPLS-2005>
671.1962890625

> <r_mmod_Stretch_Energy-OPLS-2005>
206.453308105469

> <r_mmod_Bend_Energy-OPLS-2005>
295.016357421875

> <r_mmod_Torsional_Energy-OPLS-2005>
335.641296386719

> <r_mmod_Improper_Torsional_Energy-OPLS-2005>
9.00665473937988

> <r_mmod_Van_der_Waal_Energy-OPLS-2005>
149.397918701172

> <r_mmod_Electrostatic_Energy-OPLS-2005>
-282.970825195312

> <r_mmod_Solvation_Energy-OPLS-2005>
-196.063293457031

> <b_mmod_Minimization_Converged-OPLS-2005>
0

> <r_mmod_RMS_Derivative-OPLS-2005>
3.61643624305725

$$$$
49
                    3D
 Structure written by MMmdl.
178187  0  0  1  0            999 V2000
  -30.7068  -14.4760   20.5989 C   0  0  0  0  0  0
  -30.4253  -12.3213   19.4192 C   0  0  0  0  0  0
  -29.4952  -12.5127   18.2042 C   0  0  0  0  0  0
  -28.0172  -12.3675   18.6187 C   0  0  0  0  0  0
  -27.6609  -13.2086   19.8736 C   0  0  2  0  0  0
  -28.7021  -12.9914   20.9939 C   0  0  0  0  0  0
  -25.2561  -13.8149   20.5657 C   0  0  0  0  0  0
  -24.1824  -13.0429   20.9183 C   0  0  0  0  0  0
  -24.6389  -11.6900   20.8735 C   0  0  0  0  0  0
  -23.9053  -10.4288   21.0408 C   0  0  0  0  0  0
  -24.3605   -9.4204   21.9189 C   0  0  0  0  0  0
  -23.6286   -8.2235   22.0755 C   0  0  0  0  0  0
  -22.4267   -8.0275   21.3544 C   0  0  0  0  0  0
  -21.9898   -9.0252   20.4651 C   0  0  0  0  0  0
  -22.7223  -10.2134   20.3057 C   0  0  0  0  0  0
  -21.6854   -6.0725   22.5279 C   0  0  0  0  0  0
  -21.4014   -6.5634   23.8212 C   0  0  0  0  0  0
  -21.3656   -5.6784   24.9173 C   0  0  0  0  0  0
  -21.6045   -4.3048   24.7223 C   0  0  0  0  0  0
  -21.8819   -3.8140   23.4346 C   0  0  0  0  0  0
  -21.9196   -4.6956   22.3404 C   0  0  0  0  0  0
  -22.7846  -13.5235   21.1845 C   0  0  0  0  0  0
  -22.1664   -4.2143   21.0981 F   0  0  0  0  0  0
  -21.5629   -3.4533   25.7736 F   0  0  0  0  0  0
  -30.0328  -13.3030   20.4431 N   0  0  0  0  0  0
  -26.3015  -12.9336   20.3352 N   0  0  0  0  0  0
  -25.9316  -11.6495   20.5755 N   0  0  0  0  0  0
  -22.0475  -12.8242   22.0408 N   0  0  0  0  0  0
  -25.4226  -15.1861   20.4013 N   0  0  0  0  0  0
  -31.8207  -14.6770   20.1075 O   0  0  0  0  0  0
  -21.6635   -6.8870   21.4241 O   0  0  0  0  0  0
  -22.3537  -14.5546   20.6699 O   0  0  0  0  0  0
  -24.6149  -31.8678   23.2097 C   0  0  0  0  0  0
  -25.9041  -32.4824   23.8390 C   0  0  1  0  0  0
  -27.2269  -27.4270   20.1022 C   0  0  0  0  0  0
  -25.5890  -33.8623   24.2320 N   0  0  0  0  0  0
  -23.4041  -30.4915   21.5494 C   0  0  2  0  0  0
  -24.8526  -28.9620   20.1076 C   0  0  0  0  0  0
  -22.7418  -29.4652   22.4970 C   0  0  0  0  0  0
  -18.0271  -28.1375   22.8488 C   0  0  0  0  0  0
  -24.1485  -36.7311   23.2639 C   0  0  0  0  0  0
  -25.9344  -30.8321   21.3653 C   0  0  0  0  0  0
  -26.0138  -29.4687   20.7071 C   0  0  0  0  0  0
  -27.2086  -28.7091   20.7003 C   0  0  0  0  0  0
  -26.0552  -26.9441   19.4836 C   0  0  0  0  0  0
  -24.8688  -27.6999   19.4899 C   0  0  0  0  0  0
  -23.6135  -29.8271   20.1623 C   0  0  0  0  0  0
  -25.4108  -36.3115   24.0338 C   0  0  1  0  0  0
  -20.5865  -28.3661   23.1311 C   0  0  2  0  0  0
  -20.6757  -26.9393   22.5419 C   0  0  0  0  0  0
  -19.5741  -26.6380   21.5207 C   0  0  0  0  0  0
  -18.1918  -26.7924   22.1616 C   0  0  0  0  0  0
  -19.1523  -28.8833   23.2898 C   0  0  0  0  0  0
  -18.9454  -30.1436   23.8913 C   0  0  0  0  0  0
  -17.6461  -30.6585   24.0563 C   0  0  0  0  0  0
  -25.9034  -34.9481   23.5129 C   0  0  0  0  0  0
  -16.5348  -29.9087   23.6327 C   0  0  0  0  0  0
  -16.7263  -28.6501   23.0353 C   0  0  0  0  0  0
  -26.4463  -31.6610   25.0725 C   0  0  0  0  0  0
  -25.3720  -31.3753   26.1476 C   0  0  0  0  0  0
  -27.0289  -30.3041   24.6124 C   0  0  0  0  0  0
  -27.6043  -32.4327   25.7482 C   0  0  0  0  0  0
  -27.5586  -37.1806   24.8461 C   0  0  0  0  0  0
  -21.4143  -29.3030   22.3718 N   0  0  0  0  0  0
  -26.4294  -37.3798   23.9413 N   0  0  0  0  0  0
  -24.6692  -31.0774   22.0998 N   0  0  0  0  0  0
  -23.4189  -28.8185   23.3007 O   0  0  0  0  0  0
  -28.3391  -26.6128   20.1527 O   0  0  0  0  0  0
  -26.5599  -34.8932   22.4693 O   0  0  0  0  0  0
  -23.5337  -32.1424   23.7486 O   0  0  0  0  0  0
  -34.2032  -20.1598   21.5629 C   0  0  0  0  0  0
  -32.1595  -19.7481   22.8287 C   0  0  0  0  0  0
  -32.0961  -19.7878   20.3904 C   0  0  0  0  0  0
  -33.5433  -20.0106   22.7995 C   0  0  0  0  0  0
  -33.4808  -20.0458   20.3575 C   0  0  0  0  0  0
  -31.4277  -19.6402   21.6253 C   0  0  0  0  0  0
  -28.7066  -23.2913   23.2019 C   0  0  0  0  0  0
  -29.1605  -21.8466   23.2840 C   0  0  0  0  0  0
  -28.5194  -23.0479   21.7050 C   0  0  1  0  0  0
  -34.3122  -20.1330   24.0997 C   0  0  0  0  0  0
  -34.1848  -20.2003   19.0248 C   0  0  0  0  0  0
  -28.0725  -17.6184   21.2970 C   0  0  0  0  0  0
  -28.9164  -24.1865   20.7279 C   0  0  0  0  0  0
  -30.4979  -16.8226   21.5417 C   0  0  0  0  0  0
  -29.1324  -20.6195   21.1187 C   0  0  0  0  0  0
  -28.1557  -25.5023   21.0588 C   0  0  0  0  0  0
  -29.9243  -19.3744   21.6623 C   0  0  1  0  0  0
  -29.5538  -17.9731   21.0443 C   0  0  2  0  0  0
  -30.0364  -15.4518   21.2411 N   0  0  0  0  0  0
  -29.4486  -21.8919   21.8441 N   0  3  2  0  0  0
  -31.4684  -12.4284   19.1160 H   0  0  0  0  0  0
  -30.3344  -11.3089   19.8168 H   0  0  0  0  0  0
  -29.7370  -11.7866   17.4271 H   0  0  0  0  0  0
  -29.6605  -13.4976   17.7648 H   0  0  0  0  0  0
  -27.8341  -11.3110   18.8200 H   0  0  0  0  0  0
  -27.3648  -12.6356   17.7869 H   0  0  0  0  0  0
  -27.7042  -14.2565   19.5757 H   0  0  0  0  0  0
  -28.6823  -11.9542   21.3331 H   0  0  0  0  0  0
  -28.4560  -13.5865   21.8737 H   0  0  0  0  0  0
  -25.2747   -9.5682   22.4765 H   0  0  0  0  0  0
  -23.9997   -7.4625   22.7469 H   0  0  0  0  0  0
  -21.0830   -8.8767   19.8958 H   0  0  0  0  0  0
  -22.3680  -10.9670   19.6163 H   0  0  0  0  0  0
  -21.2005   -7.6138   23.9709 H   0  0  0  0  0  0
  -21.1477   -6.0515   25.9074 H   0  0  0  0  0  0
  -22.0603   -2.7602   23.2846 H   0  0  0  0  0  0
  -22.4071  -11.9905   22.4813 H   0  0  0  0  0  0
  -21.1096  -13.1289   22.2603 H   0  0  0  0  0  0
  -24.6503  -15.8356   20.5021 H   0  0  0  0  0  0
  -26.2668  -15.6234   20.0568 H   0  0  0  0  0  0
  -26.7115  -32.5534   23.1155 H   0  0  0  0  0  0
  -25.0037  -33.9782   25.0462 H   0  0  0  0  0  0
  -22.6920  -31.3078   21.4114 H   0  0  0  0  0  0
  -23.3751  -35.9639   23.3306 H   0  0  0  0  0  0
  -24.3576  -36.8922   22.2053 H   0  0  0  0  0  0
  -23.7231  -37.6514   23.6648 H   0  0  0  0  0  0
  -26.0505  -31.6022   20.6016 H   0  0  0  0  0  0
  -26.8203  -30.8812   21.9867 H   0  0  0  0  0  0
  -28.1009  -29.0879   21.1784 H   0  0  0  0  0  0
  -26.0558  -25.9682   19.0186 H   0  0  0  0  0  0
  -23.9772  -27.3032   19.0240 H   0  0  0  0  0  0
  -23.7191  -30.6034   19.4035 H   0  0  0  0  0  0
  -22.7380  -29.2458   19.8672 H   0  0  0  0  0  0
  -25.1286  -36.1980   25.0829 H   0  0  0  0  0  0
  -20.9955  -28.3227   24.1433 H   0  0  0  0  0  0
  -20.5642  -26.2270   23.3608 H   0  0  0  0  0  0
  -21.6633  -26.7426   22.1228 H   0  0  0  0  0  0
  -19.6904  -25.6292   21.1234 H   0  0  0  0  0  0
  -19.6691  -27.3194   20.6739 H   0  0  0  0  0  0
  -17.4191  -26.6674   21.4013 H   0  0  0  0  0  0
  -18.0317  -26.0060   22.9011 H   0  0  0  0  0  0
  -19.7933  -30.7237   24.2300 H   0  0  0  0  0  0
  -17.5023  -31.6269   24.5159 H   0  0  0  0  0  0
  -15.5351  -30.3000   23.7646 H   0  0  0  0  0  0
  -15.8657  -28.0826   22.7071 H   0  0  0  0  0  0
  -24.5860  -30.7137   25.7818 H   0  0  0  0  0  0
  -24.8950  -32.2933   26.4921 H   0  0  0  0  0  0
  -25.8052  -30.8912   27.0236 H   0  0  0  0  0  0
  -26.2845  -29.6814   24.1149 H   0  0  0  0  0  0
  -27.4014  -29.7274   25.4601 H   0  0  0  0  0  0
  -27.8701  -30.4347   23.9311 H   0  0  0  0  0  0
  -27.2662  -33.3610   26.2099 H   0  0  0  0  0  0
  -28.3828  -32.6917   25.0294 H   0  0  0  0  0  0
  -28.0739  -31.8429   26.5365 H   0  0  0  0  0  0
  -28.2609  -38.0100   24.7517 H   0  0  0  0  0  0
  -28.1076  -36.2634   24.6270 H   0  0  0  0  0  0
  -27.2307  -37.1445   25.8864 H   0  0  0  0  0  0
  -20.9295  -29.8762   21.6957 H   0  0  0  0  0  0
  -26.0188  -38.2876   24.1418 H   0  0  0  0  0  0
  -35.2662  -20.3614   21.5395 H   0  0  0  0  0  0
  -31.6629  -19.6313   23.7828 H   0  0  0  0  0  0
  -31.5477  -19.6992   19.4621 H   0  0  0  0  0  0
  -29.5030  -24.0011   23.4352 H   0  0  0  0  0  0
  -27.7902  -23.5155   23.7507 H   0  0  0  0  0  0
  -28.3436  -21.1704   23.5462 H   0  0  0  0  0  0
  -30.0376  -21.6813   23.9099 H   0  0  0  0  0  0
  -27.5012  -22.6944   21.5256 H   0  0  0  0  0  0
  -35.3895  -20.1401   23.9295 H   0  0  0  0  0  0
  -34.0824  -19.2967   24.7607 H   0  0  0  0  0  0
  -34.0439  -21.0567   24.6133 H   0  0  0  0  0  0
  -35.2690  -20.2062   19.1428 H   0  0  0  0  0  0
  -33.8898  -21.1345   18.5463 H   0  0  0  0  0  0
  -33.9240  -19.3777   18.3583 H   0  0  0  0  0  0
  -27.8018  -16.6692   20.8380 H   0  0  0  0  0  0
  -27.3952  -18.3546   20.8681 H   0  0  0  0  0  0
  -27.8538  -17.5455   22.3627 H   0  0  0  0  0  0
  -28.6957  -23.8880   19.7028 H   0  0  0  0  0  0
  -29.9887  -24.3806   20.7671 H   0  0  0  0  0  0
  -30.5946  -16.8856   22.6263 H   0  0  0  0  0  0
  -31.5055  -16.9751   21.1498 H   0  0  0  0  0  0
  -28.0609  -20.4414   21.1975 H   0  0  0  0  0  0
  -29.3366  -20.7683   20.0586 H   0  0  0  0  0  0
  -28.4599  -25.8495   22.0466 H   0  0  0  0  0  0
  -27.1000  -25.2440   21.1614 H   0  0  0  0  0  0
  -29.6610  -19.2776   22.7164 H   0  0  0  0  0  0
  -29.6880  -18.0418   19.9634 H   0  0  0  0  0  0
  -29.1222  -15.1992   21.5849 H   0  0  0  0  0  0
  -30.4092  -22.1673   21.6996 H   0  0  0  0  0  0
  1 25  1  0  0  0
  1 30  2  0  0  0
  1 89  1  0  0  0
  2  3  1  0  0  0
  2 25  1  0  0  0
  2 91  1  0  0  0
  2 92  1  0  0  0
  3  4  1  0  0  0
  3 93  1  0  0  0
  3 94  1  0  0  0
  4  5  1  0  0  0
  4 95  1  0  0  0
  4 96  1  0  0  0
  5  6  1  0  0  0
  5 26  1  0  0  0
  5 97  1  0  0  0
  6 25  1  0  0  0
  6 98  1  0  0  0
  6 99  1  0  0  0
  7  8  2  0  0  0
  7 26  1  0  0  0
  7 29  1  0  0  0
  8  9  1  0  0  0
  8 22  1  0  0  0
  9 10  1  0  0  0
  9 27  2  0  0  0
 10 11  2  0  0  0
 10 15  1  0  0  0
 11 12  1  0  0  0
 11100  1  0  0  0
 12 13  2  0  0  0
 12101  1  0  0  0
 13 14  1  0  0  0
 13 31  1  0  0  0
 14 15  2  0  0  0
 14102  1  0  0  0
 15103  1  0  0  0
 16 17  2  0  0  0
 16 21  1  0  0  0
 16 31  1  0  0  0
 17 18  1  0  0  0
 17104  1  0  0  0
 18 19  2  0  0  0
 18105  1  0  0  0
 19 20  1  0  0  0
 19 24  1  0  0  0
 20 21  2  0  0  0
 20106  1  0  0  0
 21 23  1  0  0  0
 22 28  1  0  0  0
 22 32  2  0  0  0
 26 27  1  0  0  0
 28107  1  0  0  0
 28108  1  0  0  0
 29109  1  0  0  0
 29110  1  0  0  0
 33 34  1  0  0  0
 33 66  1  0  0  0
 33 70  2  0  0  0
 34 36  1  0  0  0
 34 59  1  0  0  0
 34111  1  0  0  0
 35 44  2  0  0  0
 35 45  1  0  0  0
 35 68  1  0  0  0
 36 56  1  0  0  0
 36112  1  0  0  0
 37 39  1  0  0  0
 37 47  1  0  0  0
 37 66  1  0  0  0
 37113  1  0  0  0
 38 43  2  0  0  0
 38 46  1  0  0  0
 38 47  1  0  0  0
 39 64  1  0  0  0
 39 67  2  0  0  0
 40 52  1  0  0  0
 40 53  2  0  0  0
 40 58  1  0  0  0
 41114  1  0  0  0
 41115  1  0  0  0
 41116  1  0  0  0
 41 48  1  0  0  0
 42 43  1  0  0  0
 42 66  1  0  0  0
 42117  1  0  0  0
 42118  1  0  0  0
 43 44  1  0  0  0
 44119  1  0  0  0
 45 46  2  0  0  0
 45120  1  0  0  0
 46121  1  0  0  0
 47122  1  0  0  0
 47123  1  0  0  0
 48 56  1  0  0  0
 48 65  1  0  0  0
 48124  1  0  0  0
 49 50  1  0  0  0
 49 53  1  0  0  0
 49 64  1  0  0  0
 49125  1  0  0  0
 50 51  1  0  0  0
 50126  1  0  0  0
 50127  1  0  0  0
 51 52  1  0  0  0
 51128  1  0  0  0
 51129  1  0  0  0
 52130  1  0  0  0
 52131  1  0  0  0
 53 54  1  0  0  0
 54 55  2  0  0  0
 54132  1  0  0  0
 55 57  1  0  0  0
 55133  1  0  0  0
 56 69  2  0  0  0
 57 58  2  0  0  0
 57134  1  0  0  0
 58135  1  0  0  0
 59 60  1  0  0  0
 59 61  1  0  0  0
 59 62  1  0  0  0
 60136  1  0  0  0
 60137  1  0  0  0
 60138  1  0  0  0
 61139  1  0  0  0
 61140  1  0  0  0
 61141  1  0  0  0
 62142  1  0  0  0
 62143  1  0  0  0
 62144  1  0  0  0
 63 65  1  0  0  0
 63145  1  0  0  0
 63146  1  0  0  0
 63147  1  0  0  0
 64148  1  0  0  0
 65149  1  0  0  0
 68 86  1  0  0  0
 71 74  2  0  0  0
 71 75  1  0  0  0
 71150  1  0  0  0
 72 74  1  0  0  0
 72 76  2  0  0  0
 72151  1  0  0  0
 73 75  2  0  0  0
 73 76  1  0  0  0
 73152  1  0  0  0
 74 80  1  0  0  0
 75 81  1  0  0  0
 76 87  1  0  0  0
 77 78  1  0  0  0
 77 79  1  0  0  0
 77153  1  0  0  0
 77154  1  0  0  0
 78 90  1  0  0  0
 78155  1  0  0  0
 78156  1  0  0  0
 79 83  1  0  0  0
 79 90  1  0  0  0
 79157  1  0  0  0
 80158  1  0  0  0
 80159  1  0  0  0
 80160  1  0  0  0
 81161  1  0  0  0
 81162  1  0  0  0
 81163  1  0  0  0
 82164  1  0  0  0
 82165  1  0  0  0
 82166  1  0  0  0
 82 88  1  0  0  0
 83 86  1  0  0  0
 83167  1  0  0  0
 83168  1  0  0  0
 84 88  1  0  0  0
 84 89  1  0  0  0
 84169  1  0  0  0
 84170  1  0  0  0
 85171  1  0  0  0
 85172  1  0  0  0
 85 87  1  0  0  0
 85 90  1  0  0  0
 86173  1  0  0  0
 86174  1  0  0  0
 87 88  1  0  0  0
 87175  1  0  0  0
 88176  1  0  0  0
 89177  1  0  0  0
 90178  1  0  0  0
M  CHG  1  90   1
M  ISO  4   1 100  68 101  86 101  89 100
M  END
> <chiral flag>
0

> <version>
0

> <s_m_source_file>
/data/baiqing/PycharmProjects/Reinvent-master-3.2/result/LINK_invent/BTK/process_docking_weight1_custom_sum_contain_oxygen_bond_distance_aromatic_linkinvent_7_9_3/rearranged_h_0142.sdf

> <i_m_source_file_index>
49

> <r_mmod_Potential_Energy-OPLS-2005>
-140.968536376953

> <r_mmod_Stretch_Energy-OPLS-2005>
47.5522918701172

> <r_mmod_Bend_Energy-OPLS-2005>
115.576354980469

> <r_mmod_Torsional_Energy-OPLS-2005>
271.988037109375

> <r_mmod_Improper_Torsional_Energy-OPLS-2005>
2.61821842193604

> <r_mmod_Van_der_Waal_Energy-OPLS-2005>
145.919357299805

> <r_mmod_Electrostatic_Energy-OPLS-2005>
-308.034240722656

> <r_mmod_Solvation_Energy-OPLS-2005>
-432.341064453125

> <b_mmod_Minimization_Converged-OPLS-2005>
0

> <r_mmod_RMS_Derivative-OPLS-2005>
1.04797720909119

$$$$
50
                    3D
 Structure written by MMmdl.
169178  0  0  1  0            999 V2000
  -30.7286  -14.4727   20.5494 C   0  0  0  0  0  0
  -30.3889  -12.2923   19.4408 C   0  0  0  0  0  0
  -29.4763  -12.5007   18.2149 C   0  0  0  0  0  0
  -28.0015  -12.3763   18.6309 C   0  0  0  0  0  0
  -27.6532  -13.2221   19.8864 C   0  0  2  0  0  0
  -28.6953  -13.0322   21.0115 C   0  0  0  0  0  0
  -25.2505  -13.8171   20.5749 C   0  0  0  0  0  0
  -24.1782  -13.0427   20.9218 C   0  0  0  0  0  0
  -24.6384  -11.6911   20.8812 C   0  0  0  0  0  0
  -23.9052  -10.4285   21.0450 C   0  0  0  0  0  0
  -24.3608   -9.4189   21.9207 C   0  0  0  0  0  0
  -23.6291   -8.2209   22.0755 C   0  0  0  0  0  0
  -22.4267   -8.0260   21.3559 C   0  0  0  0  0  0
  -21.9919   -9.0232   20.4660 C   0  0  0  0  0  0
  -22.7229  -10.2122   20.3091 C   0  0  0  0  0  0
  -21.6831   -6.0719   22.5279 C   0  0  0  0  0  0
  -21.3998   -6.5629   23.8212 C   0  0  0  0  0  0
  -21.3686   -5.6788   24.9187 C   0  0  0  0  0  0
  -21.6049   -4.3053   24.7244 C   0  0  0  0  0  0
  -21.8815   -3.8144   23.4366 C   0  0  0  0  0  0
  -21.9191   -4.6952   22.3418 C   0  0  0  0  0  0
  -22.7822  -13.5218   21.1873 C   0  0  0  0  0  0
  -22.1659   -4.2120   21.1002 F   0  0  0  0  0  0
  -21.5658   -3.4559   25.7770 F   0  0  0  0  0  0
  -30.0209  -13.3116   20.4426 N   0  0  0  0  0  0
  -26.2969  -12.9385   20.3504 N   0  0  0  0  0  0
  -25.9316  -11.6524   20.5888 N   0  0  0  0  0  0
  -22.0493  -12.8181   22.0427 N   0  0  0  0  0  0
  -25.4250  -15.1863   20.4148 N   0  0  0  0  0  0
  -31.8294  -14.5939   19.9987 O   0  0  0  0  0  0
  -21.6636   -6.8852   21.4228 O   0  0  0  0  0  0
  -22.3533  -14.5558   20.6775 O   0  0  0  0  0  0
  -24.6205  -31.8659   23.2096 C   0  0  0  0  0  0
  -25.9074  -32.4811   23.8386 C   0  0  1  0  0  0
  -27.2095  -27.3635   20.1049 C   0  0  0  0  0  0
  -25.5917  -33.8609   24.2311 N   0  0  0  0  0  0
  -23.4073  -30.4924   21.5497 C   0  0  2  0  0  0
  -24.8475  -28.9535   20.1056 C   0  0  0  0  0  0
  -22.7427  -29.4674   22.4961 C   0  0  0  0  0  0
  -18.0284  -28.1387   22.8516 C   0  0  0  0  0  0
  -24.1482  -36.7308   23.2633 C   0  0  0  0  0  0
  -25.9439  -30.8075   21.3723 C   0  0  0  0  0  0
  -26.0088  -29.4374   20.7180 C   0  0  0  0  0  0
  -27.1859  -28.6448   20.7227 C   0  0  0  0  0  0
  -26.0354  -26.9260   19.4540 C   0  0  0  0  0  0
  -24.8591  -27.7001   19.4692 C   0  0  0  0  0  0
  -23.6137  -29.8280   20.1629 C   0  0  0  0  0  0
  -25.4109  -36.3092   24.0326 C   0  0  1  0  0  0
  -20.5882  -28.3687   23.1301 C   0  0  2  0  0  0
  -20.6778  -26.9412   22.5430 C   0  0  0  0  0  0
  -19.5743  -26.6398   21.5238 C   0  0  0  0  0  0
  -18.1923  -26.7941   22.1639 C   0  0  0  0  0  0
  -19.1538  -28.8854   23.2908 C   0  0  0  0  0  0
  -18.9442  -30.1462   23.8928 C   0  0  0  0  0  0
  -17.6446  -30.6591   24.0577 C   0  0  0  0  0  0
  -25.9056  -34.9460   23.5114 C   0  0  0  0  0  0
  -16.5338  -29.9099   23.6315 C   0  0  0  0  0  0
  -16.7278  -28.6503   23.0353 C   0  0  0  0  0  0
  -26.4470  -31.6604   25.0732 C   0  0  0  0  0  0
  -25.3718  -31.3749   26.1468 C   0  0  0  0  0  0
  -27.0311  -30.3025   24.6179 C   0  0  0  0  0  0
  -27.6030  -32.4352   25.7495 C   0  0  0  0  0  0
  -27.5572  -37.1808   24.8470 C   0  0  0  0  0  0
  -21.4158  -29.3057   22.3701 N   0  0  0  0  0  0
  -26.4284  -37.3782   23.9400 N   0  0  0  0  0  0
  -24.6761  -31.0712   22.1018 N   0  0  0  0  0  0
  -23.4174  -28.8210   23.3013 O   0  0  0  0  0  0
  -28.3504  -26.5752   20.2114 O   0  0  0  0  0  0
  -26.5608  -34.8904   22.4677 O   0  0  0  0  0  0
  -23.5392  -32.1439   23.7477 O   0  0  0  0  0  0
  -30.8260  -20.5854   22.2058 C   0  0  0  0  0  0
  -30.2641  -22.8503   21.5723 C   0  0  0  0  0  0
  -31.2103  -21.9287   22.0454 C   0  0  0  0  0  0
  -29.5394  -20.1802   21.8090 C   0  0  0  0  0  0
  -28.9601  -22.4045   21.3057 C   0  0  0  0  0  0
  -31.6530  -16.7450   22.6339 C   0  0  0  0  0  0
  -31.6885  -17.3754   21.2423 C   0  0  0  0  0  0
  -30.5159  -15.7002   22.5779 C   0  0  0  0  0  0
  -30.3698  -16.9174   20.6114 C   0  0  1  0  0  0
  -32.6045  -22.3845   22.4213 C   0  0  0  0  0  0
  -27.9774  -22.9900   18.6178 C   0  0  0  0  0  0
  -29.1666  -17.9333   20.7520 C   0  0  0  0  0  0
  -28.5379  -25.3395   19.4659 C   0  0  0  0  0  0
  -27.7518  -23.9990   19.7656 C   0  0  2  0  0  0
  -28.6101  -21.0871   21.3945 N   0  0  0  0  0  0
  -30.1478  -15.5461   21.1646 N   0  0  0  0  0  0
  -29.1828  -18.8189   21.9375 N   0  0  0  0  0  0
  -27.9481  -23.3530   21.0815 N   0  0  0  0  0  0
  -31.4395  -12.3391   19.1454 H   0  0  0  0  0  0
  -30.2453  -11.2885   19.8523 H   0  0  0  0  0  0
  -29.7016  -11.7741   17.4312 H   0  0  0  0  0  0
  -29.6529  -13.4870   17.7837 H   0  0  0  0  0  0
  -27.8082  -11.3233   18.8420 H   0  0  0  0  0  0
  -27.3480  -12.6493   17.8017 H   0  0  0  0  0  0
  -27.6903  -14.2695   19.5871 H   0  0  0  0  0  0
  -28.6588  -12.0127   21.4027 H   0  0  0  0  0  0
  -28.4714  -13.6833   21.8586 H   0  0  0  0  0  0
  -25.2754   -9.5650   22.4805 H   0  0  0  0  0  0
  -23.9989   -7.4608   22.7496 H   0  0  0  0  0  0
  -21.0827   -8.8791   19.8983 H   0  0  0  0  0  0
  -22.3700  -10.9686   19.6238 H   0  0  0  0  0  0
  -21.1964   -7.6142   23.9687 H   0  0  0  0  0  0
  -21.1523   -6.0552   25.9080 H   0  0  0  0  0  0
  -22.0571   -2.7598   23.2894 H   0  0  0  0  0  0
  -22.4131  -11.9775   22.4706 H   0  0  0  0  0  0
  -21.1170  -13.1268   22.2795 H   0  0  0  0  0  0
  -24.6694  -15.8517   20.5242 H   0  0  0  0  0  0
  -26.2889  -15.6134   20.1066 H   0  0  0  0  0  0
  -26.7161  -32.5471   23.1157 H   0  0  0  0  0  0
  -25.0059  -33.9797   25.0441 H   0  0  0  0  0  0
  -22.6986  -31.3139   21.4152 H   0  0  0  0  0  0
  -23.3727  -35.9661   23.3319 H   0  0  0  0  0  0
  -24.3576  -36.8911   22.2048 H   0  0  0  0  0  0
  -23.7251  -37.6520   23.6646 H   0  0  0  0  0  0
  -26.0676  -31.5674   20.5999 H   0  0  0  0  0  0
  -26.8341  -30.8617   21.9890 H   0  0  0  0  0  0
  -28.0750  -29.0017   21.2237 H   0  0  0  0  0  0
  -25.9940  -25.9809   18.9411 H   0  0  0  0  0  0
  -23.9675  -27.3280   18.9833 H   0  0  0  0  0  0
  -23.7228  -30.6051   19.4062 H   0  0  0  0  0  0
  -22.7340  -29.2536   19.8676 H   0  0  0  0  0  0
  -25.1283  -36.1959   25.0818 H   0  0  0  0  0  0
  -20.9999  -28.3296   24.1407 H   0  0  0  0  0  0
  -20.5698  -26.2313   23.3635 H   0  0  0  0  0  0
  -21.6631  -26.7479   22.1184 H   0  0  0  0  0  0
  -19.6886  -25.6317   21.1244 H   0  0  0  0  0  0
  -19.6647  -27.3227   20.6773 H   0  0  0  0  0  0
  -17.4191  -26.6723   21.4038 H   0  0  0  0  0  0
  -18.0294  -26.0083   22.9023 H   0  0  0  0  0  0
  -19.7915  -30.7289   24.2287 H   0  0  0  0  0  0
  -17.4988  -31.6265   24.5191 H   0  0  0  0  0  0
  -15.5332  -30.2996   23.7631 H   0  0  0  0  0  0
  -15.8675  -28.0834   22.7038 H   0  0  0  0  0  0
  -24.5852  -30.7161   25.7778 H   0  0  0  0  0  0
  -24.8942  -32.2929   26.4909 H   0  0  0  0  0  0
  -25.8016  -30.8877   27.0234 H   0  0  0  0  0  0
  -26.2890  -29.6802   24.1173 H   0  0  0  0  0  0
  -27.3983  -29.7251   25.4680 H   0  0  0  0  0  0
  -27.8757  -30.4314   23.9409 H   0  0  0  0  0  0
  -27.2614  -33.3634   26.2098 H   0  0  0  0  0  0
  -28.3788  -32.6987   25.0288 H   0  0  0  0  0  0
  -28.0763  -31.8488   26.5387 H   0  0  0  0  0  0
  -28.2603  -38.0091   24.7476 H   0  0  0  0  0  0
  -28.1044  -36.2615   24.6325 H   0  0  0  0  0  0
  -27.2294  -37.1493   25.8877 H   0  0  0  0  0  0
  -20.9342  -29.8721   21.6865 H   0  0  0  0  0  0
  -26.0171  -38.2856   24.1390 H   0  0  0  0  0  0
  -31.5335  -19.8935   22.6325 H   0  0  0  0  0  0
  -30.5165  -23.8998   21.5058 H   0  0  0  0  0  0
  -31.4625  -17.4886   23.4091 H   0  0  0  0  0  0
  -32.6161  -16.2831   22.8559 H   0  0  0  0  0  0
  -32.5296  -16.9591   20.6863 H   0  0  0  0  0  0
  -31.8542  -18.4445   21.2076 H   0  0  0  0  0  0
  -29.6457  -16.0592   23.1231 H   0  0  0  0  0  0
  -30.8046  -14.7578   23.0526 H   0  0  0  0  0  0
  -30.5347  -16.8236   19.5337 H   0  0  0  0  0  0
  -33.2180  -22.4956   21.5275 H   0  0  0  0  0  0
  -33.0982  -21.6690   23.0789 H   0  0  0  0  0  0
  -32.5595  -23.3424   22.9367 H   0  0  0  0  0  0
  -29.0266  -22.7041   18.5386 H   0  0  0  0  0  0
  -27.6805  -23.3939   17.6495 H   0  0  0  0  0  0
  -27.3977  -22.0796   18.7662 H   0  0  0  0  0  0
  -28.2189  -17.3937   20.7222 H   0  0  0  0  0  0
  -29.1666  -18.5785   19.8713 H   0  0  0  0  0  0
  -28.3656  -25.5980   18.4179 H   0  0  0  0  0  0
  -29.6027  -25.1149   19.5122 H   0  0  0  0  0  0
  -26.6864  -24.2166   19.7533 H   0  0  0  0  0  0
  -29.6851  -18.3686   22.6921 H   0  0  0  0  0  0
  -27.0601  -23.0228   21.4458 H   0  0  0  0  0  0
  1 25  1  0  0  0
  1 30  2  0  0  0
  1 86  1  0  0  0
  2  3  1  0  0  0
  2 25  1  0  0  0
  2 89  1  0  0  0
  2 90  1  0  0  0
  3  4  1  0  0  0
  3 91  1  0  0  0
  3 92  1  0  0  0
  4  5  1  0  0  0
  4 93  1  0  0  0
  4 94  1  0  0  0
  5  6  1  0  0  0
  5 26  1  0  0  0
  5 95  1  0  0  0
  6 25  1  0  0  0
  6 96  1  0  0  0
  6 97  1  0  0  0
  7  8  2  0  0  0
  7 26  1  0  0  0
  7 29  1  0  0  0
  8  9  1  0  0  0
  8 22  1  0  0  0
  9 10  1  0  0  0
  9 27  2  0  0  0
 10 11  2  0  0  0
 10 15  1  0  0  0
 11 12  1  0  0  0
 11 98  1  0  0  0
 12 13  2  0  0  0
 12 99  1  0  0  0
 13 14  1  0  0  0
 13 31  1  0  0  0
 14 15  2  0  0  0
 14100  1  0  0  0
 15101  1  0  0  0
 16 17  2  0  0  0
 16 21  1  0  0  0
 16 31  1  0  0  0
 17 18  1  0  0  0
 17102  1  0  0  0
 18 19  2  0  0  0
 18103  1  0  0  0
 19 20  1  0  0  0
 19 24  1  0  0  0
 20 21  2  0  0  0
 20104  1  0  0  0
 21 23  1  0  0  0
 22 28  1  0  0  0
 22 32  2  0  0  0
 26 27  1  0  0  0
 28105  1  0  0  0
 28106  1  0  0  0
 29107  1  0  0  0
 29108  1  0  0  0
 33 34  1  0  0  0
 33 66  1  0  0  0
 33 70  2  0  0  0
 34 36  1  0  0  0
 34 59  1  0  0  0
 34109  1  0  0  0
 35 44  2  0  0  0
 35 45  1  0  0  0
 35 68  1  0  0  0
 36 56  1  0  0  0
 36110  1  0  0  0
 37 39  1  0  0  0
 37 47  1  0  0  0
 37 66  1  0  0  0
 37111  1  0  0  0
 38 43  2  0  0  0
 38 46  1  0  0  0
 38 47  1  0  0  0
 39 64  1  0  0  0
 39 67  2  0  0  0
 40 52  1  0  0  0
 40 53  2  0  0  0
 40 58  1  0  0  0
 41112  1  0  0  0
 41113  1  0  0  0
 41114  1  0  0  0
 41 48  1  0  0  0
 42 43  1  0  0  0
 42 66  1  0  0  0
 42115  1  0  0  0
 42116  1  0  0  0
 43 44  1  0  0  0
 44117  1  0  0  0
 45 46  2  0  0  0
 45118  1  0  0  0
 46119  1  0  0  0
 47120  1  0  0  0
 47121  1  0  0  0
 48 56  1  0  0  0
 48 65  1  0  0  0
 48122  1  0  0  0
 49 50  1  0  0  0
 49 53  1  0  0  0
 49 64  1  0  0  0
 49123  1  0  0  0
 50 51  1  0  0  0
 50124  1  0  0  0
 50125  1  0  0  0
 51 52  1  0  0  0
 51126  1  0  0  0
 51127  1  0  0  0
 52128  1  0  0  0
 52129  1  0  0  0
 53 54  1  0  0  0
 54 55  2  0  0  0
 54130  1  0  0  0
 55 57  1  0  0  0
 55131  1  0  0  0
 56 69  2  0  0  0
 57 58  2  0  0  0
 57132  1  0  0  0
 58133  1  0  0  0
 59 60  1  0  0  0
 59 61  1  0  0  0
 59 62  1  0  0  0
 60134  1  0  0  0
 60135  1  0  0  0
 60136  1  0  0  0
 61137  1  0  0  0
 61138  1  0  0  0
 61139  1  0  0  0
 62140  1  0  0  0
 62141  1  0  0  0
 62142  1  0  0  0
 63 65  1  0  0  0
 63143  1  0  0  0
 63144  1  0  0  0
 63145  1  0  0  0
 64146  1  0  0  0
 65147  1  0  0  0
 68 83  1  0  0  0
 71 73  2  0  0  0
 71 74  1  0  0  0
 71148  1  0  0  0
 72 73  1  0  0  0
 72 75  2  0  0  0
 72149  1  0  0  0
 73 80  1  0  0  0
 74 85  2  0  0  0
 74 87  1  0  0  0
 75 85  1  0  0  0
 75 88  1  0  0  0
 76 77  1  0  0  0
 76 78  1  0  0  0
 76150  1  0  0  0
 76151  1  0  0  0
 77 79  1  0  0  0
 77152  1  0  0  0
 77153  1  0  0  0
 78 86  1  0  0  0
 78154  1  0  0  0
 78155  1  0  0  0
 79 82  1  0  0  0
 79 86  1  0  0  0
 79156  1  0  0  0
 80157  1  0  0  0
 80158  1  0  0  0
 80159  1  0  0  0
 81160  1  0  0  0
 81161  1  0  0  0
 81162  1  0  0  0
 81 84  1  0  0  0
 82 87  1  0  0  0
 82163  1  0  0  0
 82164  1  0  0  0
 83 84  1  0  0  0
 83165  1  0  0  0
 83166  1  0  0  0
 84 88  1  0  0  0
 84167  1  0  0  0
 87168  1  0  0  0
 88169  1  0  0  0
M  ISO  4   1 100  68 101  83 101  86 100
M  END
> <chiral flag>
0

> <version>
0

> <s_m_source_file>
/data/baiqing/PycharmProjects/Reinvent-master-3.2/result/LINK_invent/BTK/process_docking_weight1_custom_sum_contain_oxygen_bond_distance_aromatic_linkinvent_7_9_3/rearranged_h_0142.sdf

> <i_m_source_file_index>
50

> <r_mmod_Potential_Energy-OPLS-2005>
38.3198051452637

> <r_mmod_Stretch_Energy-OPLS-2005>
54.842155456543

> <r_mmod_Bend_Energy-OPLS-2005>
190.086563110352

> <r_mmod_Torsional_Energy-OPLS-2005>
394.509185791016

> <r_mmod_Improper_Torsional_Energy-OPLS-2005>
19.0353469848633

> <r_mmod_Van_der_Waal_Energy-OPLS-2005>
154.5576171875

> <r_mmod_Electrostatic_Energy-OPLS-2005>
-570.904602050781

> <r_mmod_Solvation_Energy-OPLS-2005>
-228.801498413086

> <b_mmod_Minimization_Converged-OPLS-2005>
0

> <r_mmod_RMS_Derivative-OPLS-2005>
5.58983325958252

$$$$
51
                    3D
 Structure written by MMmdl.
167176  0  0  1  0            999 V2000
  -30.6767  -14.4483   20.5587 C   0  0  0  0  0  0
  -30.4300  -12.2789   19.4286 C   0  0  0  0  0  0
  -29.5043  -12.5052   18.2132 C   0  0  0  0  0  0
  -28.0227  -12.3665   18.6194 C   0  0  0  0  0  0
  -27.6698  -13.1960   19.8832 C   0  0  2  0  0  0
  -28.7075  -12.9452   21.0044 C   0  0  0  0  0  0
  -25.2628  -13.8136   20.5662 C   0  0  0  0  0  0
  -24.1857  -13.0437   20.9147 C   0  0  0  0  0  0
  -24.6387  -11.6899   20.8724 C   0  0  0  0  0  0
  -23.9047  -10.4295   21.0412 C   0  0  0  0  0  0
  -24.3602   -9.4208   21.9184 C   0  0  0  0  0  0
  -23.6287   -8.2242   22.0753 C   0  0  0  0  0  0
  -22.4275   -8.0275   21.3544 C   0  0  0  0  0  0
  -21.9903   -9.0247   20.4651 C   0  0  0  0  0  0
  -22.7221  -10.2130   20.3063 C   0  0  0  0  0  0
  -21.6852   -6.0735   22.5284 C   0  0  0  0  0  0
  -21.4008   -6.5640   23.8215 C   0  0  0  0  0  0
  -21.3660   -5.6790   24.9174 C   0  0  0  0  0  0
  -21.6045   -4.3054   24.7228 C   0  0  0  0  0  0
  -21.8815   -3.8145   23.4348 C   0  0  0  0  0  0
  -21.9186   -4.6962   22.3403 C   0  0  0  0  0  0
  -22.7883  -13.5256   21.1809 C   0  0  0  0  0  0
  -22.1656   -4.2149   21.0987 F   0  0  0  0  0  0
  -21.5637   -3.4537   25.7738 F   0  0  0  0  0  0
  -30.0466  -13.2475   20.4684 N   0  0  0  0  0  0
  -26.3062  -12.9283   20.3376 N   0  0  0  0  0  0
  -25.9310  -11.6456   20.5749 N   0  0  0  0  0  0
  -22.0510  -12.8272   22.0377 N   0  0  0  0  0  0
  -25.4369  -15.1845   20.4080 N   0  0  0  0  0  0
  -31.7705  -14.6772   20.0362 O   0  0  0  0  0  0
  -21.6634   -6.8878   21.4248 O   0  0  0  0  0  0
  -22.3579  -14.5566   20.6647 O   0  0  0  0  0  0
  -24.6124  -31.8688   23.2112 C   0  0  0  0  0  0
  -25.9026  -32.4833   23.8402 C   0  0  1  0  0  0
  -27.2347  -27.4520   20.1038 C   0  0  0  0  0  0
  -25.5883  -33.8634   24.2330 N   0  0  0  0  0  0
  -23.3992  -30.4909   21.5519 C   0  0  2  0  0  0
  -24.8450  -28.9559   20.1163 C   0  0  0  0  0  0
  -22.7396  -29.4662   22.5015 C   0  0  0  0  0  0
  -18.0270  -28.1371   22.8504 C   0  0  0  0  0  0
  -24.1475  -36.7313   23.2634 C   0  0  0  0  0  0
  -25.9241  -30.8397   21.3612 C   0  0  0  0  0  0
  -26.0036  -29.4755   20.7098 C   0  0  0  0  0  0
  -27.2020  -28.7330   20.6944 C   0  0  0  0  0  0
  -26.0624  -26.9419   19.5034 C   0  0  0  0  0  0
  -24.8684  -27.6883   19.5077 C   0  0  0  0  0  0
  -23.6059  -29.8187   20.1673 C   0  0  0  0  0  0
  -25.4093  -36.3129   24.0350 C   0  0  1  0  0  0
  -20.5857  -28.3660   23.1327 C   0  0  2  0  0  0
  -20.6765  -26.9395   22.5424 C   0  0  0  0  0  0
  -19.5738  -26.6381   21.5222 C   0  0  0  0  0  0
  -18.1918  -26.7919   22.1635 C   0  0  0  0  0  0
  -19.1519  -28.8835   23.2911 C   0  0  0  0  0  0
  -18.9441  -30.1447   23.8908 C   0  0  0  0  0  0
  -17.6444  -30.6581   24.0567 C   0  0  0  0  0  0
  -25.9016  -34.9491   23.5136 C   0  0  0  0  0  0
  -16.5337  -29.9084   23.6325 C   0  0  0  0  0  0
  -16.7261  -28.6502   23.0348 C   0  0  0  0  0  0
  -26.4450  -31.6615   25.0734 C   0  0  0  0  0  0
  -25.3724  -31.3734   26.1497 C   0  0  0  0  0  0
  -27.0264  -30.3057   24.6104 C   0  0  0  0  0  0
  -27.6033  -32.4339   25.7489 C   0  0  0  0  0  0
  -27.5574  -37.1803   24.8456 C   0  0  0  0  0  0
  -21.4128  -29.3032   22.3745 N   0  0  0  0  0  0
  -26.4274  -37.3822   23.9422 N   0  0  0  0  0  0
  -24.6637  -31.0801   22.1002 N   0  0  0  0  0  0
  -23.4175  -28.8210   23.3059 O   0  0  0  0  0  0
  -28.4083  -26.7356   20.1052 O   0  0  0  0  0  0
  -26.5586  -34.8939   22.4701 O   0  0  0  0  0  0
  -23.5329  -32.1437   23.7522 O   0  0  0  0  0  0
  -26.8009  -20.0690   20.2193 C   0  0  0  0  0  0
  -25.5917  -20.5495   19.6873 C   0  0  0  0  0  0
  -26.6328  -22.7189   19.3310 C   0  0  0  0  0  0
  -27.9356  -20.9012   20.3239 C   0  0  0  0  0  0
  -25.5065  -21.8778   19.2371 C   0  0  0  0  0  0
  -27.8540  -22.2538   19.8862 C   0  0  0  0  0  0
  -30.5799  -20.5816   20.5062 C   0  0  0  0  0  0
  -29.1688  -20.2981   20.9543 C   0  0  2  0  0  0
  -29.9754  -19.2202   20.2347 C   0  0  2  0  0  0
  -24.2006  -22.4043   18.6756 C   0  0  0  0  0  0
  -31.9717  -17.7739   20.8037 C   0  0  0  0  0  0
  -29.6813  -16.7219   20.3984 C   0  0  0  0  0  0
  -28.3271  -25.3852   20.5783 C   0  0  0  0  0  0
  -28.9470  -24.4149   19.5554 C   0  0  0  0  0  0
  -30.4499  -17.9487   20.9490 C   0  0  2  0  0  0
  -29.9142  -15.4329   21.0675 N   0  0  0  0  0  0
  -28.9683  -23.0610   20.0297 O   0  0  0  0  0  0
  -31.4783  -12.3715   19.1385 H   0  0  0  0  0  0
  -30.3189  -11.2623   19.8088 H   0  0  0  0  0  0
  -29.7431  -11.7942   17.4208 H   0  0  0  0  0  0
  -29.6793  -13.4978   17.7949 H   0  0  0  0  0  0
  -27.8304  -11.3097   18.8090 H   0  0  0  0  0  0
  -27.3744  -12.6462   17.7871 H   0  0  0  0  0  0
  -27.7248  -14.2464   19.5975 H   0  0  0  0  0  0
  -28.6733  -11.9014   21.3199 H   0  0  0  0  0  0
  -28.4722  -13.5208   21.9006 H   0  0  0  0  0  0
  -25.2751   -9.5684   22.4742 H   0  0  0  0  0  0
  -23.9991   -7.4645   22.7480 H   0  0  0  0  0  0
  -21.0825   -8.8772   19.8976 H   0  0  0  0  0  0
  -22.3682  -10.9662   19.6168 H   0  0  0  0  0  0
  -21.2001   -7.6143   23.9714 H   0  0  0  0  0  0
  -21.1489   -6.0524   25.9077 H   0  0  0  0  0  0
  -22.0595   -2.7608   23.2846 H   0  0  0  0  0  0
  -22.4094  -11.9934   22.4788 H   0  0  0  0  0  0
  -21.1138  -13.1332   22.2577 H   0  0  0  0  0  0
  -24.6705  -15.8400   20.5134 H   0  0  0  0  0  0
  -26.2904  -15.6211   20.0853 H   0  0  0  0  0  0
  -26.7117  -32.5552   23.1189 H   0  0  0  0  0  0
  -25.0064  -33.9796   25.0502 H   0  0  0  0  0  0
  -22.6867  -31.3066   21.4143 H   0  0  0  0  0  0
  -23.3756  -35.9627   23.3301 H   0  0  0  0  0  0
  -24.3551  -36.8915   22.2038 H   0  0  0  0  0  0
  -23.7207  -37.6516   23.6635 H   0  0  0  0  0  0
  -26.0324  -31.6038   20.5908 H   0  0  0  0  0  0
  -26.8129  -30.8942   21.9780 H   0  0  0  0  0  0
  -28.0989  -29.1309   21.1489 H   0  0  0  0  0  0
  -26.0697  -25.9734   19.0280 H   0  0  0  0  0  0
  -23.9809  -27.2821   19.0425 H   0  0  0  0  0  0
  -23.7127  -30.5904   19.4045 H   0  0  0  0  0  0
  -22.7315  -29.2340   19.8753 H   0  0  0  0  0  0
  -25.1275  -36.1985   25.0849 H   0  0  0  0  0  0
  -20.9950  -28.3217   24.1445 H   0  0  0  0  0  0
  -20.5670  -26.2260   23.3604 H   0  0  0  0  0  0
  -21.6639  -26.7439   22.1214 H   0  0  0  0  0  0
  -19.6887  -25.6298   21.1230 H   0  0  0  0  0  0
  -19.6674  -27.3211   20.6763 H   0  0  0  0  0  0
  -17.4192  -26.6689   21.4027 H   0  0  0  0  0  0
  -18.0315  -26.0041   22.9011 H   0  0  0  0  0  0
  -19.7917  -30.7273   24.2266 H   0  0  0  0  0  0
  -17.4996  -31.6255   24.5180 H   0  0  0  0  0  0
  -15.5341  -30.2992   23.7634 H   0  0  0  0  0  0
  -15.8663  -28.0828   22.7044 H   0  0  0  0  0  0
  -24.5896  -30.7076   25.7855 H   0  0  0  0  0  0
  -24.8921  -32.2898   26.4941 H   0  0  0  0  0  0
  -25.8086  -30.8916   27.0258 H   0  0  0  0  0  0
  -26.2798  -29.6862   24.1120 H   0  0  0  0  0  0
  -27.3985  -29.7254   25.4557 H   0  0  0  0  0  0
  -27.8670  -30.4384   23.9287 H   0  0  0  0  0  0
  -27.2647  -33.3629   26.2096 H   0  0  0  0  0  0
  -28.3817  -32.6914   25.0295 H   0  0  0  0  0  0
  -28.0738  -31.8454   26.5375 H   0  0  0  0  0  0
  -28.2606  -38.0092   24.7535 H   0  0  0  0  0  0
  -28.1054  -36.2625   24.6253 H   0  0  0  0  0  0
  -27.2279  -37.1430   25.8855 H   0  0  0  0  0  0
  -20.9280  -29.8741   21.6966 H   0  0  0  0  0  0
  -26.0163  -38.2899   24.1465 H   0  0  0  0  0  0
  -26.8561  -19.0459   20.5657 H   0  0  0  0  0  0
  -24.7302  -19.8965   19.6315 H   0  0  0  0  0  0
  -26.5245  -23.7322   18.9809 H   0  0  0  0  0  0
  -31.3407  -20.6554   21.2794 H   0  0  0  0  0  0
  -30.7381  -21.2159   19.6360 H   0  0  0  0  0  0
  -29.0108  -20.1772   22.0245 H   0  0  0  0  0  0
  -29.7443  -19.0608   19.1829 H   0  0  0  0  0  0
  -23.6882  -21.6351   18.0970 H   0  0  0  0  0  0
  -24.3586  -23.2638   18.0233 H   0  0  0  0  0  0
  -23.5446  -22.7137   19.4891 H   0  0  0  0  0  0
  -32.5162  -18.6379   21.1830 H   0  0  0  0  0  0
  -32.2579  -17.6320   19.7607 H   0  0  0  0  0  0
  -32.3264  -16.9099   21.3639 H   0  0  0  0  0  0
  -29.8776  -16.6150   19.3294 H   0  0  0  0  0  0
  -28.6106  -16.9173   20.4724 H   0  0  0  0  0  0
  -28.8961  -25.3269   21.5073 H   0  0  0  0  0  0
  -27.3138  -25.0789   20.8409 H   0  0  0  0  0  0
  -29.9842  -24.7108   19.3945 H   0  0  0  0  0  0
  -28.4732  -24.5067   18.5784 H   0  0  0  0  0  0
  -30.2203  -18.0580   22.0096 H   0  0  0  0  0  0
  -29.1280  -15.0982   21.6044 H   0  0  0  0  0  0
  1 25  1  0  0  0
  1 30  2  0  0  0
  1 86  1  0  0  0
  2  3  1  0  0  0
  2 25  1  0  0  0
  2 88  1  0  0  0
  2 89  1  0  0  0
  3  4  1  0  0  0
  3 90  1  0  0  0
  3 91  1  0  0  0
  4  5  1  0  0  0
  4 92  1  0  0  0
  4 93  1  0  0  0
  5  6  1  0  0  0
  5 26  1  0  0  0
  5 94  1  0  0  0
  6 25  1  0  0  0
  6 95  1  0  0  0
  6 96  1  0  0  0
  7  8  2  0  0  0
  7 26  1  0  0  0
  7 29  1  0  0  0
  8  9  1  0  0  0
  8 22  1  0  0  0
  9 10  1  0  0  0
  9 27  2  0  0  0
 10 11  2  0  0  0
 10 15  1  0  0  0
 11 12  1  0  0  0
 11 97  1  0  0  0
 12 13  2  0  0  0
 12 98  1  0  0  0
 13 14  1  0  0  0
 13 31  1  0  0  0
 14 15  2  0  0  0
 14 99  1  0  0  0
 15100  1  0  0  0
 16 17  2  0  0  0
 16 21  1  0  0  0
 16 31  1  0  0  0
 17 18  1  0  0  0
 17101  1  0  0  0
 18 19  2  0  0  0
 18102  1  0  0  0
 19 20  1  0  0  0
 19 24  1  0  0  0
 20 21  2  0  0  0
 20103  1  0  0  0
 21 23  1  0  0  0
 22 28  1  0  0  0
 22 32  2  0  0  0
 26 27  1  0  0  0
 28104  1  0  0  0
 28105  1  0  0  0
 29106  1  0  0  0
 29107  1  0  0  0
 33 34  1  0  0  0
 33 66  1  0  0  0
 33 70  2  0  0  0
 34 36  1  0  0  0
 34 59  1  0  0  0
 34108  1  0  0  0
 35 44  2  0  0  0
 35 45  1  0  0  0
 35 68  1  0  0  0
 36 56  1  0  0  0
 36109  1  0  0  0
 37 39  1  0  0  0
 37 47  1  0  0  0
 37 66  1  0  0  0
 37110  1  0  0  0
 38 43  2  0  0  0
 38 46  1  0  0  0
 38 47  1  0  0  0
 39 64  1  0  0  0
 39 67  2  0  0  0
 40 52  1  0  0  0
 40 53  2  0  0  0
 40 58  1  0  0  0
 41111  1  0  0  0
 41112  1  0  0  0
 41113  1  0  0  0
 41 48  1  0  0  0
 42 43  1  0  0  0
 42 66  1  0  0  0
 42114  1  0  0  0
 42115  1  0  0  0
 43 44  1  0  0  0
 44116  1  0  0  0
 45 46  2  0  0  0
 45117  1  0  0  0
 46118  1  0  0  0
 47119  1  0  0  0
 47120  1  0  0  0
 48 56  1  0  0  0
 48 65  1  0  0  0
 48121  1  0  0  0
 49 50  1  0  0  0
 49 53  1  0  0  0
 49 64  1  0  0  0
 49122  1  0  0  0
 50 51  1  0  0  0
 50123  1  0  0  0
 50124  1  0  0  0
 51 52  1  0  0  0
 51125  1  0  0  0
 51126  1  0  0  0
 52127  1  0  0  0
 52128  1  0  0  0
 53 54  1  0  0  0
 54 55  2  0  0  0
 54129  1  0  0  0
 55 57  1  0  0  0
 55130  1  0  0  0
 56 69  2  0  0  0
 57 58  2  0  0  0
 57131  1  0  0  0
 58132  1  0  0  0
 59 60  1  0  0  0
 59 61  1  0  0  0
 59 62  1  0  0  0
 60133  1  0  0  0
 60134  1  0  0  0
 60135  1  0  0  0
 61136  1  0  0  0
 61137  1  0  0  0
 61138  1  0  0  0
 62139  1  0  0  0
 62140  1  0  0  0
 62141  1  0  0  0
 63 65  1  0  0  0
 63142  1  0  0  0
 63143  1  0  0  0
 63144  1  0  0  0
 64145  1  0  0  0
 65146  1  0  0  0
 68 83  1  0  0  0
 71 72  2  0  0  0
 71 74  1  0  0  0
 71147  1  0  0  0
 72 75  1  0  0  0
 72148  1  0  0  0
 73 75  2  0  0  0
 73 76  1  0  0  0
 73149  1  0  0  0
 74 76  2  0  0  0
 74 78  1  0  0  0
 75 80  1  0  0  0
 76 87  1  0  0  0
 77 78  1  0  0  0
 77150  1  0  0  0
 77151  1  0  0  0
 77 79  1  0  0  0
 78 79  1  0  0  0
 78152  1  0  0  0
 79 85  1  0  0  0
 79153  1  0  0  0
 80154  1  0  0  0
 80155  1  0  0  0
 80156  1  0  0  0
 81157  1  0  0  0
 81158  1  0  0  0
 81159  1  0  0  0
 81 85  1  0  0  0
 82 85  1  0  0  0
 82 86  1  0  0  0
 82160  1  0  0  0
 82161  1  0  0  0
 83 84  1  0  0  0
 83162  1  0  0  0
 83163  1  0  0  0
 84 87  1  0  0  0
 84164  1  0  0  0
 84165  1  0  0  0
 85166  1  0  0  0
 86167  1  0  0  0
M  ISO  4   1 100  68 101  83 101  86 100
M  END
> <chiral flag>
0

> <version>
0

> <s_m_source_file>
/data/baiqing/PycharmProjects/Reinvent-master-3.2/result/LINK_invent/BTK/process_docking_weight1_custom_sum_contain_oxygen_bond_distance_aromatic_linkinvent_7_9_3/rearranged_h_0142.sdf

> <i_m_source_file_index>
51

> <r_mmod_Potential_Energy-OPLS-2005>
-4.69181251525879

> <r_mmod_Stretch_Energy-OPLS-2005>
36.7242240905762

> <r_mmod_Bend_Energy-OPLS-2005>
106.26602935791

> <r_mmod_Torsional_Energy-OPLS-2005>
279.7470703125

> <r_mmod_Improper_Torsional_Energy-OPLS-2005>
7.9367413520813

> <r_mmod_Van_der_Waal_Energy-OPLS-2005>
147.850494384766

> <r_mmod_Electrostatic_Energy-OPLS-2005>
-385.993194580078

> <r_mmod_Solvation_Energy-OPLS-2005>
-208.014419555664

> <b_mmod_Minimization_Converged-OPLS-2005>
0

> <r_mmod_RMS_Derivative-OPLS-2005>
2.19492554664612

$$$$
52
                    3D
 Structure written by MMmdl.
165176  0  0  1  0            999 V2000
  -30.6601  -14.8360   20.5179 C   0  0  0  0  0  0
  -30.4343  -12.5255   19.5051 C   0  0  0  0  0  0
  -29.5211  -12.5498   18.2584 C   0  0  0  0  0  0
  -28.0498  -12.3526   18.6652 C   0  0  0  0  0  0
  -27.6459  -13.2582   19.8583 C   0  0  2  0  0  0
  -28.6895  -13.2377   20.9993 C   0  0  0  0  0  0
  -25.2495  -13.8259   20.5771 C   0  0  0  0  0  0
  -24.1794  -13.0462   20.9266 C   0  0  0  0  0  0
  -24.6413  -11.6961   20.8755 C   0  0  0  0  0  0
  -23.9079  -10.4309   21.0388 C   0  0  0  0  0  0
  -24.3603   -9.4235   21.9185 C   0  0  0  0  0  0
  -23.6282   -8.2254   22.0752 C   0  0  0  0  0  0
  -22.4267   -8.0293   21.3540 C   0  0  0  0  0  0
  -21.9912   -9.0251   20.4634 C   0  0  0  0  0  0
  -22.7248  -10.2137   20.3038 C   0  0  0  0  0  0
  -21.6854   -6.0744   22.5287 C   0  0  0  0  0  0
  -21.4013   -6.5627   23.8236 C   0  0  0  0  0  0
  -21.3661   -5.6771   24.9183 C   0  0  0  0  0  0
  -21.6040   -4.3033   24.7220 C   0  0  0  0  0  0
  -21.8827   -3.8145   23.4335 C   0  0  0  0  0  0
  -21.9186   -4.6968   22.3403 C   0  0  0  0  0  0
  -22.7806  -13.5226   21.1869 C   0  0  0  0  0  0
  -22.1659   -4.2164   21.0979 F   0  0  0  0  0  0
  -21.5619   -3.4510   25.7716 F   0  0  0  0  0  0
  -30.0041  -13.6059   20.4408 N   0  0  0  0  0  0
  -26.2967  -12.9529   20.3363 N   0  0  0  0  0  0
  -25.9368  -11.6634   20.5779 N   0  0  0  0  0  0
  -22.0412  -12.8247   22.0422 N   0  0  0  0  0  0
  -25.4083  -15.1986   20.4222 N   0  0  0  0  0  0
  -31.7210  -14.9656   19.9008 O   0  0  0  0  0  0
  -21.6642   -6.8873   21.4247 O   0  0  0  0  0  0
  -22.3502  -14.5522   20.6668 O   0  0  0  0  0  0
  -24.6424  -31.8452   23.1937 C   0  0  0  0  0  0
  -25.9211  -32.4693   23.8313 C   0  0  1  0  0  0
  -27.2252  -27.1657   20.1200 C   0  0  0  0  0  0
  -25.5994  -33.8504   24.2255 N   0  0  0  0  0  0
  -23.4437  -30.4677   21.5411 C   0  0  2  0  0  0
  -24.8936  -28.9088   20.1085 C   0  0  0  0  0  0
  -22.7557  -29.4543   22.4891 C   0  0  0  0  0  0
  -18.0300  -28.1378   22.8473 C   0  0  0  0  0  0
  -24.1510  -36.7232   23.2631 C   0  0  0  0  0  0
  -25.9992  -30.7267   21.3902 C   0  0  0  0  0  0
  -26.0710  -29.3415   20.7295 C   0  0  0  0  0  0
  -27.2345  -28.4824   20.7292 C   0  0  0  0  0  0
  -26.0201  -26.8484   19.4453 C   0  0  0  0  0  0
  -24.8794  -27.6724   19.4545 C   0  0  0  0  0  0
  -23.6659  -29.8022   20.1588 C   0  0  0  0  0  0
  -25.4128  -36.3016   24.0327 C   0  0  1  0  0  0
  -20.5913  -28.3686   23.1250 C   0  0  2  0  0  0
  -20.6786  -26.9398   22.5396 C   0  0  0  0  0  0
  -19.5767  -26.6373   21.5197 C   0  0  0  0  0  0
  -18.1941  -26.7925   22.1597 C   0  0  0  0  0  0
  -19.1553  -28.8854   23.2854 C   0  0  0  0  0  0
  -18.9462  -30.1458   23.8869 C   0  0  0  0  0  0
  -17.6456  -30.6579   24.0539 C   0  0  0  0  0  0
  -25.9075  -34.9396   23.5091 C   0  0  0  0  0  0
  -16.5353  -29.9054   23.6343 C   0  0  0  0  0  0
  -16.7281  -28.6472   23.0371 C   0  0  0  0  0  0
  -26.4576  -31.6513   25.0709 C   0  0  0  0  0  0
  -25.3797  -31.3627   26.1413 C   0  0  0  0  0  0
  -27.0416  -30.2913   24.6232 C   0  0  0  0  0  0
  -27.6139  -32.4233   25.7476 C   0  0  0  0  0  0
  -27.5604  -37.1742   24.8447 C   0  0  0  0  0  0
  -21.4246  -29.3024   22.3635 N   0  0  0  0  0  0
  -26.4281  -37.3738   23.9443 N   0  0  0  0  0  0
  -24.7150  -31.0316   22.0968 N   0  0  0  0  0  0
  -23.4197  -28.8071   23.3030 O   0  0  0  0  0  0
  -28.2720  -26.1729   20.1963 O   0  0  0  0  0  0
  -26.5625  -34.8888   22.4644 O   0  0  0  0  0  0
  -23.5550  -32.1343   23.7167 O   0  0  0  0  0  0
  -28.3790  -20.7641   20.3509 C   0  0  0  0  0  0
  -27.8796  -22.1093   20.1909 C   0  0  0  0  0  0
  -30.0752  -22.9613   20.1682 C   0  0  0  0  0  0
  -29.7600  -20.4199   20.4562 C   0  0  0  0  0  0
  -30.5942  -21.6057   20.3465 C   0  0  0  0  0  0
  -28.6845  -23.2941   20.1057 C   0  0  0  0  0  0
  -33.0589  -22.2838   19.6344 C   0  0  0  0  0  0
  -32.9198  -20.8013   19.3899 C   0  0  0  0  0  0
  -31.3913  -15.7805   23.5060 C   0  0  0  0  0  0
  -30.6009  -14.5017   23.4620 C   0  0  0  0  0  0
  -29.5814  -18.3429   21.9738 C   0  0  0  0  0  0
  -30.2965  -18.9019   20.7951 C   0  0  1  0  0  0
  -32.0913  -21.4642   20.4681 C   0  0  0  0  0  0
  -30.0932  -15.7348   22.7162 C   0  0  0  0  0  0
  -29.6836  -17.3442   20.8180 C   0  0  1  0  0  0
  -27.9682  -24.7279   19.7495 C   0  0  0  0  0  0
  -30.1730  -15.9237   21.2728 N   0  0  0  0  0  0
  -31.4794  -12.6256   19.2073 H   0  0  0  0  0  0
  -30.3726  -11.5546   19.9998 H   0  0  0  0  0  0
  -29.8208  -11.7733   17.5523 H   0  0  0  0  0  0
  -29.6422  -13.5000   17.7381 H   0  0  0  0  0  0
  -27.9206  -11.3056   18.9409 H   0  0  0  0  0  0
  -27.3878  -12.5232   17.8138 H   0  0  0  0  0  0
  -27.6261  -14.2771   19.4686 H   0  0  0  0  0  0
  -28.7381  -12.2576   21.4744 H   0  0  0  0  0  0
  -28.3826  -13.9375   21.7758 H   0  0  0  0  0  0
  -25.2720   -9.5720   22.4806 H   0  0  0  0  0  0
  -23.9972   -7.4613   22.7440 H   0  0  0  0  0  0
  -21.0876   -8.8769   19.8895 H   0  0  0  0  0  0
  -22.3707  -10.9657   19.6142 H   0  0  0  0  0  0
  -21.2033   -7.6138   23.9775 H   0  0  0  0  0  0
  -21.1473   -6.0476   25.9095 H   0  0  0  0  0  0
  -22.0608   -2.7609   23.2830 H   0  0  0  0  0  0
  -22.3958  -11.9938   22.4907 H   0  0  0  0  0  0
  -21.1002  -13.1264   22.2497 H   0  0  0  0  0  0
  -24.6290  -15.8398   20.5354 H   0  0  0  0  0  0
  -26.2624  -15.6553   20.1290 H   0  0  0  0  0  0
  -26.7261  -32.5320   23.1026 H   0  0  0  0  0  0
  -25.0202  -33.9650   25.0446 H   0  0  0  0  0  0
  -22.7462  -31.2939   21.3897 H   0  0  0  0  0  0
  -23.3815  -35.9509   23.3186 H   0  0  0  0  0  0
  -24.3643  -36.8959   22.2068 H   0  0  0  0  0  0
  -23.7202  -37.6375   23.6725 H   0  0  0  0  0  0
  -26.1499  -31.4846   20.6200 H   0  0  0  0  0  0
  -26.8721  -30.7779   22.0283 H   0  0  0  0  0  0
  -28.1261  -28.8052   21.2486 H   0  0  0  0  0  0
  -25.9054  -25.9235   18.9031 H   0  0  0  0  0  0
  -23.9837  -27.3403   18.9468 H   0  0  0  0  0  0
  -23.7876  -30.5792   19.4035 H   0  0  0  0  0  0
  -22.7842  -29.2359   19.8512 H   0  0  0  0  0  0
  -25.1299  -36.1834   25.0813 H   0  0  0  0  0  0
  -21.0002  -28.3249   24.1365 H   0  0  0  0  0  0
  -20.5679  -26.2283   23.3595 H   0  0  0  0  0  0
  -21.6649  -26.7398   22.1184 H   0  0  0  0  0  0
  -19.6925  -25.6273   21.1242 H   0  0  0  0  0  0
  -19.6736  -27.3170   20.6719 H   0  0  0  0  0  0
  -17.4221  -26.6693   21.3990 H   0  0  0  0  0  0
  -18.0321  -26.0054   22.8977 H   0  0  0  0  0  0
  -19.7934  -30.7285   24.2228 H   0  0  0  0  0  0
  -17.5002  -31.6274   24.5100 H   0  0  0  0  0  0
  -15.5349  -30.2933   23.7695 H   0  0  0  0  0  0
  -15.8679  -28.0771   22.7116 H   0  0  0  0  0  0
  -24.6068  -30.6862   25.7744 H   0  0  0  0  0  0
  -24.8883  -32.2751   26.4791 H   0  0  0  0  0  0
  -25.8146  -30.8874   27.0213 H   0  0  0  0  0  0
  -26.2991  -29.6640   24.1277 H   0  0  0  0  0  0
  -27.4087  -29.7195   25.4768 H   0  0  0  0  0  0
  -27.8898  -30.4159   23.9494 H   0  0  0  0  0  0
  -27.2811  -33.3598   26.1963 H   0  0  0  0  0  0
  -28.4008  -32.6651   25.0316 H   0  0  0  0  0  0
  -28.0735  -31.8381   26.5455 H   0  0  0  0  0  0
  -28.2476  -38.0177   24.7652 H   0  0  0  0  0  0
  -28.1250  -36.2709   24.6068 H   0  0  0  0  0  0
  -27.2349  -37.1104   25.8847 H   0  0  0  0  0  0
  -20.9440  -29.8757   21.6835 H   0  0  0  0  0  0
  -26.0142  -38.2781   24.1533 H   0  0  0  0  0  0
  -27.6612  -19.9592   20.4147 H   0  0  0  0  0  0
  -26.8067  -22.2195   20.1116 H   0  0  0  0  0  0
  -30.7790  -23.7770   20.0664 H   0  0  0  0  0  0
  -32.6654  -22.9441   18.8641 H   0  0  0  0  0  0
  -33.9779  -22.6240   20.1108 H   0  0  0  0  0  0
  -33.7495  -20.1686   19.7026 H   0  0  0  0  0  0
  -32.4185  -20.4948   18.4732 H   0  0  0  0  0  0
  -32.3315  -15.7895   22.9557 H   0  0  0  0  0  0
  -31.4052  -16.3199   24.4502 H   0  0  0  0  0  0
  -30.0471  -14.2246   24.3578 H   0  0  0  0  0  0
  -31.0643  -13.6643   22.9431 H   0  0  0  0  0  0
  -28.5732  -18.6902   22.1958 H   0  0  0  0  0  0
  -30.2260  -18.2993   22.8532 H   0  0  0  0  0  0
  -31.3849  -18.9193   20.8238 H   0  0  0  0  0  0
  -32.3731  -21.2853   21.5043 H   0  0  0  0  0  0
  -29.2127  -16.1546   23.2004 H   0  0  0  0  0  0
  -28.8178  -17.2705   20.1604 H   0  0  0  0  0  0
  -26.9470  -24.5278   20.0736 H   0  0  0  0  0  0
  -27.9363  -24.7573   18.6586 H   0  0  0  0  0  0
  1 25  1  0  0  0
  1 30  2  0  0  0
  1 87  1  0  0  0
  2  3  1  0  0  0
  2 25  1  0  0  0
  2 88  1  0  0  0
  2 89  1  0  0  0
  3  4  1  0  0  0
  3 90  1  0  0  0
  3 91  1  0  0  0
  4  5  1  0  0  0
  4 92  1  0  0  0
  4 93  1  0  0  0
  5  6  1  0  0  0
  5 26  1  0  0  0
  5 94  1  0  0  0
  6 25  1  0  0  0
  6 95  1  0  0  0
  6 96  1  0  0  0
  7  8  2  0  0  0
  7 26  1  0  0  0
  7 29  1  0  0  0
  8  9  1  0  0  0
  8 22  1  0  0  0
  9 10  1  0  0  0
  9 27  2  0  0  0
 10 11  2  0  0  0
 10 15  1  0  0  0
 11 12  1  0  0  0
 11 97  1  0  0  0
 12 13  2  0  0  0
 12 98  1  0  0  0
 13 14  1  0  0  0
 13 31  1  0  0  0
 14 15  2  0  0  0
 14 99  1  0  0  0
 15100  1  0  0  0
 16 17  2  0  0  0
 16 21  1  0  0  0
 16 31  1  0  0  0
 17 18  1  0  0  0
 17101  1  0  0  0
 18 19  2  0  0  0
 18102  1  0  0  0
 19 20  1  0  0  0
 19 24  1  0  0  0
 20 21  2  0  0  0
 20103  1  0  0  0
 21 23  1  0  0  0
 22 28  1  0  0  0
 22 32  2  0  0  0
 26 27  1  0  0  0
 28104  1  0  0  0
 28105  1  0  0  0
 29106  1  0  0  0
 29107  1  0  0  0
 33 34  1  0  0  0
 33 66  1  0  0  0
 33 70  2  0  0  0
 34 36  1  0  0  0
 34 59  1  0  0  0
 34108  1  0  0  0
 35 44  2  0  0  0
 35 45  1  0  0  0
 35 68  1  0  0  0
 36 56  1  0  0  0
 36109  1  0  0  0
 37 39  1  0  0  0
 37 47  1  0  0  0
 37 66  1  0  0  0
 37110  1  0  0  0
 38 43  2  0  0  0
 38 46  1  0  0  0
 38 47  1  0  0  0
 39 64  1  0  0  0
 39 67  2  0  0  0
 40 52  1  0  0  0
 40 53  2  0  0  0
 40 58  1  0  0  0
 41111  1  0  0  0
 41112  1  0  0  0
 41113  1  0  0  0
 41 48  1  0  0  0
 42 43  1  0  0  0
 42 66  1  0  0  0
 42114  1  0  0  0
 42115  1  0  0  0
 43 44  1  0  0  0
 44116  1  0  0  0
 45 46  2  0  0  0
 45117  1  0  0  0
 46118  1  0  0  0
 47119  1  0  0  0
 47120  1  0  0  0
 48 56  1  0  0  0
 48 65  1  0  0  0
 48121  1  0  0  0
 49 50  1  0  0  0
 49 53  1  0  0  0
 49 64  1  0  0  0
 49122  1  0  0  0
 50 51  1  0  0  0
 50123  1  0  0  0
 50124  1  0  0  0
 51 52  1  0  0  0
 51125  1  0  0  0
 51126  1  0  0  0
 52127  1  0  0  0
 52128  1  0  0  0
 53 54  1  0  0  0
 54 55  2  0  0  0
 54129  1  0  0  0
 55 57  1  0  0  0
 55130  1  0  0  0
 56 69  2  0  0  0
 57 58  2  0  0  0
 57131  1  0  0  0
 58132  1  0  0  0
 59 60  1  0  0  0
 59 61  1  0  0  0
 59 62  1  0  0  0
 60133  1  0  0  0
 60134  1  0  0  0
 60135  1  0  0  0
 61136  1  0  0  0
 61137  1  0  0  0
 61138  1  0  0  0
 62139  1  0  0  0
 62140  1  0  0  0
 62141  1  0  0  0
 63 65  1  0  0  0
 63142  1  0  0  0
 63143  1  0  0  0
 63144  1  0  0  0
 64145  1  0  0  0
 65146  1  0  0  0
 68 86  1  0  0  0
 71 72  2  0  0  0
 71 74  1  0  0  0
 71147  1  0  0  0
 72 76  1  0  0  0
 72148  1  0  0  0
 73 75  1  0  0  0
 73 76  2  0  0  0
 73149  1  0  0  0
 74 75  2  0  0  0
 74 82  1  0  0  0
 75 83  1  0  0  0
 76 86  1  0  0  0
 77 78  1  0  0  0
 77 83  1  0  0  0
 77150  1  0  0  0
 77151  1  0  0  0
 78 83  1  0  0  0
 78152  1  0  0  0
 78153  1  0  0  0
 79 80  1  0  0  0
 79 84  1  0  0  0
 79154  1  0  0  0
 79155  1  0  0  0
 80 84  1  0  0  0
 80156  1  0  0  0
 80157  1  0  0  0
 81 82  1  0  0  0
 81 85  1  0  0  0
 81158  1  0  0  0
 81159  1  0  0  0
 82 85  1  0  0  0
 82160  1  0  0  0
 83161  1  0  0  0
 84 87  1  0  0  0
 84162  1  0  0  0
 85 87  1  0  0  0
 85163  1  0  0  0
 86164  1  0  0  0
 86165  1  0  0  0
M  ISO  4   1 100  68 101  86 101  87 100
M  END
> <chiral flag>
0

> <version>
0

> <s_m_source_file>
/data/baiqing/PycharmProjects/Reinvent-master-3.2/result/LINK_invent/BTK/process_docking_weight1_custom_sum_contain_oxygen_bond_distance_aromatic_linkinvent_7_9_3/rearranged_h_0142.sdf

> <i_m_source_file_index>
52

> <r_mmod_Potential_Energy-OPLS-2005>
832.903991699219

> <r_mmod_Stretch_Energy-OPLS-2005>
237.64208984375

> <r_mmod_Bend_Energy-OPLS-2005>
296.526123046875

> <r_mmod_Torsional_Energy-OPLS-2005>
479.822418212891

> <r_mmod_Improper_Torsional_Energy-OPLS-2005>
3.27431416511536

> <r_mmod_Van_der_Waal_Energy-OPLS-2005>
152.228652954102

> <r_mmod_Electrostatic_Energy-OPLS-2005>
-294.070831298828

> <r_mmod_Solvation_Energy-OPLS-2005>
-189.413803100586

> <b_mmod_Minimization_Converged-OPLS-2005>
0

> <r_mmod_RMS_Derivative-OPLS-2005>
3.76176619529724

$$$$
53
                    3D
 Structure written by MMmdl.
167175  0  0  1  0            999 V2000
  -30.7737  -14.4451   20.6061 C   0  0  0  0  0  0
  -30.4108  -12.3087   19.4195 C   0  0  0  0  0  0
  -29.4785  -12.4693   18.2046 C   0  0  0  0  0  0
  -28.0113  -12.2935   18.6299 C   0  0  0  0  0  0
  -27.6464  -13.1772   19.8457 C   0  0  2  0  0  0
  -28.6931  -13.0390   20.9795 C   0  0  0  0  0  0
  -25.2587  -13.8088   20.5660 C   0  0  0  0  0  0
  -24.1824  -13.0415   20.9203 C   0  0  0  0  0  0
  -24.6340  -11.6866   20.8767 C   0  0  0  0  0  0
  -23.9007  -10.4272   21.0434 C   0  0  0  0  0  0
  -24.3578   -9.4187   21.9199 C   0  0  0  0  0  0
  -23.6267   -8.2218   22.0755 C   0  0  0  0  0  0
  -22.4250   -8.0258   21.3542 C   0  0  0  0  0  0
  -21.9875   -9.0232   20.4648 C   0  0  0  0  0  0
  -22.7191  -10.2118   20.3069 C   0  0  0  0  0  0
  -21.6842   -6.0719   22.5278 C   0  0  0  0  0  0
  -21.4005   -6.5627   23.8210 C   0  0  0  0  0  0
  -21.3659   -5.6785   24.9174 C   0  0  0  0  0  0
  -21.6047   -4.3048   24.7229 C   0  0  0  0  0  0
  -21.8820   -3.8134   23.4352 C   0  0  0  0  0  0
  -21.9190   -4.6948   22.3404 C   0  0  0  0  0  0
  -22.7856  -13.5243   21.1868 C   0  0  0  0  0  0
  -22.1660   -4.2134   21.0983 F   0  0  0  0  0  0
  -21.5634   -3.4534   25.7744 F   0  0  0  0  0  0
  -30.0291  -13.3166   20.4244 N   0  0  0  0  0  0
  -26.2945  -12.9181   20.3252 N   0  0  0  0  0  0
  -25.9242  -11.6387   20.5763 N   0  0  0  0  0  0
  -22.0481  -12.8247   22.0418 N   0  0  0  0  0  0
  -25.4369  -15.1804   20.4051 N   0  0  0  0  0  0
  -31.9026  -14.5701   20.1218 O   0  0  0  0  0  0
  -21.6623   -6.8854   21.4235 O   0  0  0  0  0  0
  -22.3562  -14.5558   20.6712 O   0  0  0  0  0  0
  -24.6086  -31.8708   23.2117 C   0  0  0  0  0  0
  -25.8994  -32.4843   23.8400 C   0  0  1  0  0  0
  -27.2528  -27.4704   20.1090 C   0  0  0  0  0  0
  -25.5861  -33.8632   24.2340 N   0  0  0  0  0  0
  -23.3957  -30.4917   21.5520 C   0  0  2  0  0  0
  -24.8465  -28.9572   20.1211 C   0  0  0  0  0  0
  -22.7384  -29.4663   22.5025 C   0  0  0  0  0  0
  -18.0262  -28.1361   22.8493 C   0  0  0  0  0  0
  -24.1481  -36.7324   23.2644 C   0  0  0  0  0  0
  -25.9163  -30.8509   21.3560 C   0  0  0  0  0  0
  -25.9994  -29.4826   20.7169 C   0  0  0  0  0  0
  -27.2032  -28.7497   20.7111 C   0  0  0  0  0  0
  -26.0876  -26.9590   19.5016 C   0  0  0  0  0  0
  -24.8834  -27.6906   19.5110 C   0  0  0  0  0  0
  -23.6026  -29.8164   20.1685 C   0  0  0  0  0  0
  -25.4094  -36.3125   24.0357 C   0  0  1  0  0  0
  -20.5851  -28.3631   23.1339 C   0  0  2  0  0  0
  -20.6743  -26.9368   22.5431 C   0  0  0  0  0  0
  -19.5722  -26.6363   21.5225 C   0  0  0  0  0  0
  -18.1901  -26.7906   22.1633 C   0  0  0  0  0  0
  -19.1512  -28.8813   23.2912 C   0  0  0  0  0  0
  -18.9450  -30.1422   23.8914 C   0  0  0  0  0  0
  -17.6456  -30.6575   24.0559 C   0  0  0  0  0  0
  -25.9017  -34.9488   23.5151 C   0  0  0  0  0  0
  -16.5342  -29.9074   23.6331 C   0  0  0  0  0  0
  -16.7255  -28.6492   23.0348 C   0  0  0  0  0  0
  -26.4431  -31.6609   25.0709 C   0  0  0  0  0  0
  -25.3711  -31.3733   26.1479 C   0  0  0  0  0  0
  -27.0240  -30.3058   24.6032 C   0  0  0  0  0  0
  -27.6020  -32.4314   25.7455 C   0  0  0  0  0  0
  -27.5591  -37.1795   24.8455 C   0  0  0  0  0  0
  -21.4121  -29.3010   22.3761 N   0  0  0  0  0  0
  -26.4285  -37.3805   23.9429 N   0  0  0  0  0  0
  -24.6583  -31.0842   22.0998 N   0  0  0  0  0  0
  -23.4182  -28.8221   23.3058 O   0  0  0  0  0  0
  -28.3977  -26.7097   20.0218 O   0  0  0  0  0  0
  -26.5587  -34.8939   22.4716 O   0  0  0  0  0  0
  -23.5294  -32.1432   23.7548 O   0  0  0  0  0  0
  -30.3535  -19.8286   18.6033 C   0  0  0  0  0  0
  -30.5350  -18.5473   18.0591 C   0  0  0  0  0  0
  -29.4839  -18.8350   20.6396 C   0  0  0  0  0  0
  -29.6550  -17.5385   20.0996 C   0  0  0  0  0  0
  -29.7922  -19.9910   19.8911 C   0  0  0  0  0  0
  -30.1609  -17.3898   18.7824 C   0  0  0  0  0  0
  -31.1626  -16.0644   22.3676 C   0  0  0  0  0  0
  -30.9317  -15.9600   17.0093 C   0  0  0  0  0  0
  -29.2068  -16.3264   20.9243 C   0  0  0  0  0  0
  -29.0494  -25.3539   21.9514 C   0  0  0  0  0  0
  -28.7885  -23.5468   20.2347 C   0  0  0  0  0  0
  -29.2811  -26.6507   21.1460 C   0  0  0  0  0  0
  -29.4690  -22.3441   19.5635 C   0  0  0  0  0  0
  -30.2694  -15.4201   21.4002 N   0  0  0  0  0  0
  -29.6175  -24.1371   21.3125 N   0  3  0  0  0  0
  -30.2385  -16.1237   18.2430 O   0  0  0  0  0  0
  -29.5105  -21.2226   20.4496 O   0  0  0  0  0  0
  -31.4520  -12.3938   19.1040 H   0  0  0  0  0  0
  -30.3143  -11.3082   19.8442 H   0  0  0  0  0  0
  -29.7327  -11.7388   17.4356 H   0  0  0  0  0  0
  -29.6110  -13.4512   17.7539 H   0  0  0  0  0  0
  -27.8614  -11.2419   18.8784 H   0  0  0  0  0  0
  -27.3452  -12.5065   17.7928 H   0  0  0  0  0  0
  -27.6475  -14.1836   19.4448 H   0  0  0  0  0  0
  -28.6759  -12.0278   21.3881 H   0  0  0  0  0  0
  -28.4414  -13.6935   21.8147 H   0  0  0  0  0  0
  -25.2725   -9.5666   22.4769 H   0  0  0  0  0  0
  -23.9981   -7.4604   22.7465 H   0  0  0  0  0  0
  -21.0809   -8.8745   19.8953 H   0  0  0  0  0  0
  -22.3651  -10.9658   19.6179 H   0  0  0  0  0  0
  -21.1988   -7.6135   23.9708 H   0  0  0  0  0  0
  -21.1485   -6.0516   25.9079 H   0  0  0  0  0  0
  -22.0601   -2.7596   23.2857 H   0  0  0  0  0  0
  -22.4066  -11.9891   22.4802 H   0  0  0  0  0  0
  -21.1106  -13.1294   22.2624 H   0  0  0  0  0  0
  -24.6733  -15.8388   20.5138 H   0  0  0  0  0  0
  -26.2844  -15.6120   20.0613 H   0  0  0  0  0  0
  -26.7075  -32.5583   23.1186 H   0  0  0  0  0  0
  -24.9971  -33.9776   25.0459 H   0  0  0  0  0  0
  -22.6841  -31.3081   21.4127 H   0  0  0  0  0  0
  -23.3746  -35.9651   23.3284 H   0  0  0  0  0  0
  -24.3604  -36.8947   22.2065 H   0  0  0  0  0  0
  -23.7213  -37.6524   23.6651 H   0  0  0  0  0  0
  -26.0133  -31.6129   20.5811 H   0  0  0  0  0  0
  -26.8087  -30.9174   21.9660 H   0  0  0  0  0  0
  -28.0861  -29.1957   21.1439 H   0  0  0  0  0  0
  -26.1142  -25.9911   19.0211 H   0  0  0  0  0  0
  -23.9996  -27.2783   19.0442 H   0  0  0  0  0  0
  -23.7034  -30.5863   19.4029 H   0  0  0  0  0  0
  -22.7301  -29.2280   19.8790 H   0  0  0  0  0  0
  -25.1264  -36.2001   25.0851 H   0  0  0  0  0  0
  -20.9940  -28.3178   24.1461 H   0  0  0  0  0  0
  -20.5635  -26.2235   23.3607 H   0  0  0  0  0  0
  -21.6614  -26.7394   22.1233 H   0  0  0  0  0  0
  -19.6877  -25.6284   21.1223 H   0  0  0  0  0  0
  -19.6669  -27.3199   20.6777 H   0  0  0  0  0  0
  -17.4175  -26.6662   21.4028 H   0  0  0  0  0  0
  -18.0290  -26.0045   22.9024 H   0  0  0  0  0  0
  -19.7932  -30.7224   24.2293 H   0  0  0  0  0  0
  -17.5018  -31.6266   24.5135 H   0  0  0  0  0  0
  -15.5342  -30.2979   23.7655 H   0  0  0  0  0  0
  -15.8653  -28.0819   22.7054 H   0  0  0  0  0  0
  -24.5843  -30.7121   25.7828 H   0  0  0  0  0  0
  -24.8946  -32.2905   26.4948 H   0  0  0  0  0  0
  -25.8064  -30.8878   27.0220 H   0  0  0  0  0  0
  -26.2757  -29.6851   24.1082 H   0  0  0  0  0  0
  -27.4033  -29.7260   25.4454 H   0  0  0  0  0  0
  -27.8579  -30.4402   23.9139 H   0  0  0  0  0  0
  -27.2643  -33.3598   26.2071 H   0  0  0  0  0  0
  -28.3793  -32.6901   25.0256 H   0  0  0  0  0  0
  -28.0712  -31.8411   26.5334 H   0  0  0  0  0  0
  -28.2574  -38.0130   24.7572 H   0  0  0  0  0  0
  -28.1127  -36.2669   24.6182 H   0  0  0  0  0  0
  -27.2334  -37.1331   25.8863 H   0  0  0  0  0  0
  -20.9279  -29.8741   21.6993 H   0  0  0  0  0  0
  -26.0188  -38.2882   24.1463 H   0  0  0  0  0  0
  -30.6376  -20.6716   17.9913 H   0  0  0  0  0  0
  -30.9385  -18.4879   17.0595 H   0  0  0  0  0  0
  -29.0658  -18.9488   21.6299 H   0  0  0  0  0  0
  -30.6089  -16.6822   23.0757 H   0  0  0  0  0  0
  -31.8899  -16.7021   21.8621 H   0  0  0  0  0  0
  -31.7121  -15.3196   22.9454 H   0  0  0  0  0  0
  -31.0437  -14.9014   16.7793 H   0  0  0  0  0  0
  -31.9374  -16.3799   17.0541 H   0  0  0  0  0  0
  -30.3850  -16.4171   16.1838 H   0  0  0  0  0  0
  -28.4925  -15.8000   20.3095 H   0  0  0  0  0  0
  -28.6258  -16.6579   21.7857 H   0  0  0  0  0  0
  -29.5572  -25.4678   22.9098 H   0  0  0  0  0  0
  -27.9927  -25.2173   22.1831 H   0  0  0  0  0  0
  -27.8130  -23.2552   20.6250 H   0  0  0  0  0  0
  -28.6066  -24.2976   19.4667 H   0  0  0  0  0  0
  -30.3085  -26.6948   20.7827 H   0  0  0  0  0  0
  -29.1748  -27.4992   21.8195 H   0  0  0  0  0  0
  -30.4740  -22.6109   19.2321 H   0  0  0  0  0  0
  -28.8880  -22.0896   18.6750 H   0  0  0  0  0  0
  -29.7254  -23.4285   22.0242 H   0  0  0  0  0  0
  -30.5439  -24.3406   20.9670 H   0  0  0  0  0  0
  1 25  1  0  0  0
  1 30  2  0  0  0
  1 84  1  0  0  0
  2  3  1  0  0  0
  2 25  1  0  0  0
  2 88  1  0  0  0
  2 89  1  0  0  0
  3  4  1  0  0  0
  3 90  1  0  0  0
  3 91  1  0  0  0
  4  5  1  0  0  0
  4 92  1  0  0  0
  4 93  1  0  0  0
  5  6  1  0  0  0
  5 26  1  0  0  0
  5 94  1  0  0  0
  6 25  1  0  0  0
  6 95  1  0  0  0
  6 96  1  0  0  0
  7  8  2  0  0  0
  7 26  1  0  0  0
  7 29  1  0  0  0
  8  9  1  0  0  0
  8 22  1  0  0  0
  9 10  1  0  0  0
  9 27  2  0  0  0
 10 11  2  0  0  0
 10 15  1  0  0  0
 11 12  1  0  0  0
 11 97  1  0  0  0
 12 13  2  0  0  0
 12 98  1  0  0  0
 13 14  1  0  0  0
 13 31  1  0  0  0
 14 15  2  0  0  0
 14 99  1  0  0  0
 15100  1  0  0  0
 16 17  2  0  0  0
 16 21  1  0  0  0
 16 31  1  0  0  0
 17 18  1  0  0  0
 17101  1  0  0  0
 18 19  2  0  0  0
 18102  1  0  0  0
 19 20  1  0  0  0
 19 24  1  0  0  0
 20 21  2  0  0  0
 20103  1  0  0  0
 21 23  1  0  0  0
 22 28  1  0  0  0
 22 32  2  0  0  0
 26 27  1  0  0  0
 28104  1  0  0  0
 28105  1  0  0  0
 29106  1  0  0  0
 29107  1  0  0  0
 33 34  1  0  0  0
 33 66  1  0  0  0
 33 70  2  0  0  0
 34 36  1  0  0  0
 34 59  1  0  0  0
 34108  1  0  0  0
 35 44  2  0  0  0
 35 45  1  0  0  0
 35 68  1  0  0  0
 36 56  1  0  0  0
 36109  1  0  0  0
 37 39  1  0  0  0
 37 47  1  0  0  0
 37 66  1  0  0  0
 37110  1  0  0  0
 38 43  2  0  0  0
 38 46  1  0  0  0
 38 47  1  0  0  0
 39 64  1  0  0  0
 39 67  2  0  0  0
 40 52  1  0  0  0
 40 53  2  0  0  0
 40 58  1  0  0  0
 41111  1  0  0  0
 41112  1  0  0  0
 41113  1  0  0  0
 41 48  1  0  0  0
 42 43  1  0  0  0
 42 66  1  0  0  0
 42114  1  0  0  0
 42115  1  0  0  0
 43 44  1  0  0  0
 44116  1  0  0  0
 45 46  2  0  0  0
 45117  1  0  0  0
 46118  1  0  0  0
 47119  1  0  0  0
 47120  1  0  0  0
 48 56  1  0  0  0
 48 65  1  0  0  0
 48121  1  0  0  0
 49 50  1  0  0  0
 49 53  1  0  0  0
 49 64  1  0  0  0
 49122  1  0  0  0
 50 51  1  0  0  0
 50123  1  0  0  0
 50124  1  0  0  0
 51 52  1  0  0  0
 51125  1  0  0  0
 51126  1  0  0  0
 52127  1  0  0  0
 52128  1  0  0  0
 53 54  1  0  0  0
 54 55  2  0  0  0
 54129  1  0  0  0
 55 57  1  0  0  0
 55130  1  0  0  0
 56 69  2  0  0  0
 57 58  2  0  0  0
 57131  1  0  0  0
 58132  1  0  0  0
 59 60  1  0  0  0
 59 61  1  0  0  0
 59 62  1  0  0  0
 60133  1  0  0  0
 60134  1  0  0  0
 60135  1  0  0  0
 61136  1  0  0  0
 61137  1  0  0  0
 61138  1  0  0  0
 62139  1  0  0  0
 62140  1  0  0  0
 62141  1  0  0  0
 63 65  1  0  0  0
 63142  1  0  0  0
 63143  1  0  0  0
 63144  1  0  0  0
 64145  1  0  0  0
 65146  1  0  0  0
 68 82  1  0  0  0
 71 72  2  0  0  0
 71 75  1  0  0  0
 71147  1  0  0  0
 72 76  1  0  0  0
 72148  1  0  0  0
 73 74  1  0  0  0
 73 75  2  0  0  0
 73149  1  0  0  0
 74 76  2  0  0  0
 74 79  1  0  0  0
 75 87  1  0  0  0
 76 86  1  0  0  0
 77 84  1  0  0  0
 77150  1  0  0  0
 77151  1  0  0  0
 77152  1  0  0  0
 78 86  1  0  0  0
 78153  1  0  0  0
 78154  1  0  0  0
 78155  1  0  0  0
 79 84  1  0  0  0
 79156  1  0  0  0
 79157  1  0  0  0
 80 82  1  0  0  0
 80 85  1  0  0  0
 80158  1  0  0  0
 80159  1  0  0  0
 81 83  1  0  0  0
 81 85  1  0  0  0
 81160  1  0  0  0
 81161  1  0  0  0
 82162  1  0  0  0
 82163  1  0  0  0
 83 87  1  0  0  0
 83164  1  0  0  0
 83165  1  0  0  0
 85166  1  0  0  0
 85167  1  0  0  0
M  CHG  1  85   1
M  ISO  4   1 100  68 101  82 101  84 100
M  END
> <chiral flag>
0

> <version>
0

> <s_m_source_file>
/data/baiqing/PycharmProjects/Reinvent-master-3.2/result/LINK_invent/BTK/process_docking_weight1_custom_sum_contain_oxygen_bond_distance_aromatic_linkinvent_7_9_3/rearranged_h_0142.sdf

> <i_m_source_file_index>
53

> <r_mmod_Potential_Energy-OPLS-2005>
-26.6176471710205

> <r_mmod_Stretch_Energy-OPLS-2005>
37.3365287780762

> <r_mmod_Bend_Energy-OPLS-2005>
114.47110748291

> <r_mmod_Torsional_Energy-OPLS-2005>
287.111968994141

> <r_mmod_Improper_Torsional_Energy-OPLS-2005>
4.68298006057739

> <r_mmod_Van_der_Waal_Energy-OPLS-2005>
162.686660766602

> <r_mmod_Electrostatic_Energy-OPLS-2005>
-220.201736450195

> <r_mmod_Solvation_Energy-OPLS-2005>
-426.666473388672

> <b_mmod_Minimization_Converged-OPLS-2005>
0

> <r_mmod_RMS_Derivative-OPLS-2005>
1.05463051795959

$$$$
54
                    3D
 Structure written by MMmdl.
176186  0  0  1  0            999 V2000
  -30.6658  -14.7135   20.4987 C   0  0  0  0  0  0
  -30.4142  -12.4354   19.4854 C   0  0  0  0  0  0
  -29.5100  -12.5241   18.2385 C   0  0  0  0  0  0
  -28.0354  -12.3451   18.6376 C   0  0  0  0  0  0
  -27.6427  -13.2236   19.8524 C   0  0  2  0  0  0
  -28.6861  -13.1661   20.9931 C   0  0  0  0  0  0
  -25.2515  -13.8133   20.5615 C   0  0  0  0  0  0
  -24.1840  -13.0404   20.9256 C   0  0  0  0  0  0
  -24.6435  -11.6875   20.8797 C   0  0  0  0  0  0
  -23.9101  -10.4259   21.0440 C   0  0  0  0  0  0
  -24.3627   -9.4155   21.9211 C   0  0  0  0  0  0
  -23.6288   -8.2215   22.0778 C   0  0  0  0  0  0
  -22.4270   -8.0274   21.3572 C   0  0  0  0  0  0
  -21.9933   -9.0252   20.4656 C   0  0  0  0  0  0
  -22.7288  -10.2116   20.3068 C   0  0  0  0  0  0
  -21.6849   -6.0717   22.5280 C   0  0  0  0  0  0
  -21.4013   -6.5641   23.8201 C   0  0  0  0  0  0
  -21.3660   -5.6812   24.9173 C   0  0  0  0  0  0
  -21.6055   -4.3074   24.7231 C   0  0  0  0  0  0
  -21.8818   -3.8142   23.4358 C   0  0  0  0  0  0
  -21.9196   -4.6949   22.3408 C   0  0  0  0  0  0
  -22.7871  -13.5185   21.1926 C   0  0  0  0  0  0
  -22.1652   -4.2116   21.0989 F   0  0  0  0  0  0
  -21.5623   -3.4562   25.7751 F   0  0  0  0  0  0
  -29.9954  -13.5071   20.4273 N   0  0  0  0  0  0
  -26.2941  -12.9349   20.3246 N   0  0  0  0  0  0
  -25.9352  -11.6508   20.5775 N   0  0  0  0  0  0
  -22.0490  -12.8139   22.0426 N   0  0  0  0  0  0
  -25.4179  -15.1826   20.3735 N   0  0  0  0  0  0
  -31.8099  -14.7560   20.0406 O   0  0  0  0  0  0
  -21.6639   -6.8867   21.4252 O   0  0  0  0  0  0
  -22.3583  -14.5519   20.6796 O   0  0  0  0  0  0
  -24.6274  -31.8570   23.1995 C   0  0  0  0  0  0
  -25.9098  -32.4772   23.8341 C   0  0  1  0  0  0
  -27.2159  -27.2846   20.1445 C   0  0  0  0  0  0
  -25.5911  -33.8577   24.2269 N   0  0  0  0  0  0
  -23.4243  -30.4787   21.5411 C   0  0  2  0  0  0
  -24.8728  -28.9303   20.1092 C   0  0  0  0  0  0
  -22.7491  -29.4605   22.4900 C   0  0  0  0  0  0
  -18.0298  -28.1407   22.8506 C   0  0  0  0  0  0
  -24.1482  -36.7291   23.2639 C   0  0  0  0  0  0
  -25.9649  -30.7837   21.3697 C   0  0  0  0  0  0
  -26.0406  -29.4041   20.7205 C   0  0  0  0  0  0
  -27.2184  -28.5933   20.7268 C   0  0  0  0  0  0
  -26.0358  -26.8807   19.4837 C   0  0  0  0  0  0
  -24.8744  -27.6771   19.4746 C   0  0  0  0  0  0
  -23.6420  -29.8129   20.1567 C   0  0  0  0  0  0
  -25.4111  -36.3079   24.0321 C   0  0  1  0  0  0
  -20.5901  -28.3712   23.1295 C   0  0  2  0  0  0
  -20.6786  -26.9430   22.5433 C   0  0  0  0  0  0
  -19.5759  -26.6402   21.5237 C   0  0  0  0  0  0
  -18.1933  -26.7961   22.1630 C   0  0  0  0  0  0
  -19.1551  -28.8877   23.2897 C   0  0  0  0  0  0
  -18.9460  -30.1478   23.8904 C   0  0  0  0  0  0
  -17.6463  -30.6599   24.0579 C   0  0  0  0  0  0
  -25.9048  -34.9445   23.5091 C   0  0  0  0  0  0
  -16.5356  -29.9104   23.6331 C   0  0  0  0  0  0
  -16.7281  -28.6524   23.0346 C   0  0  0  0  0  0
  -26.4499  -31.6574   25.0702 C   0  0  0  0  0  0
  -25.3723  -31.3638   26.1402 C   0  0  0  0  0  0
  -27.0366  -30.3027   24.6101 C   0  0  0  0  0  0
  -27.6041  -32.4304   25.7496 C   0  0  0  0  0  0
  -27.5568  -37.1813   24.8465 C   0  0  0  0  0  0
  -21.4195  -29.3052   22.3665 N   0  0  0  0  0  0
  -26.4288  -37.3775   23.9398 N   0  0  0  0  0  0
  -24.6917  -31.0561   22.0953 N   0  0  0  0  0  0
  -23.4203  -28.8153   23.3002 O   0  0  0  0  0  0
  -28.3061  -26.3955   20.2034 O   0  0  0  0  0  0
  -26.5624  -34.8915   22.4663 O   0  0  0  0  0  0
  -23.5429  -32.1363   23.7309 O   0  0  0  0  0  0
  -29.5512  -23.5186   17.2016 C   0  0  0  0  0  0
  -28.9042  -24.8848   17.2846 C   0  0  0  0  0  0
  -28.6698  -22.9985   21.9169 C   0  0  0  0  0  0
  -28.6283  -24.5482   21.9109 C   0  0  0  0  0  0
  -30.7770  -17.4489   20.4817 C   0  0  0  0  0  0
  -28.6426  -16.5445   21.0485 C   0  0  0  0  0  0
  -30.1352  -16.1214   21.0906 C   0  0  1  0  0  0
  -29.4646  -24.2354   18.5283 C   0  0  0  0  0  0
  -28.5390  -23.7524   19.6300 C   0  0  1  0  0  0
  -29.1853  -22.6015   20.5286 C   0  0  2  0  0  0
  -28.0433  -24.9570   20.5475 C   0  0  2  0  0  0
  -29.6602  -18.5452   20.2285 C   0  0  2  0  0  0
  -32.5388  -20.2523   19.6967 C   0  0  0  0  0  0
  -30.8146  -19.9712   17.8510 C   0  0  0  0  0  0
  -30.0280  -20.1346   20.3417 C   0  0  1  0  0  0
  -31.0942  -20.5327   19.2595 C   0  0  0  0  0  0
  -28.9109  -21.1443   20.1956 N   0  0  0  0  0  0
  -28.5940  -18.0422   21.1063 N   0  3  0  0  0  0
  -31.4617  -12.5113   19.1914 H   0  0  0  0  0  0
  -30.3128  -11.4563   19.9567 H   0  0  0  0  0  0
  -29.7940  -11.7712   17.5016 H   0  0  0  0  0  0
  -29.6472  -13.4944   17.7577 H   0  0  0  0  0  0
  -27.8783  -11.2907   18.8684 H   0  0  0  0  0  0
  -27.3876  -12.5738   17.7895 H   0  0  0  0  0  0
  -27.6348  -14.2370   19.4660 H   0  0  0  0  0  0
  -28.7174  -12.1689   21.4329 H   0  0  0  0  0  0
  -28.4223  -13.8427   21.8054 H   0  0  0  0  0  0
  -25.2768   -9.5591   22.4787 H   0  0  0  0  0  0
  -23.9972   -7.4588   22.7503 H   0  0  0  0  0  0
  -21.0859   -8.8791   19.8950 H   0  0  0  0  0  0
  -22.3776  -10.9661   19.6161 H   0  0  0  0  0  0
  -21.2015   -7.6143   23.9679 H   0  0  0  0  0  0
  -21.1496   -6.0553   25.9075 H   0  0  0  0  0  0
  -22.0608   -2.7601   23.2874 H   0  0  0  0  0  0
  -22.4100  -11.9740   22.4731 H   0  0  0  0  0  0
  -21.1117  -13.1165   22.2668 H   0  0  0  0  0  0
  -24.5702  -15.7405   20.3475 H   0  0  0  0  0  0
  -26.0735  -15.4725   19.6596 H   0  0  0  0  0  0
  -26.7177  -32.5460   23.1099 H   0  0  0  0  0  0
  -25.0041  -33.9731   25.0402 H   0  0  0  0  0  0
  -22.7183  -31.2997   21.3947 H   0  0  0  0  0  0
  -23.3757  -35.9613   23.3300 H   0  0  0  0  0  0
  -24.3558  -36.8933   22.2053 H   0  0  0  0  0  0
  -23.7234  -37.6480   23.6693 H   0  0  0  0  0  0
  -26.0820  -31.5389   20.5909 H   0  0  0  0  0  0
  -26.8499  -30.8496   21.9909 H   0  0  0  0  0  0
  -28.1122  -28.9462   21.2233 H   0  0  0  0  0  0
  -26.0000  -25.9255   18.9815 H   0  0  0  0  0  0
  -23.9851  -27.3179   18.9748 H   0  0  0  0  0  0
  -23.7647  -30.5863   19.3975 H   0  0  0  0  0  0
  -22.7631  -29.2427   19.8553 H   0  0  0  0  0  0
  -25.1292  -36.1915   25.0816 H   0  0  0  0  0  0
  -21.0003  -28.3310   24.1412 H   0  0  0  0  0  0
  -20.5714  -26.2317   23.3631 H   0  0  0  0  0  0
  -21.6648  -26.7473   22.1211 H   0  0  0  0  0  0
  -19.6917  -25.6325   21.1248 H   0  0  0  0  0  0
  -19.6681  -27.3217   20.6774 H   0  0  0  0  0  0
  -17.4211  -26.6744   21.4021 H   0  0  0  0  0  0
  -18.0283  -26.0093   22.9003 H   0  0  0  0  0  0
  -19.7930  -30.7303   24.2258 H   0  0  0  0  0  0
  -17.5009  -31.6267   24.5201 H   0  0  0  0  0  0
  -15.5356  -30.3006   23.7631 H   0  0  0  0  0  0
  -15.8692  -28.0843   22.7045 H   0  0  0  0  0  0
  -24.5961  -30.6929   25.7690 H   0  0  0  0  0  0
  -24.8835  -32.2773   26.4806 H   0  0  0  0  0  0
  -25.8048  -30.8827   27.0188 H   0  0  0  0  0  0
  -26.2946  -29.6753   24.1150 H   0  0  0  0  0  0
  -27.4166  -29.7261   25.4542 H   0  0  0  0  0  0
  -27.8757  -30.4369   23.9265 H   0  0  0  0  0  0
  -27.2681  -33.3656   26.1970 H   0  0  0  0  0  0
  -28.3919  -32.6751   25.0366 H   0  0  0  0  0  0
  -28.0628  -31.8479   26.5488 H   0  0  0  0  0  0
  -28.2573  -38.0119   24.7509 H   0  0  0  0  0  0
  -28.1077  -36.2643   24.6315 H   0  0  0  0  0  0
  -27.2274  -37.1483   25.8865 H   0  0  0  0  0  0
  -20.9360  -29.8774   21.6877 H   0  0  0  0  0  0
  -26.0155  -38.2843   24.1422 H   0  0  0  0  0  0
  -30.5263  -23.4526   16.7242 H   0  0  0  0  0  0
  -28.9000  -22.6627   17.0429 H   0  0  0  0  0  0
  -27.8215  -24.9415   17.1854 H   0  0  0  0  0  0
  -29.4506  -25.7284   16.8687 H   0  0  0  0  0  0
  -27.6628  -22.6088   22.0691 H   0  0  0  0  0  0
  -29.2964  -22.6025   22.7159 H   0  0  0  0  0  0
  -29.6438  -24.9362   22.0066 H   0  0  0  0  0  0
  -28.0486  -24.9426   22.7461 H   0  0  0  0  0  0
  -31.3245  -17.2538   19.5594 H   0  0  0  0  0  0
  -31.5049  -17.8322   21.1981 H   0  0  0  0  0  0
  -28.0557  -16.1097   21.8575 H   0  0  0  0  0  0
  -28.1992  -16.2331   20.1058 H   0  0  0  0  0  0
  -30.4200  -16.0906   22.1440 H   0  0  0  0  0  0
  -30.3910  -24.6683   18.9034 H   0  0  0  0  0  0
  -27.6526  -23.3405   19.1465 H   0  0  0  0  0  0
  -30.2588  -22.7880   20.5583 H   0  0  0  0  0  0
  -26.9696  -24.8099   20.6659 H   0  0  0  0  0  0
  -29.2644  -18.3705   19.2278 H   0  0  0  0  0  0
  -33.2467  -20.6526   18.9698 H   0  0  0  0  0  0
  -32.7474  -19.1894   19.7942 H   0  0  0  0  0  0
  -32.7517  -20.7300   20.6537 H   0  0  0  0  0  0
  -31.3760  -20.5196   17.0937 H   0  0  0  0  0  0
  -29.7603  -20.0588   17.5872 H   0  0  0  0  0  0
  -31.1006  -18.9228   17.7614 H   0  0  0  0  0  0
  -30.4553  -20.3027   21.3328 H   0  0  0  0  0  0
  -31.0857  -21.6100   19.1107 H   0  0  0  0  0  0
  -28.5871  -21.0980   19.2337 H   0  0  0  0  0  0
  -28.7720  -18.3566   22.0459 H   0  0  0  0  0  0
  -27.6995  -18.4097   20.8217 H   0  0  0  0  0  0
  1 25  1  0  0  0
  1 30  2  0  0  0
  1 77  1  0  0  0
  2  3  1  0  0  0
  2 25  1  0  0  0
  2 89  1  0  0  0
  2 90  1  0  0  0
  3  4  1  0  0  0
  3 91  1  0  0  0
  3 92  1  0  0  0
  4  5  1  0  0  0
  4 93  1  0  0  0
  4 94  1  0  0  0
  5  6  1  0  0  0
  5 26  1  0  0  0
  5 95  1  0  0  0
  6 25  1  0  0  0
  6 96  1  0  0  0
  6 97  1  0  0  0
  7  8  2  0  0  0
  7 26  1  0  0  0
  7 29  1  0  0  0
  8  9  1  0  0  0
  8 22  1  0  0  0
  9 10  1  0  0  0
  9 27  2  0  0  0
 10 11  2  0  0  0
 10 15  1  0  0  0
 11 12  1  0  0  0
 11 98  1  0  0  0
 12 13  2  0  0  0
 12 99  1  0  0  0
 13 14  1  0  0  0
 13 31  1  0  0  0
 14 15  2  0  0  0
 14100  1  0  0  0
 15101  1  0  0  0
 16 17  2  0  0  0
 16 21  1  0  0  0
 16 31  1  0  0  0
 17 18  1  0  0  0
 17102  1  0  0  0
 18 19  2  0  0  0
 18103  1  0  0  0
 19 20  1  0  0  0
 19 24  1  0  0  0
 20 21  2  0  0  0
 20104  1  0  0  0
 21 23  1  0  0  0
 22 28  1  0  0  0
 22 32  2  0  0  0
 26 27  1  0  0  0
 28105  1  0  0  0
 28106  1  0  0  0
 29107  1  0  0  0
 29108  1  0  0  0
 33 34  1  0  0  0
 33 66  1  0  0  0
 33 70  2  0  0  0
 34 36  1  0  0  0
 34 59  1  0  0  0
 34109  1  0  0  0
 35 44  2  0  0  0
 35 45  1  0  0  0
 35 68  1  0  0  0
 36 56  1  0  0  0
 36110  1  0  0  0
 37 39  1  0  0  0
 37 47  1  0  0  0
 37 66  1  0  0  0
 37111  1  0  0  0
 38 43  2  0  0  0
 38 46  1  0  0  0
 38 47  1  0  0  0
 39 64  1  0  0  0
 39 67  2  0  0  0
 40 52  1  0  0  0
 40 53  2  0  0  0
 40 58  1  0  0  0
 41112  1  0  0  0
 41113  1  0  0  0
 41114  1  0  0  0
 41 48  1  0  0  0
 42 43  1  0  0  0
 42 66  1  0  0  0
 42115  1  0  0  0
 42116  1  0  0  0
 43 44  1  0  0  0
 44117  1  0  0  0
 45 46  2  0  0  0
 45118  1  0  0  0
 46119  1  0  0  0
 47120  1  0  0  0
 47121  1  0  0  0
 48 56  1  0  0  0
 48 65  1  0  0  0
 48122  1  0  0  0
 49 50  1  0  0  0
 49 53  1  0  0  0
 49 64  1  0  0  0
 49123  1  0  0  0
 50 51  1  0  0  0
 50124  1  0  0  0
 50125  1  0  0  0
 51 52  1  0  0  0
 51126  1  0  0  0
 51127  1  0  0  0
 52128  1  0  0  0
 52129  1  0  0  0
 53 54  1  0  0  0
 54 55  2  0  0  0
 54130  1  0  0  0
 55 57  1  0  0  0
 55131  1  0  0  0
 56 69  2  0  0  0
 57 58  2  0  0  0
 57132  1  0  0  0
 58133  1  0  0  0
 59 60  1  0  0  0
 59 61  1  0  0  0
 59 62  1  0  0  0
 60134  1  0  0  0
 60135  1  0  0  0
 60136  1  0  0  0
 61137  1  0  0  0
 61138  1  0  0  0
 61139  1  0  0  0
 62140  1  0  0  0
 62141  1  0  0  0
 62142  1  0  0  0
 63 65  1  0  0  0
 63143  1  0  0  0
 63144  1  0  0  0
 63145  1  0  0  0
 64146  1  0  0  0
 65147  1  0  0  0
 68 81  1  0  0  0
 71 72  1  0  0  0
 71148  1  0  0  0
 71149  1  0  0  0
 71 78  1  0  0  0
 72 78  1  0  0  0
 72150  1  0  0  0
 72151  1  0  0  0
 73 74  1  0  0  0
 73 80  1  0  0  0
 73152  1  0  0  0
 73153  1  0  0  0
 74 81  1  0  0  0
 74154  1  0  0  0
 74155  1  0  0  0
 75 77  1  0  0  0
 75156  1  0  0  0
 75157  1  0  0  0
 75 82  1  0  0  0
 76 77  1  0  0  0
 76 88  1  0  0  0
 76158  1  0  0  0
 76159  1  0  0  0
 77160  1  0  0  0
 78161  1  0  0  0
 78 79  1  0  0  0
 79 80  1  0  0  0
 79 81  1  0  0  0
 79162  1  0  0  0
 80 87  1  0  0  0
 80163  1  0  0  0
 81164  1  0  0  0
 82 85  1  0  0  0
 82 88  1  0  0  0
 82165  1  0  0  0
 83166  1  0  0  0
 83167  1  0  0  0
 83168  1  0  0  0
 83 86  1  0  0  0
 84 86  1  0  0  0
 84169  1  0  0  0
 84170  1  0  0  0
 84171  1  0  0  0
 85 86  1  0  0  0
 85 87  1  0  0  0
 85172  1  0  0  0
 86173  1  0  0  0
 87174  1  0  0  0
 88175  1  0  0  0
 88176  1  0  0  0
M  CHG  1  88   1
M  ISO  4   1 100  68 101  77 100  81 101
M  END
> <chiral flag>
0

> <version>
0

> <s_m_source_file>
/data/baiqing/PycharmProjects/Reinvent-master-3.2/result/LINK_invent/BTK/process_docking_weight1_custom_sum_contain_oxygen_bond_distance_aromatic_linkinvent_7_9_3/rearranged_h_0142.sdf

> <i_m_source_file_index>
54

> <r_mmod_Potential_Energy-OPLS-2005>
183.039733886719

> <r_mmod_Stretch_Energy-OPLS-2005>
115.271095275879

> <r_mmod_Bend_Energy-OPLS-2005>
242.074310302734

> <r_mmod_Torsional_Energy-OPLS-2005>
366.482788085938

> <r_mmod_Improper_Torsional_Energy-OPLS-2005>
5.84878778457642

> <r_mmod_Van_der_Waal_Energy-OPLS-2005>
109.81616973877

> <r_mmod_Electrostatic_Energy-OPLS-2005>
-299.014190673828

> <r_mmod_Solvation_Energy-OPLS-2005>
-428.432220458984

> <b_mmod_Minimization_Converged-OPLS-2005>
0

> <r_mmod_RMS_Derivative-OPLS-2005>
3.24533319473267

$$$$
55
                    3D
 Structure written by MMmdl.
159168  0  0  1  0            999 V2000
  -29.9163  -15.2267   20.6130 C   0  0  0  0  0  0
  -30.3939  -12.8412   19.6055 C   0  0  0  0  0  0
  -29.5312  -12.6187   18.3285 C   0  0  0  0  0  0
  -28.0655  -12.2990   18.6903 C   0  0  0  0  0  0
  -27.5672  -13.2097   19.8377 C   0  0  2  0  0  0
  -28.5219  -13.1946   21.0319 C   0  0  0  0  0  0
  -25.2168  -13.8087   20.5579 C   0  0  0  0  0  0
  -24.1533  -13.0362   20.9225 C   0  0  0  0  0  0
  -24.6115  -11.6832   20.8737 C   0  0  0  0  0  0
  -23.8879  -10.4236   21.0445 C   0  0  0  0  0  0
  -24.3516   -9.4178   21.9201 C   0  0  0  0  0  0
  -23.6239   -8.2194   22.0756 C   0  0  0  0  0  0
  -22.4224   -8.0220   21.3543 C   0  0  0  0  0  0
  -21.9813   -9.0172   20.4649 C   0  0  0  0  0  0
  -22.7088  -10.2068   20.3069 C   0  0  0  0  0  0
  -21.6834   -6.0700   22.5285 C   0  0  0  0  0  0
  -21.3998   -6.5620   23.8212 C   0  0  0  0  0  0
  -21.3655   -5.6782   24.9180 C   0  0  0  0  0  0
  -21.6045   -4.3044   24.7236 C   0  0  0  0  0  0
  -21.8822   -3.8126   23.4362 C   0  0  0  0  0  0
  -21.9186   -4.6934   22.3413 C   0  0  0  0  0  0
  -22.7621  -13.5201   21.1944 C   0  0  0  0  0  0
  -22.1660   -4.2123   21.0990 F   0  0  0  0  0  0
  -21.5632   -3.4532   25.7752 F   0  0  0  0  0  0
  -29.7049  -13.8357   20.5179 N   0  0  0  0  0  0
  -26.2356  -12.9165   20.2887 N   0  0  0  0  0  0
  -25.8945  -11.6359   20.5528 N   0  0  0  0  0  0
  -22.0293  -12.8202   22.0519 N   0  0  0  0  0  0
  -25.3968  -15.1819   20.4046 N   0  0  0  0  0  0
  -31.0901  -15.5148   20.2765 O   0  0  0  0  0  0
  -21.6609   -6.8817   21.4237 O   0  0  0  0  0  0
  -22.3351  -14.5527   20.6796 O   0  0  0  0  0  0
  -24.6817  -31.9366   23.1985 C   0  0  0  0  0  0
  -25.9610  -32.5091   23.8543 C   0  0  1  0  0  0
  -26.8779  -27.2891   20.2802 C   0  0  0  0  0  0
  -25.6398  -33.8816   24.2553 N   0  0  0  0  0  0
  -23.5026  -30.6507   21.5003 C   0  0  2  0  0  0
  -24.8416  -29.0964   20.0128 C   0  0  0  0  0  0
  -22.9609  -29.6359   22.4812 C   0  0  0  0  0  0
  -18.1865  -27.5419   23.2007 C   0  0  0  0  0  0
  -24.1512  -36.7351   23.2610 C   0  0  0  0  0  0
  -26.0137  -30.8593   21.3612 C   0  0  0  0  0  0
  -26.0038  -29.4944   20.6927 C   0  0  0  0  0  0
  -27.0651  -28.5774   20.8321 C   0  0  0  0  0  0
  -25.8777  -27.0220   19.3489 C   0  0  0  0  0  0
  -24.7901  -27.8898   19.2990 C   0  0  0  0  0  0
  -23.6574  -30.0158   20.0967 C   0  0  0  0  0  0
  -25.4135  -36.3207   24.0337 C   0  0  1  0  0  0
  -21.1325  -28.4129   22.9145 C   0  0  2  0  0  0
  -21.6190  -27.0866   21.2925 C   0  0  0  0  0  0
  -19.9881  -25.7341   20.8301 C   0  0  0  0  0  0
  -18.2942  -26.0452   22.0347 C   0  0  0  0  0  0
  -19.4111  -28.5206   23.5828 C   0  0  0  0  0  0
  -19.0708  -29.8452   24.0229 C   0  0  0  0  0  0
  -17.7566  -30.3593   24.0677 C   0  0  0  0  0  0
  -25.9151  -34.9616   23.5153 C   0  0  0  0  0  0
  -16.6847  -29.5511   23.6645 C   0  0  0  0  0  0
  -16.9035  -28.2070   23.2506 C   0  0  0  0  0  0
  -26.4631  -31.6634   25.0846 C   0  0  0  0  0  0
  -25.3715  -31.3762   26.1418 C   0  0  0  0  0  0
  -27.0348  -30.3044   24.6178 C   0  0  0  0  0  0
  -27.6198  -32.4181   25.7785 C   0  0  0  0  0  0
  -27.5599  -37.1888   24.8471 C   0  0  0  0  0  0
  -21.6606  -29.6398   22.5656 N   0  0  0  0  0  0
  -26.4304  -37.3899   23.9428 N   0  0  0  0  0  0
  -24.7557  -31.1894   22.0610 N   0  0  0  0  0  0
  -23.6877  -28.8988   23.1609 O   0  0  0  0  0  0
  -27.2714  -26.1688   20.9329 O   0  0  0  0  0  0
  -26.5520  -34.9037   22.4597 O   0  0  0  0  0  0
  -23.5955  -32.2057   23.7372 O   0  0  0  0  0  0
  -24.7660  -25.4076   21.8192 C   0  0  0  0  0  0
  -26.0974  -23.2147   22.4036 C   0  0  0  0  0  0
  -23.7800  -24.3242   22.2294 C   0  0  0  0  0  0
  -24.7214  -22.9797   22.1580 C   0  0  0  0  0  0
  -26.2386  -25.3163   21.5595 C   0  0  0  0  0  0
  -19.4588  -28.0391   21.1321 C   0  0  0  0  0  0
  -21.8134  -25.8791   23.7433 C   0  0  0  0  0  0
  -21.9574  -24.8320   22.7083 C   0  0  2  0  0  0
  -20.4426  -26.2156   22.9948 C   0  0  2  0  0  0
  -26.7581  -18.7237   21.5764 C   0  0  0  0  0  0
  -28.2413  -17.7985   20.9398 C   0  0  0  0  0  0
  -26.0672  -20.4409   21.4085 C   0  0  0  0  0  0
  -26.8462  -24.2482   22.0396 N   0  0  0  0  0  0
  -28.7732  -16.1720   20.9526 N   0  0  0  0  0  0
  -19.9440  -29.1458   20.7576 O   0  5  0  0  0  0
  -18.4603  -27.8985   20.3626 O   0  0  0  0  0  0
  -24.7841  -21.4361   21.9750 O   0  0  0  0  0  0
  -31.3868  -13.1948   19.3246 H   0  0  0  0  0  0
  -30.5554  -11.8962   20.1268 H   0  0  0  0  0  0
  -29.9550  -11.8270   17.7091 H   0  0  0  0  0  0
  -29.5570  -13.5265   17.7243 H   0  0  0  0  0  0
  -28.0110  -11.2549   19.0011 H   0  0  0  0  0  0
  -27.4238  -12.3937   17.8137 H   0  0  0  0  0  0
  -27.5300  -14.2120   19.4103 H   0  0  0  0  0  0
  -28.7116  -12.1808   21.3881 H   0  0  0  0  0  0
  -28.1134  -13.7456   21.8811 H   0  0  0  0  0  0
  -25.2663   -9.5692   22.4763 H   0  0  0  0  0  0
  -23.9973   -7.4585   22.7460 H   0  0  0  0  0  0
  -21.0750   -8.8656   19.8955 H   0  0  0  0  0  0
  -22.3530  -10.9606   19.6184 H   0  0  0  0  0  0
  -21.1985   -7.6128   23.9706 H   0  0  0  0  0  0
  -21.1479   -6.0516   25.9082 H   0  0  0  0  0  0
  -22.0608   -2.7589   23.2868 H   0  0  0  0  0  0
  -22.3909  -11.9850   22.4880 H   0  0  0  0  0  0
  -21.0931  -13.1250   22.2776 H   0  0  0  0  0  0
  -24.6095  -15.8154   20.4898 H   0  0  0  0  0  0
  -26.1843  -15.5998   19.9270 H   0  0  0  0  0  0
  -26.7808  -32.5725   23.1424 H   0  0  0  0  0  0
  -25.0709  -33.9941   25.0815 H   0  0  0  0  0  0
  -22.7883  -31.4723   21.4020 H   0  0  0  0  0  0
  -23.3802  -35.9656   23.3278 H   0  0  0  0  0  0
  -24.3618  -36.8951   22.2024 H   0  0  0  0  0  0
  -23.7225  -37.6550   23.6596 H   0  0  0  0  0  0
  -26.1935  -31.6189   20.5992 H   0  0  0  0  0  0
  -26.8868  -30.8659   22.0031 H   0  0  0  0  0  0
  -27.8670  -28.7712   21.5309 H   0  0  0  0  0  0
  -25.7725  -26.0401   18.9079 H   0  0  0  0  0  0
  -23.9058  -27.6150   18.7408 H   0  0  0  0  0  0
  -23.8114  -30.8100   19.3655 H   0  0  0  0  0  0
  -22.7419  -29.5164   19.7851 H   0  0  0  0  0  0
  -25.1288  -36.2077   25.0825 H   0  0  0  0  0  0
  -21.5858  -28.2286   23.8903 H   0  0  0  0  0  0
  -22.5823  -26.6406   21.3343 H   0  0  0  0  0  0
  -21.8278  -27.6507   20.3820 H   0  0  0  0  0  0
  -20.2805  -24.6848   20.8752 H   0  0  0  0  0  0
  -19.7330  -25.8173   19.7702 H   0  0  0  0  0  0
  -17.3986  -26.0260   21.4101 H   0  0  0  0  0  0
  -18.1280  -25.1494   22.6374 H   0  0  0  0  0  0
  -19.8741  -30.5345   24.2424 H   0  0  0  0  0  0
  -17.5826  -31.3825   24.3708 H   0  0  0  0  0  0
  -15.6825  -29.9577   23.6549 H   0  0  0  0  0  0
  -16.0462  -27.6601   22.8828 H   0  0  0  0  0  0
  -24.5858  -30.7253   25.7564 H   0  0  0  0  0  0
  -24.8972  -32.2936   26.4911 H   0  0  0  0  0  0
  -25.7886  -30.8770   27.0173 H   0  0  0  0  0  0
  -26.2905  -29.6981   24.1003 H   0  0  0  0  0  0
  -27.3848  -29.7121   25.4643 H   0  0  0  0  0  0
  -27.8900  -30.4312   23.9535 H   0  0  0  0  0  0
  -27.2866  -33.3469   26.2427 H   0  0  0  0  0  0
  -28.4106  -32.6728   25.0717 H   0  0  0  0  0  0
  -28.0726  -31.8178   26.5686 H   0  0  0  0  0  0
  -28.2607  -38.0199   24.7553 H   0  0  0  0  0  0
  -28.1113  -36.2738   24.6255 H   0  0  0  0  0  0
  -27.2323  -37.1488   25.8875 H   0  0  0  0  0  0
  -21.1038  -30.1205   21.8601 H   0  0  0  0  0  0
  -26.0189  -38.2969   24.1458 H   0  0  0  0  0  0
  -24.4418  -26.4244   21.7099 H   0  0  0  0  0  0
  -26.7249  -22.4299   22.7887 H   0  0  0  0  0  0
  -22.6707  -26.5444   23.7012 H   0  0  0  0  0  0
  -21.7102  -25.4918   24.7550 H   0  0  0  0  0  0
  -21.5327  -23.8504   22.9079 H   0  0  0  0  0  0
  -19.7687  -25.9226   23.8036 H   0  0  0  0  0  0
  -26.8293  -18.5902   22.6558 H   0  0  0  0  0  0
  -25.9175  -18.0873   21.2994 H   0  0  0  0  0  0
  -29.0988  -18.3454   21.3325 H   0  0  0  0  0  0
  -28.2565  -18.0342   19.8751 H   0  0  0  0  0  0
  -25.8137  -20.4479   20.3483 H   0  0  0  0  0  0
  -26.9791  -21.0307   21.3956 H   0  0  0  0  0  0
  -27.9978  -15.5907   21.2387 H   0  0  0  0  0  0
  1 25  1  0  0  0
  1 30  2  0  0  0
  1 84  1  0  0  0
  2  3  1  0  0  0
  2 25  1  0  0  0
  2 88  1  0  0  0
  2 89  1  0  0  0
  3  4  1  0  0  0
  3 90  1  0  0  0
  3 91  1  0  0  0
  4  5  1  0  0  0
  4 92  1  0  0  0
  4 93  1  0  0  0
  5  6  1  0  0  0
  5 26  1  0  0  0
  5 94  1  0  0  0
  6 25  1  0  0  0
  6 95  1  0  0  0
  6 96  1  0  0  0
  7  8  2  0  0  0
  7 26  1  0  0  0
  7 29  1  0  0  0
  8  9  1  0  0  0
  8 22  1  0  0  0
  9 10  1  0  0  0
  9 27  2  0  0  0
 10 11  2  0  0  0
 10 15  1  0  0  0
 11 12  1  0  0  0
 11 97  1  0  0  0
 12 13  2  0  0  0
 12 98  1  0  0  0
 13 14  1  0  0  0
 13 31  1  0  0  0
 14 15  2  0  0  0
 14 99  1  0  0  0
 15100  1  0  0  0
 16 17  2  0  0  0
 16 21  1  0  0  0
 16 31  1  0  0  0
 17 18  1  0  0  0
 17101  1  0  0  0
 18 19  2  0  0  0
 18102  1  0  0  0
 19 20  1  0  0  0
 19 24  1  0  0  0
 20 21  2  0  0  0
 20103  1  0  0  0
 21 23  1  0  0  0
 22 28  1  0  0  0
 22 32  2  0  0  0
 26 27  1  0  0  0
 28104  1  0  0  0
 28105  1  0  0  0
 29106  1  0  0  0
 29107  1  0  0  0
 33 34  1  0  0  0
 33 66  1  0  0  0
 33 70  2  0  0  0
 34 36  1  0  0  0
 34 59  1  0  0  0
 34108  1  0  0  0
 35 44  2  0  0  0
 35 45  1  0  0  0
 35 68  1  0  0  0
 36 56  1  0  0  0
 36109  1  0  0  0
 37 39  1  0  0  0
 37 47  1  0  0  0
 37 66  1  0  0  0
 37110  1  0  0  0
 38 43  2  0  0  0
 38 46  1  0  0  0
 38 47  1  0  0  0
 39 64  1  0  0  0
 39 67  2  0  0  0
 40 52  1  0  0  0
 40 53  2  0  0  0
 40 58  1  0  0  0
 41111  1  0  0  0
 41112  1  0  0  0
 41113  1  0  0  0
 41 48  1  0  0  0
 42 43  1  0  0  0
 42 66  1  0  0  0
 42114  1  0  0  0
 42115  1  0  0  0
 43 44  1  0  0  0
 44116  1  0  0  0
 45 46  2  0  0  0
 45117  1  0  0  0
 46118  1  0  0  0
 47119  1  0  0  0
 47120  1  0  0  0
 48 56  1  0  0  0
 48 65  1  0  0  0
 48121  1  0  0  0
 49 50  1  0  0  0
 49 53  1  0  0  0
 49 64  1  0  0  0
 49122  1  0  0  0
 50 51  1  0  0  0
 50123  1  0  0  0
 50124  1  0  0  0
 51 52  1  0  0  0
 51125  1  0  0  0
 51126  1  0  0  0
 52127  1  0  0  0
 52128  1  0  0  0
 53 54  1  0  0  0
 54 55  2  0  0  0
 54129  1  0  0  0
 55 57  1  0  0  0
 55130  1  0  0  0
 56 69  2  0  0  0
 57 58  2  0  0  0
 57131  1  0  0  0
 58132  1  0  0  0
 59 60  1  0  0  0
 59 61  1  0  0  0
 59 62  1  0  0  0
 60133  1  0  0  0
 60134  1  0  0  0
 60135  1  0  0  0
 61136  1  0  0  0
 61137  1  0  0  0
 61138  1  0  0  0
 62139  1  0  0  0
 62140  1  0  0  0
 62141  1  0  0  0
 63 65  1  0  0  0
 63142  1  0  0  0
 63143  1  0  0  0
 63144  1  0  0  0
 64145  1  0  0  0
 65146  1  0  0  0
 68 75  1  0  0  0
 71 73  2  0  0  0
 71 75  1  0  0  0
 71147  1  0  0  0
 72 74  2  0  0  0
 72 83  1  0  0  0
 72148  1  0  0  0
 73 74  1  0  0  0
 73 78  1  0  0  0
 74 87  1  0  0  0
 75 83  2  0  0  0
 76 85  1  0  0  0
 76 86  2  0  0  0
 76 79  1  0  0  0
 77 78  1  0  0  0
 77 79  1  0  0  0
 77149  1  0  0  0
 77150  1  0  0  0
 78 79  1  0  0  0
 78151  1  0  0  0
 79152  1  0  0  0
 80 81  1  0  0  0
 80 82  1  0  0  0
 80153  1  0  0  0
 80154  1  0  0  0
 81 84  1  0  0  0
 81155  1  0  0  0
 81156  1  0  0  0
 82 87  1  0  0  0
 82157  1  0  0  0
 82158  1  0  0  0
 84159  1  0  0  0
M  CHG  1  85  -1
M  ISO  4   1 100  68 101  75 101  84 100
M  END
> <chiral flag>
0

> <version>
0

> <s_m_source_file>
/data/baiqing/PycharmProjects/Reinvent-master-3.2/result/LINK_invent/BTK/process_docking_weight1_custom_sum_contain_oxygen_bond_distance_aromatic_linkinvent_7_9_3/rearranged_h_0142.sdf

> <i_m_source_file_index>
55

> <r_mmod_Potential_Energy-OPLS-2005>
9028.447265625

> <r_mmod_Stretch_Energy-OPLS-2005>
5288.390625

> <r_mmod_Bend_Energy-OPLS-2005>
965.120727539062

> <r_mmod_Torsional_Energy-OPLS-2005>
408.239044189453

> <r_mmod_Improper_Torsional_Energy-OPLS-2005>
28.5225868225098

> <r_mmod_Van_der_Waal_Energy-OPLS-2005>
2052.9853515625

> <r_mmod_Electrostatic_Energy-OPLS-2005>
-588.317077636719

> <r_mmod_Solvation_Energy-OPLS-2005>
-486.604400634766

> <b_mmod_Minimization_Converged-OPLS-2005>
0

> <r_mmod_RMS_Derivative-OPLS-2005>
0.770499408245087

$$$$
56
                    3D
 Structure written by MMmdl.
160169  0  0  1  0            999 V2000
  -30.6174  -14.8230   20.4520 C   0  0  0  0  0  0
  -30.4252  -12.5005   19.5088 C   0  0  0  0  0  0
  -29.5114  -12.5143   18.2625 C   0  0  0  0  0  0
  -28.0432  -12.3195   18.6775 C   0  0  0  0  0  0
  -27.6369  -13.2448   19.8557 C   0  0  2  0  0  0
  -28.6772  -13.2378   21.0001 C   0  0  0  0  0  0
  -25.2469  -13.8220   20.5731 C   0  0  0  0  0  0
  -24.1775  -13.0444   20.9221 C   0  0  0  0  0  0
  -24.6391  -11.6926   20.8759 C   0  0  0  0  0  0
  -23.9073  -10.4290   21.0397 C   0  0  0  0  0  0
  -24.3626   -9.4205   21.9185 C   0  0  0  0  0  0
  -23.6299   -8.2240   22.0753 C   0  0  0  0  0  0
  -22.4287   -8.0279   21.3535 C   0  0  0  0  0  0
  -21.9920   -9.0245   20.4638 C   0  0  0  0  0  0
  -22.7246  -10.2130   20.3046 C   0  0  0  0  0  0
  -21.6854   -6.0737   22.5270 C   0  0  0  0  0  0
  -21.4015   -6.5647   23.8205 C   0  0  0  0  0  0
  -21.3665   -5.6796   24.9162 C   0  0  0  0  0  0
  -21.6041   -4.3059   24.7207 C   0  0  0  0  0  0
  -21.8814   -3.8150   23.4336 C   0  0  0  0  0  0
  -21.9198   -4.6967   22.3391 C   0  0  0  0  0  0
  -22.7791  -13.5198   21.1890 C   0  0  0  0  0  0
  -22.1661   -4.2159   21.0964 F   0  0  0  0  0  0
  -21.5634   -3.4536   25.7718 F   0  0  0  0  0  0
  -29.9795  -13.5920   20.4193 N   0  0  0  0  0  0
  -26.2914  -12.9459   20.3345 N   0  0  0  0  0  0
  -25.9333  -11.6581   20.5798 N   0  0  0  0  0  0
  -22.0476  -12.8148   22.0452 N   0  0  0  0  0  0
  -25.4130  -15.1935   20.4118 N   0  0  0  0  0  0
  -31.7930  -14.8751   20.0806 O   0  0  0  0  0  0
  -21.6651   -6.8876   21.4233 O   0  0  0  0  0  0
  -22.3448  -14.5514   20.6778 O   0  0  0  0  0  0
  -24.6413  -31.8500   23.1985 C   0  0  0  0  0  0
  -25.9210  -32.4762   23.8330 C   0  0  1  0  0  0
  -27.1991  -27.1864   20.1221 C   0  0  0  0  0  0
  -25.5991  -33.8553   24.2235 N   0  0  0  0  0  0
  -23.4401  -30.4785   21.5436 C   0  0  2  0  0  0
  -24.8831  -28.9268   20.1088 C   0  0  0  0  0  0
  -22.7563  -29.4585   22.4876 C   0  0  0  0  0  0
  -18.0291  -28.1410   22.8494 C   0  0  0  0  0  0
  -24.1471  -36.7260   23.2642 C   0  0  0  0  0  0
  -25.9970  -30.7368   21.3932 C   0  0  0  0  0  0
  -26.0628  -29.3575   20.7292 C   0  0  0  0  0  0
  -27.2233  -28.4992   20.7286 C   0  0  0  0  0  0
  -25.9953  -26.8664   19.4476 C   0  0  0  0  0  0
  -24.8592  -27.6911   19.4563 C   0  0  0  0  0  0
  -23.6610  -29.8235   20.1574 C   0  0  0  0  0  0
  -25.4105  -36.3058   24.0318 C   0  0  1  0  0  0
  -20.5912  -28.3720   23.1243 C   0  0  2  0  0  0
  -20.6788  -26.9434   22.5389 C   0  0  0  0  0  0
  -19.5744  -26.6370   21.5232 C   0  0  0  0  0  0
  -18.1919  -26.7966   22.1618 C   0  0  0  0  0  0
  -19.1562  -28.8890   23.2861 C   0  0  0  0  0  0
  -18.9487  -30.1490   23.8879 C   0  0  0  0  0  0
  -17.6485  -30.6623   24.0568 C   0  0  0  0  0  0
  -25.9052  -34.9441   23.5057 C   0  0  0  0  0  0
  -16.5371  -29.9102   23.6365 C   0  0  0  0  0  0
  -16.7281  -28.6517   23.0388 C   0  0  0  0  0  0
  -26.4521  -31.6643   25.0772 C   0  0  0  0  0  0
  -25.3700  -31.3860   26.1469 C   0  0  0  0  0  0
  -27.0447  -30.3080   24.6332 C   0  0  0  0  0  0
  -27.6020  -32.4453   25.7578 C   0  0  0  0  0  0
  -27.5559  -37.1795   24.8463 C   0  0  0  0  0  0
  -21.4252  -29.3081   22.3658 N   0  0  0  0  0  0
  -26.4266  -37.3777   23.9425 N   0  0  0  0  0  0
  -24.7128  -31.0404   22.1002 N   0  0  0  0  0  0
  -23.4237  -28.8064   23.2948 O   0  0  0  0  0  0
  -28.2285  -26.1867   20.2078 O   0  0  0  0  0  0
  -26.5590  -34.8923   22.4607 O   0  0  0  0  0  0
  -23.5545  -32.1321   23.7240 O   0  0  0  0  0  0
  -28.9291  -22.4042   19.1507 C   0  0  0  0  0  0
  -28.5946  -22.7270   21.4631 C   0  0  0  0  0  0
  -29.2643  -20.3885   20.6617 C   0  0  0  0  0  0
  -28.5751  -23.3373   20.1798 C   0  0  0  0  0  0
  -29.2624  -21.0082   19.3637 C   0  0  0  0  0  0
  -28.9077  -21.3328   21.6984 C   0  0  0  0  0  0
  -30.7918  -18.6299   21.9302 C   0  0  0  0  0  0
  -31.5447  -17.9497   20.7859 C   0  0  0  0  0  0
  -29.5642  -18.8053   21.0101 C   0  0  2  0  0  0
  -30.1918  -17.4755   20.2376 C   0  0  2  0  0  0
  -29.5520  -20.1690   18.1324 C   0  0  0  0  0  0
  -28.7887  -20.8632   23.1415 C   0  0  0  0  0  0
  -27.8418  -24.7480   19.8469 C   0  0  0  0  0  0
  -29.8957  -16.0070   20.6845 N   0  0  0  0  0  0
  -31.4672  -12.6104   19.2056 H   0  0  0  0  0  0
  -30.3697  -11.5374   20.0157 H   0  0  0  0  0  0
  -29.8083  -11.7289   17.5663 H   0  0  0  0  0  0
  -29.6235  -13.4589   17.7287 H   0  0  0  0  0  0
  -27.9227  -11.2766   18.9725 H   0  0  0  0  0  0
  -27.3785  -12.4722   17.8272 H   0  0  0  0  0  0
  -27.6167  -14.2558   19.4476 H   0  0  0  0  0  0
  -28.7196  -12.2626   21.4871 H   0  0  0  0  0  0
  -28.3922  -13.9524   21.7752 H   0  0  0  0  0  0
  -25.2768   -9.5685   22.4765 H   0  0  0  0  0  0
  -24.0017   -7.4623   22.7461 H   0  0  0  0  0  0
  -21.0871   -8.8754   19.8915 H   0  0  0  0  0  0
  -22.3715  -10.9669   19.6156 H   0  0  0  0  0  0
  -21.2006   -7.6160   23.9707 H   0  0  0  0  0  0
  -21.1496   -6.0528   25.9066 H   0  0  0  0  0  0
  -22.0594   -2.7617   23.2818 H   0  0  0  0  0  0
  -22.4153  -11.9798   22.4763 H   0  0  0  0  0  0
  -21.1094  -13.1123   22.2731 H   0  0  0  0  0  0
  -24.6378  -15.8400   20.5029 H   0  0  0  0  0  0
  -26.2551  -15.6356   20.0651 H   0  0  0  0  0  0
  -26.7263  -32.5364   23.1045 H   0  0  0  0  0  0
  -25.0332  -33.9690   25.0517 H   0  0  0  0  0  0
  -22.7430  -31.3056   21.3986 H   0  0  0  0  0  0
  -23.3758  -35.9567   23.3291 H   0  0  0  0  0  0
  -24.3558  -36.8900   22.2059 H   0  0  0  0  0  0
  -23.7176  -37.6436   23.6678 H   0  0  0  0  0  0
  -26.1534  -31.4924   20.6225 H   0  0  0  0  0  0
  -26.8683  -30.7768   22.0349 H   0  0  0  0  0  0
  -28.1177  -28.8176   21.2458 H   0  0  0  0  0  0
  -25.8647  -25.9378   18.9166 H   0  0  0  0  0  0
  -23.9600  -27.3589   18.9563 H   0  0  0  0  0  0
  -23.7994  -30.6033   19.4071 H   0  0  0  0  0  0
  -22.7741  -29.2694   19.8446 H   0  0  0  0  0  0
  -25.1284  -36.1896   25.0811 H   0  0  0  0  0  0
  -21.0003  -28.3279   24.1357 H   0  0  0  0  0  0
  -20.5729  -26.2323   23.3592 H   0  0  0  0  0  0
  -21.6630  -26.7458   22.1148 H   0  0  0  0  0  0
  -19.6888  -25.6262   21.1293 H   0  0  0  0  0  0
  -19.6693  -27.3147   20.6751 H   0  0  0  0  0  0
  -17.4198  -26.6768   21.4000 H   0  0  0  0  0  0
  -18.0257  -26.0092   22.8988 H   0  0  0  0  0  0
  -19.7973  -30.7321   24.2212 H   0  0  0  0  0  0
  -17.5050  -31.6322   24.5139 H   0  0  0  0  0  0
  -15.5376  -30.3014   23.7725 H   0  0  0  0  0  0
  -15.8664  -28.0845   22.7135 H   0  0  0  0  0  0
  -24.5841  -30.7249   25.7786 H   0  0  0  0  0  0
  -24.8944  -32.3085   26.4832 H   0  0  0  0  0  0
  -25.7953  -30.9065   27.0297 H   0  0  0  0  0  0
  -26.3119  -29.6798   24.1258 H   0  0  0  0  0  0
  -27.4048  -29.7370   25.4897 H   0  0  0  0  0  0
  -27.8988  -30.4404   23.9684 H   0  0  0  0  0  0
  -27.2574  -33.3782   26.2051 H   0  0  0  0  0  0
  -28.3896  -32.6987   25.0472 H   0  0  0  0  0  0
  -28.0603  -31.8672   26.5610 H   0  0  0  0  0  0
  -28.2554  -38.0118   24.7558 H   0  0  0  0  0  0
  -28.1082  -36.2655   24.6236 H   0  0  0  0  0  0
  -27.2285  -37.1350   25.8866 H   0  0  0  0  0  0
  -20.9424  -29.8926   21.6973 H   0  0  0  0  0  0
  -26.0133  -38.2837   24.1483 H   0  0  0  0  0  0
  -28.8683  -22.7617   18.1326 H   0  0  0  0  0  0
  -28.2720  -23.3363   22.2962 H   0  0  0  0  0  0
  -31.2717  -19.5505   22.2610 H   0  0  0  0  0  0
  -30.6137  -17.9541   22.7691 H   0  0  0  0  0  0
  -32.2453  -17.1838   21.1164 H   0  0  0  0  0  0
  -32.0345  -18.6644   20.1219 H   0  0  0  0  0  0
  -28.6657  -18.4620   21.5232 H   0  0  0  0  0  0
  -30.1306  -17.5696   19.1546 H   0  0  0  0  0  0
  -29.6828  -20.7905   17.2447 H   0  0  0  0  0  0
  -28.7289  -19.4799   17.9369 H   0  0  0  0  0  0
  -30.4691  -19.5968   18.2565 H   0  0  0  0  0  0
  -28.2892  -21.6069   23.7632 H   0  0  0  0  0  0
  -29.7718  -20.6904   23.5744 H   0  0  0  0  0  0
  -28.2050  -19.9475   23.2226 H   0  0  0  0  0  0
  -26.8588  -24.5775   20.2859 H   0  0  0  0  0  0
  -27.6904  -24.7394   18.7664 H   0  0  0  0  0  0
  -28.9608  -15.8583   21.0342 H   0  0  0  0  0  0
  1 25  1  0  0  0
  1 30  2  0  0  0
  1 84  1  0  0  0
  2  3  1  0  0  0
  2 25  1  0  0  0
  2 85  1  0  0  0
  2 86  1  0  0  0
  3  4  1  0  0  0
  3 87  1  0  0  0
  3 88  1  0  0  0
  4  5  1  0  0  0
  4 89  1  0  0  0
  4 90  1  0  0  0
  5  6  1  0  0  0
  5 26  1  0  0  0
  5 91  1  0  0  0
  6 25  1  0  0  0
  6 92  1  0  0  0
  6 93  1  0  0  0
  7  8  2  0  0  0
  7 26  1  0  0  0
  7 29  1  0  0  0
  8  9  1  0  0  0
  8 22  1  0  0  0
  9 10  1  0  0  0
  9 27  2  0  0  0
 10 11  2  0  0  0
 10 15  1  0  0  0
 11 12  1  0  0  0
 11 94  1  0  0  0
 12 13  2  0  0  0
 12 95  1  0  0  0
 13 14  1  0  0  0
 13 31  1  0  0  0
 14 15  2  0  0  0
 14 96  1  0  0  0
 15 97  1  0  0  0
 16 17  2  0  0  0
 16 21  1  0  0  0
 16 31  1  0  0  0
 17 18  1  0  0  0
 17 98  1  0  0  0
 18 19  2  0  0  0
 18 99  1  0  0  0
 19 20  1  0  0  0
 19 24  1  0  0  0
 20 21  2  0  0  0
 20100  1  0  0  0
 21 23  1  0  0  0
 22 28  1  0  0  0
 22 32  2  0  0  0
 26 27  1  0  0  0
 28101  1  0  0  0
 28102  1  0  0  0
 29103  1  0  0  0
 29104  1  0  0  0
 33 34  1  0  0  0
 33 66  1  0  0  0
 33 70  2  0  0  0
 34 36  1  0  0  0
 34 59  1  0  0  0
 34105  1  0  0  0
 35 44  2  0  0  0
 35 45  1  0  0  0
 35 68  1  0  0  0
 36 56  1  0  0  0
 36106  1  0  0  0
 37 39  1  0  0  0
 37 47  1  0  0  0
 37 66  1  0  0  0
 37107  1  0  0  0
 38 43  2  0  0  0
 38 46  1  0  0  0
 38 47  1  0  0  0
 39 64  1  0  0  0
 39 67  2  0  0  0
 40 52  1  0  0  0
 40 53  2  0  0  0
 40 58  1  0  0  0
 41108  1  0  0  0
 41109  1  0  0  0
 41110  1  0  0  0
 41 48  1  0  0  0
 42 43  1  0  0  0
 42 66  1  0  0  0
 42111  1  0  0  0
 42112  1  0  0  0
 43 44  1  0  0  0
 44113  1  0  0  0
 45 46  2  0  0  0
 45114  1  0  0  0
 46115  1  0  0  0
 47116  1  0  0  0
 47117  1  0  0  0
 48 56  1  0  0  0
 48 65  1  0  0  0
 48118  1  0  0  0
 49 50  1  0  0  0
 49 53  1  0  0  0
 49 64  1  0  0  0
 49119  1  0  0  0
 50 51  1  0  0  0
 50120  1  0  0  0
 50121  1  0  0  0
 51 52  1  0  0  0
 51122  1  0  0  0
 51123  1  0  0  0
 52124  1  0  0  0
 52125  1  0  0  0
 53 54  1  0  0  0
 54 55  2  0  0  0
 54126  1  0  0  0
 55 57  1  0  0  0
 55127  1  0  0  0
 56 69  2  0  0  0
 57 58  2  0  0  0
 57128  1  0  0  0
 58129  1  0  0  0
 59 60  1  0  0  0
 59 61  1  0  0  0
 59 62  1  0  0  0
 60130  1  0  0  0
 60131  1  0  0  0
 60132  1  0  0  0
 61133  1  0  0  0
 61134  1  0  0  0
 61135  1  0  0  0
 62136  1  0  0  0
 62137  1  0  0  0
 62138  1  0  0  0
 63 65  1  0  0  0
 63139  1  0  0  0
 63140  1  0  0  0
 63141  1  0  0  0
 64142  1  0  0  0
 65143  1  0  0  0
 68 83  1  0  0  0
 71 74  2  0  0  0
 71 75  1  0  0  0
 71144  1  0  0  0
 72 74  1  0  0  0
 72 76  2  0  0  0
 72145  1  0  0  0
 73 75  2  0  0  0
 73 76  1  0  0  0
 73 79  1  0  0  0
 74 83  1  0  0  0
 75 81  1  0  0  0
 76 82  1  0  0  0
 77 78  1  0  0  0
 77 79  1  0  0  0
 77146  1  0  0  0
 77147  1  0  0  0
 78 80  1  0  0  0
 78148  1  0  0  0
 78149  1  0  0  0
 79 80  1  0  0  0
 79150  1  0  0  0
 80 84  1  0  0  0
 80151  1  0  0  0
 81152  1  0  0  0
 81153  1  0  0  0
 81154  1  0  0  0
 82155  1  0  0  0
 82156  1  0  0  0
 82157  1  0  0  0
 83158  1  0  0  0
 83159  1  0  0  0
 84160  1  0  0  0
M  ISO  4   1 100  68 101  83 101  84 100
M  END
> <chiral flag>
0

> <version>
0

> <s_m_source_file>
/data/baiqing/PycharmProjects/Reinvent-master-3.2/result/LINK_invent/BTK/process_docking_weight1_custom_sum_contain_oxygen_bond_distance_aromatic_linkinvent_7_9_3/rearranged_h_0142.sdf

> <i_m_source_file_index>
56

> <r_mmod_Potential_Energy-OPLS-2005>
408.122924804688

> <r_mmod_Stretch_Energy-OPLS-2005>
186.904632568359

> <r_mmod_Bend_Energy-OPLS-2005>
246.174789428711

> <r_mmod_Torsional_Energy-OPLS-2005>
259.404724121094

> <r_mmod_Improper_Torsional_Energy-OPLS-2005>
9.06070518493652

> <r_mmod_Van_der_Waal_Energy-OPLS-2005>
148.790435791016

> <r_mmod_Electrostatic_Energy-OPLS-2005>
-370.842529296875

> <r_mmod_Solvation_Energy-OPLS-2005>
-208.552749633789

> <b_mmod_Minimization_Converged-OPLS-2005>
0

> <r_mmod_RMS_Derivative-OPLS-2005>
2.95325326919556

$$$$
57
                    3D
 Structure written by MMmdl.
167176  0  0  1  0            999 V2000
  -30.6734  -14.5595   20.4978 C   0  0  0  0  0  0
  -30.4271  -12.3389   19.4420 C   0  0  0  0  0  0
  -29.4980  -12.4830   18.2183 C   0  0  0  0  0  0
  -28.0220  -12.3328   18.6356 C   0  0  0  0  0  0
  -27.6537  -13.2009   19.8680 C   0  0  2  0  0  0
  -28.7023  -13.0520   20.9946 C   0  0  0  0  0  0
  -25.2586  -13.8115   20.5791 C   0  0  0  0  0  0
  -24.1826  -13.0396   20.9237 C   0  0  0  0  0  0
  -24.6381  -11.6872   20.8749 C   0  0  0  0  0  0
  -23.9043  -10.4269   21.0406 C   0  0  0  0  0  0
  -24.3595   -9.4195   21.9190 C   0  0  0  0  0  0
  -23.6285   -8.2225   22.0754 C   0  0  0  0  0  0
  -22.4270   -8.0262   21.3540 C   0  0  0  0  0  0
  -21.9895   -9.0231   20.4641 C   0  0  0  0  0  0
  -22.7214  -10.2116   20.3059 C   0  0  0  0  0  0
  -21.6843   -6.0731   22.5283 C   0  0  0  0  0  0
  -21.4010   -6.5639   23.8217 C   0  0  0  0  0  0
  -21.3652   -5.6791   24.9176 C   0  0  0  0  0  0
  -21.6050   -4.3057   24.7231 C   0  0  0  0  0  0
  -21.8818   -3.8146   23.4352 C   0  0  0  0  0  0
  -21.9195   -4.6960   22.3406 C   0  0  0  0  0  0
  -22.7858  -13.5221   21.1875 C   0  0  0  0  0  0
  -22.1665   -4.2148   21.0982 F   0  0  0  0  0  0
  -21.5622   -3.4540   25.7742 F   0  0  0  0  0  0
  -30.0239  -13.3606   20.4254 N   0  0  0  0  0  0
  -26.2986  -12.9270   20.3359 N   0  0  0  0  0  0
  -25.9298  -11.6437   20.5766 N   0  0  0  0  0  0
  -22.0482  -12.8207   22.0410 N   0  0  0  0  0  0
  -25.4280  -15.1830   20.4329 N   0  0  0  0  0  0
  -31.8327  -14.7009   20.1034 O   0  0  0  0  0  0
  -21.6632   -6.8865   21.4243 O   0  0  0  0  0  0
  -22.3563  -14.5530   20.6718 O   0  0  0  0  0  0
  -24.6224  -31.8654   23.2071 C   0  0  0  0  0  0
  -25.9104  -32.4806   23.8384 C   0  0  1  0  0  0
  -27.2233  -27.3736   20.0965 C   0  0  0  0  0  0
  -25.5965  -33.8612   24.2328 N   0  0  0  0  0  0
  -23.4123  -30.4869   21.5526 C   0  0  2  0  0  0
  -24.8573  -28.9564   20.1100 C   0  0  0  0  0  0
  -22.7467  -29.4604   22.5000 C   0  0  0  0  0  0
  -18.0269  -28.1332   22.8476 C   0  0  0  0  0  0
  -24.1512  -36.7295   23.2635 C   0  0  0  0  0  0
  -25.9499  -30.8087   21.3744 C   0  0  0  0  0  0
  -26.0242  -29.4429   20.7126 C   0  0  0  0  0  0
  -27.2116  -28.6618   20.6999 C   0  0  0  0  0  0
  -26.0328  -26.9312   19.4692 C   0  0  0  0  0  0
  -24.8600  -27.7046   19.4808 C   0  0  0  0  0  0
  -23.6230  -29.8276   20.1651 C   0  0  0  0  0  0
  -25.4124  -36.3085   24.0332 C   0  0  1  0  0  0
  -20.5874  -28.3634   23.1298 C   0  0  2  0  0  0
  -20.6779  -26.9376   22.5399 C   0  0  0  0  0  0
  -19.5759  -26.6354   21.5194 C   0  0  0  0  0  0
  -18.1925  -26.7871   22.1594 C   0  0  0  0  0  0
  -19.1524  -28.8810   23.2866 C   0  0  0  0  0  0
  -18.9453  -30.1423   23.8858 C   0  0  0  0  0  0
  -17.6456  -30.6552   24.0534 C   0  0  0  0  0  0
  -25.9063  -34.9461   23.5114 C   0  0  0  0  0  0
  -16.5348  -29.9042   23.6320 C   0  0  0  0  0  0
  -16.7259  -28.6465   23.0331 C   0  0  0  0  0  0
  -26.4501  -31.6581   25.0733 C   0  0  0  0  0  0
  -25.3741  -31.3688   26.1469 C   0  0  0  0  0  0
  -27.0348  -30.3026   24.6139 C   0  0  0  0  0  0
  -27.6075  -32.4317   25.7489 C   0  0  0  0  0  0
  -27.5591  -37.1804   24.8462 C   0  0  0  0  0  0
  -21.4192  -29.3002   22.3725 N   0  0  0  0  0  0
  -26.4306  -37.3771   23.9396 N   0  0  0  0  0  0
  -24.6796  -31.0692   22.1012 N   0  0  0  0  0  0
  -23.4212  -28.8160   23.3073 O   0  0  0  0  0  0
  -28.3576  -26.5615   20.1445 O   0  0  0  0  0  0
  -26.5614  -34.8913   22.4669 O   0  0  0  0  0  0
  -23.5400  -32.1442   23.7445 O   0  0  0  0  0  0
  -27.4590  -19.7159   19.6800 C   0  0  0  0  0  0
  -26.5868  -18.9538   18.8853 C   0  0  0  0  0  0
  -28.1289  -17.0892   19.0151 C   0  0  0  0  0  0
  -28.6790  -19.1880   20.1589 C   0  0  0  0  0  0
  -28.9804  -17.8129   19.8783 C   0  0  0  0  0  0
  -26.9215  -17.6286   18.5376 C   0  0  0  0  0  0
  -30.8806  -19.3396   21.4298 C   0  0  0  0  0  0
  -30.6975  -17.8346   21.7297 C   0  0  0  0  0  0
  -29.5763  -20.0834   21.0432 C   0  0  1  0  0  0
  -30.1822  -17.0705   20.4958 C   0  0  1  0  0  0
  -24.7556  -17.1857   17.6235 C   0  0  0  0  0  0
  -29.9325  -21.5333   20.5056 C   0  0  0  0  0  0
  -28.8179  -22.6311   20.3670 C   0  0  0  0  0  0
  -29.2728  -24.1378   20.3661 C   0  0  0  0  0  0
  -28.1324  -25.1305   19.9707 C   0  0  0  0  0  0
  -29.9064  -15.6359   20.8055 N   0  0  0  0  0  0
  -26.1191  -16.8066   17.7789 O   0  0  0  0  0  0
  -31.4709  -12.4379   19.1379 H   0  0  0  0  0  0
  -30.3351  -11.3430   19.8777 H   0  0  0  0  0  0
  -29.7479  -11.7325   17.4670 H   0  0  0  0  0  0
  -29.6509  -13.4545   17.7441 H   0  0  0  0  0  0
  -27.8524  -11.2805   18.8667 H   0  0  0  0  0  0
  -27.3637  -12.5652   17.7973 H   0  0  0  0  0  0
  -27.6684  -14.2327   19.5306 H   0  0  0  0  0  0
  -28.6990  -12.0345   21.3885 H   0  0  0  0  0  0
  -28.4656  -13.7001   21.8399 H   0  0  0  0  0  0
  -25.2738   -9.5674   22.4763 H   0  0  0  0  0  0
  -23.9993   -7.4619   22.7472 H   0  0  0  0  0  0
  -21.0826   -8.8749   19.8944 H   0  0  0  0  0  0
  -22.3677  -10.9657   19.6169 H   0  0  0  0  0  0
  -21.1997   -7.6150   23.9716 H   0  0  0  0  0  0
  -21.1477   -6.0525   25.9078 H   0  0  0  0  0  0
  -22.0606   -2.7612   23.2855 H   0  0  0  0  0  0
  -22.4083  -11.9868   22.4798 H   0  0  0  0  0  0
  -21.1103  -13.1231   22.2597 H   0  0  0  0  0  0
  -24.6530  -15.8234   20.5568 H   0  0  0  0  0  0
  -26.2401  -15.6254   20.0208 H   0  0  0  0  0  0
  -26.7190  -32.5493   23.1153 H   0  0  0  0  0  0
  -25.0153  -33.9757   25.0505 H   0  0  0  0  0  0
  -22.7015  -31.3043   21.4162 H   0  0  0  0  0  0
  -23.3778  -35.9634   23.3297 H   0  0  0  0  0  0
  -24.3598  -36.8919   22.2051 H   0  0  0  0  0  0
  -23.7281  -37.6499   23.6654 H   0  0  0  0  0  0
  -26.0811  -31.5796   20.6130 H   0  0  0  0  0  0
  -26.8292  -30.8500   22.0055 H   0  0  0  0  0  0
  -28.1095  -29.0273   21.1785 H   0  0  0  0  0  0
  -25.9723  -25.9807   18.9613 H   0  0  0  0  0  0
  -23.9662  -27.3269   19.0031 H   0  0  0  0  0  0
  -23.7319  -30.6055   19.4092 H   0  0  0  0  0  0
  -22.7454  -29.2491   19.8685 H   0  0  0  0  0  0
  -25.1305  -36.1945   25.0828 H   0  0  0  0  0  0
  -20.9916  -28.3212   24.1435 H   0  0  0  0  0  0
  -20.5707  -26.2245   23.3586 H   0  0  0  0  0  0
  -21.6655  -26.7442   22.1183 H   0  0  0  0  0  0
  -19.6947  -25.6270   21.1211 H   0  0  0  0  0  0
  -19.6703  -27.3184   20.6743 H   0  0  0  0  0  0
  -17.4208  -26.6607   21.3977 H   0  0  0  0  0  0
  -18.0315  -25.9992   22.8970 H   0  0  0  0  0  0
  -19.7954  -30.7214   24.2215 H   0  0  0  0  0  0
  -17.5025  -31.6227   24.5141 H   0  0  0  0  0  0
  -15.5349  -30.2918   23.7677 H   0  0  0  0  0  0
  -15.8649  -28.0777   22.7052 H   0  0  0  0  0  0
  -24.5918  -30.7035   25.7801 H   0  0  0  0  0  0
  -24.8919  -32.2843   26.4911 H   0  0  0  0  0  0
  -25.8072  -30.8851   27.0237 H   0  0  0  0  0  0
  -26.2910  -29.6771   24.1202 H   0  0  0  0  0  0
  -27.4141  -29.7267   25.4581 H   0  0  0  0  0  0
  -27.8724  -30.4339   23.9293 H   0  0  0  0  0  0
  -27.2697  -33.3630   26.2037 H   0  0  0  0  0  0
  -28.3874  -32.6873   25.0304 H   0  0  0  0  0  0
  -28.0746  -31.8456   26.5409 H   0  0  0  0  0  0
  -28.2594  -38.0119   24.7514 H   0  0  0  0  0  0
  -28.1102  -36.2641   24.6277 H   0  0  0  0  0  0
  -27.2293  -37.1438   25.8864 H   0  0  0  0  0  0
  -20.9391  -29.8709   21.6909 H   0  0  0  0  0  0
  -26.0190  -38.2853   24.1393 H   0  0  0  0  0  0
  -27.1481  -20.7126   19.9428 H   0  0  0  0  0  0
  -25.6658  -19.4113   18.5545 H   0  0  0  0  0  0
  -28.3858  -16.0811   18.7318 H   0  0  0  0  0  0
  -31.5916  -19.4276   20.6067 H   0  0  0  0  0  0
  -31.3461  -19.8396   22.2816 H   0  0  0  0  0  0
  -29.9973  -17.7182   22.5593 H   0  0  0  0  0  0
  -31.6430  -17.4061   22.0612 H   0  0  0  0  0  0
  -29.0115  -20.2174   21.9677 H   0  0  0  0  0  0
  -30.9621  -17.1063   19.7316 H   0  0  0  0  0  0
  -24.1946  -16.3560   17.1943 H   0  0  0  0  0  0
  -24.6512  -18.0418   16.9556 H   0  0  0  0  0  0
  -24.2923  -17.4284   18.5824 H   0  0  0  0  0  0
  -30.4589  -21.4435   19.5549 H   0  0  0  0  0  0
  -30.6711  -21.9443   21.1935 H   0  0  0  0  0  0
  -28.0945  -22.4994   21.1715 H   0  0  0  0  0  0
  -28.2785  -22.4524   19.4365 H   0  0  0  0  0  0
  -30.1097  -24.2676   19.6798 H   0  0  0  0  0  0
  -29.6422  -24.3995   21.3581 H   0  0  0  0  0  0
  -27.2535  -24.8446   20.5524 H   0  0  0  0  0  0
  -27.8943  -24.9476   18.9218 H   0  0  0  0  0  0
  -28.9716  -15.4295   21.1209 H   0  0  0  0  0  0
  1 25  1  0  0  0
  1 30  2  0  0  0
  1 86  1  0  0  0
  2  3  1  0  0  0
  2 25  1  0  0  0
  2 88  1  0  0  0
  2 89  1  0  0  0
  3  4  1  0  0  0
  3 90  1  0  0  0
  3 91  1  0  0  0
  4  5  1  0  0  0
  4 92  1  0  0  0
  4 93  1  0  0  0
  5  6  1  0  0  0
  5 26  1  0  0  0
  5 94  1  0  0  0
  6 25  1  0  0  0
  6 95  1  0  0  0
  6 96  1  0  0  0
  7  8  2  0  0  0
  7 26  1  0  0  0
  7 29  1  0  0  0
  8  9  1  0  0  0
  8 22  1  0  0  0
  9 10  1  0  0  0
  9 27  2  0  0  0
 10 11  2  0  0  0
 10 15  1  0  0  0
 11 12  1  0  0  0
 11 97  1  0  0  0
 12 13  2  0  0  0
 12 98  1  0  0  0
 13 14  1  0  0  0
 13 31  1  0  0  0
 14 15  2  0  0  0
 14 99  1  0  0  0
 15100  1  0  0  0
 16 17  2  0  0  0
 16 21  1  0  0  0
 16 31  1  0  0  0
 17 18  1  0  0  0
 17101  1  0  0  0
 18 19  2  0  0  0
 18102  1  0  0  0
 19 20  1  0  0  0
 19 24  1  0  0  0
 20 21  2  0  0  0
 20103  1  0  0  0
 21 23  1  0  0  0
 22 28  1  0  0  0
 22 32  2  0  0  0
 26 27  1  0  0  0
 28104  1  0  0  0
 28105  1  0  0  0
 29106  1  0  0  0
 29107  1  0  0  0
 33 34  1  0  0  0
 33 66  1  0  0  0
 33 70  2  0  0  0
 34 36  1  0  0  0
 34 59  1  0  0  0
 34108  1  0  0  0
 35 44  2  0  0  0
 35 45  1  0  0  0
 35 68  1  0  0  0
 36 56  1  0  0  0
 36109  1  0  0  0
 37 39  1  0  0  0
 37 47  1  0  0  0
 37 66  1  0  0  0
 37110  1  0  0  0
 38 43  2  0  0  0
 38 46  1  0  0  0
 38 47  1  0  0  0
 39 64  1  0  0  0
 39 67  2  0  0  0
 40 52  1  0  0  0
 40 53  2  0  0  0
 40 58  1  0  0  0
 41111  1  0  0  0
 41112  1  0  0  0
 41113  1  0  0  0
 41 48  1  0  0  0
 42 43  1  0  0  0
 42 66  1  0  0  0
 42114  1  0  0  0
 42115  1  0  0  0
 43 44  1  0  0  0
 44116  1  0  0  0
 45 46  2  0  0  0
 45117  1  0  0  0
 46118  1  0  0  0
 47119  1  0  0  0
 47120  1  0  0  0
 48 56  1  0  0  0
 48 65  1  0  0  0
 48121  1  0  0  0
 49 50  1  0  0  0
 49 53  1  0  0  0
 49 64  1  0  0  0
 49122  1  0  0  0
 50 51  1  0  0  0
 50123  1  0  0  0
 50124  1  0  0  0
 51 52  1  0  0  0
 51125  1  0  0  0
 51126  1  0  0  0
 52127  1  0  0  0
 52128  1  0  0  0
 53 54  1  0  0  0
 54 55  2  0  0  0
 54129  1  0  0  0
 55 57  1  0  0  0
 55130  1  0  0  0
 56 69  2  0  0  0
 57 58  2  0  0  0
 57131  1  0  0  0
 58132  1  0  0  0
 59 60  1  0  0  0
 59 61  1  0  0  0
 59 62  1  0  0  0
 60133  1  0  0  0
 60134  1  0  0  0
 60135  1  0  0  0
 61136  1  0  0  0
 61137  1  0  0  0
 61138  1  0  0  0
 62139  1  0  0  0
 62140  1  0  0  0
 62141  1  0  0  0
 63 65  1  0  0  0
 63142  1  0  0  0
 63143  1  0  0  0
 63144  1  0  0  0
 64145  1  0  0  0
 65146  1  0  0  0
 68 85  1  0  0  0
 71 72  2  0  0  0
 71 74  1  0  0  0
 71147  1  0  0  0
 72 76  1  0  0  0
 72148  1  0  0  0
 73 75  1  0  0  0
 73 76  2  0  0  0
 73149  1  0  0  0
 74 75  2  0  0  0
 74 79  1  0  0  0
 75 80  1  0  0  0
 76 87  1  0  0  0
 77 78  1  0  0  0
 77 79  1  0  0  0
 77150  1  0  0  0
 77151  1  0  0  0
 78 80  1  0  0  0
 78152  1  0  0  0
 78153  1  0  0  0
 79 82  1  0  0  0
 79154  1  0  0  0
 80 86  1  0  0  0
 80155  1  0  0  0
 81 87  1  0  0  0
 81156  1  0  0  0
 81157  1  0  0  0
 81158  1  0  0  0
 82 83  1  0  0  0
 82159  1  0  0  0
 82160  1  0  0  0
 83 84  1  0  0  0
 83161  1  0  0  0
 83162  1  0  0  0
 84 85  1  0  0  0
 84163  1  0  0  0
 84164  1  0  0  0
 85165  1  0  0  0
 85166  1  0  0  0
 86167  1  0  0  0
M  ISO  4   1 100  68 101  85 101  86 100
M  END
> <chiral flag>
0

> <version>
0

> <s_m_source_file>
/data/baiqing/PycharmProjects/Reinvent-master-3.2/result/LINK_invent/BTK/process_docking_weight1_custom_sum_contain_oxygen_bond_distance_aromatic_linkinvent_7_9_3/rearranged_h_0142.sdf

> <i_m_source_file_index>
57

> <r_mmod_Potential_Energy-OPLS-2005>
-34.0467109680176

> <r_mmod_Stretch_Energy-OPLS-2005>
57.7360877990723

> <r_mmod_Bend_Energy-OPLS-2005>
122.313636779785

> <r_mmod_Torsional_Energy-OPLS-2005>
218.366622924805

> <r_mmod_Improper_Torsional_Energy-OPLS-2005>
6.09348440170288

> <r_mmod_Van_der_Waal_Energy-OPLS-2005>
156.182037353516

> <r_mmod_Electrostatic_Energy-OPLS-2005>
-428.808776855469

> <r_mmod_Solvation_Energy-OPLS-2005>
-195.51741027832

> <b_mmod_Minimization_Converged-OPLS-2005>
0

> <r_mmod_RMS_Derivative-OPLS-2005>
2.60372567176819

$$$$
58
                    3D
 Structure written by MMmdl.
162171  0  0  1  0            999 V2000
  -30.7888  -14.3556   20.6738 C   0  0  0  0  0  0
  -30.4165  -12.2793   19.3957 C   0  0  0  0  0  0
  -29.4868  -12.5104   18.1917 C   0  0  0  0  0  0
  -28.0099  -12.3796   18.6096 C   0  0  0  0  0  0
  -27.6698  -13.2051   19.8782 C   0  0  2  0  0  0
  -28.7096  -12.9577   20.9937 C   0  0  0  0  0  0
  -25.2638  -13.8160   20.5694 C   0  0  0  0  0  0
  -24.1873  -13.0440   20.9160 C   0  0  0  0  0  0
  -24.6424  -11.6904   20.8724 C   0  0  0  0  0  0
  -23.9090  -10.4288   21.0386 C   0  0  0  0  0  0
  -24.3636   -9.4198   21.9176 C   0  0  0  0  0  0
  -23.6295   -8.2246   22.0761 C   0  0  0  0  0  0
  -22.4279   -8.0283   21.3551 C   0  0  0  0  0  0
  -21.9922   -9.0258   20.4645 C   0  0  0  0  0  0
  -22.7263  -10.2122   20.3039 C   0  0  0  0  0  0
  -21.6864   -6.0734   22.5281 C   0  0  0  0  0  0
  -21.4016   -6.5635   23.8216 C   0  0  0  0  0  0
  -21.3649   -5.6781   24.9175 C   0  0  0  0  0  0
  -21.6045   -4.3047   24.7220 C   0  0  0  0  0  0
  -21.8830   -3.8145   23.4342 C   0  0  0  0  0  0
  -21.9201   -4.6961   22.3401 C   0  0  0  0  0  0
  -22.7895  -13.5239   21.1812 C   0  0  0  0  0  0
  -22.1672   -4.2151   21.0975 F   0  0  0  0  0  0
  -21.5621   -3.4527   25.7731 F   0  0  0  0  0  0
  -30.0523  -13.2367   20.4507 N   0  0  0  0  0  0
  -26.3083  -12.9330   20.3389 N   0  0  0  0  0  0
  -25.9350  -11.6482   20.5759 N   0  0  0  0  0  0
  -22.0532  -12.8224   22.0357 N   0  0  0  0  0  0
  -25.4344  -15.1871   20.4103 N   0  0  0  0  0  0
  -31.8055  -14.6385   20.0345 O   0  0  0  0  0  0
  -21.6644   -6.8883   21.4244 O   0  0  0  0  0  0
  -22.3579  -14.5542   20.6662 O   0  0  0  0  0  0
  -24.6143  -31.8667   23.2103 C   0  0  0  0  0  0
  -25.9032  -32.4822   23.8403 C   0  0  1  0  0  0
  -27.2407  -27.4334   20.0905 C   0  0  0  0  0  0
  -25.5887  -33.8616   24.2328 N   0  0  0  0  0  0
  -23.4031  -30.4943   21.5484 C   0  0  2  0  0  0
  -24.8494  -28.9655   20.1111 C   0  0  0  0  0  0
  -22.7414  -29.4658   22.4954 C   0  0  0  0  0  0
  -18.0273  -28.1384   22.8515 C   0  0  0  0  0  0
  -24.1453  -36.7254   23.2646 C   0  0  0  0  0  0
  -25.9342  -30.8371   21.3631 C   0  0  0  0  0  0
  -26.0102  -29.4726   20.7061 C   0  0  0  0  0  0
  -27.2045  -28.7145   20.6940 C   0  0  0  0  0  0
  -26.0552  -26.9537   19.4785 C   0  0  0  0  0  0
  -24.8664  -27.7053   19.4958 C   0  0  0  0  0  0
  -23.6112  -29.8309   20.1621 C   0  0  0  0  0  0
  -25.4088  -36.3092   24.0355 C   0  0  1  0  0  0
  -20.5878  -28.3653   23.1311 C   0  0  2  0  0  0
  -20.6766  -26.9383   22.5411 C   0  0  0  0  0  0
  -19.5734  -26.6385   21.5218 C   0  0  0  0  0  0
  -18.1910  -26.7945   22.1623 C   0  0  0  0  0  0
  -19.1533  -28.8844   23.2910 C   0  0  0  0  0  0
  -18.9465  -30.1474   23.8878 C   0  0  0  0  0  0
  -17.6473  -30.6595   24.0593 C   0  0  0  0  0  0
  -25.9046  -34.9480   23.5145 C   0  0  0  0  0  0
  -16.5357  -29.9111   23.6360 C   0  0  0  0  0  0
  -16.7264  -28.6532   23.0361 C   0  0  0  0  0  0
  -26.4458  -31.6602   25.0728 C   0  0  0  0  0  0
  -25.3742  -31.3709   26.1494 C   0  0  0  0  0  0
  -27.0317  -30.3062   24.6106 C   0  0  0  0  0  0
  -27.6022  -32.4324   25.7492 C   0  0  0  0  0  0
  -27.5558  -37.1787   24.8485 C   0  0  0  0  0  0
  -21.4140  -29.3013   22.3686 N   0  0  0  0  0  0
  -26.4247  -37.3800   23.9455 N   0  0  0  0  0  0
  -24.6685  -31.0814   22.0982 N   0  0  0  0  0  0
  -23.4196  -28.8216   23.2993 O   0  0  0  0  0  0
  -28.4198  -26.7044   20.1339 O   0  0  0  0  0  0
  -26.5584  -34.8936   22.4694 O   0  0  0  0  0  0
  -23.5341  -32.1364   23.7530 O   0  0  0  0  0  0
  -30.4593  -21.7064   20.7365 C   0  0  0  0  0  0
  -30.6528  -20.3098   20.8085 C   0  0  0  0  0  0
  -28.2339  -21.4300   21.6595 C   0  0  0  0  0  0
  -28.4179  -20.0310   21.7411 C   0  0  0  0  0  0
  -29.2420  -22.2811   21.1653 C   0  0  0  0  0  0
  -29.6451  -19.4576   21.3286 C   0  0  0  0  0  0
  -26.4777  -19.5522   23.4625 C   0  0  0  0  0  0
  -27.4409  -18.3926   23.5487 C   0  0  0  0  0  0
  -27.3029  -19.1627   22.2566 C   0  0  0  0  0  0
  -31.1611  -16.2365   22.2368 C   0  0  0  0  0  0
  -31.0923  -17.5173   21.3829 C   0  0  0  0  0  0
  -28.4356  -25.3724   19.5904 C   0  0  0  0  0  0
  -29.5575  -24.4675   20.1513 C   0  0  0  0  0  0
  -30.3918  -15.1171   21.6931 N   0  0  0  0  0  0
  -28.9888  -23.6382   21.1730 O   0  0  0  0  0  0
  -29.7857  -18.0875   21.4619 O   0  0  0  0  0  0
  -31.4616  -12.3687   19.0899 H   0  0  0  0  0  0
  -30.3095  -11.2597   19.7711 H   0  0  0  0  0  0
  -29.7133  -11.7943   17.4006 H   0  0  0  0  0  0
  -29.6672  -13.5003   17.7715 H   0  0  0  0  0  0
  -27.8084  -11.3231   18.7896 H   0  0  0  0  0  0
  -27.3591  -12.6754   17.7861 H   0  0  0  0  0  0
  -27.7273  -14.2588   19.6018 H   0  0  0  0  0  0
  -28.6727  -11.9191   21.3250 H   0  0  0  0  0  0
  -28.4645  -13.5520   21.8733 H   0  0  0  0  0  0
  -25.2784   -9.5669   22.4741 H   0  0  0  0  0  0
  -24.0014   -7.4636   22.7475 H   0  0  0  0  0  0
  -21.0872   -8.8763   19.8940 H   0  0  0  0  0  0
  -22.3742  -10.9647   19.6130 H   0  0  0  0  0  0
  -21.2013   -7.6142   23.9718 H   0  0  0  0  0  0
  -21.1449   -6.0506   25.9075 H   0  0  0  0  0  0
  -22.0615   -2.7606   23.2834 H   0  0  0  0  0  0
  -22.4161  -11.9887   22.4732 H   0  0  0  0  0  0
  -21.1125  -13.1213   22.2519 H   0  0  0  0  0  0
  -24.6715  -15.8419   20.5401 H   0  0  0  0  0  0
  -26.2934  -15.6295   20.1086 H   0  0  0  0  0  0
  -26.7116  -32.5524   23.1179 H   0  0  0  0  0  0
  -25.0093  -33.9776   25.0525 H   0  0  0  0  0  0
  -22.6929  -31.3129   21.4134 H   0  0  0  0  0  0
  -23.3745  -35.9556   23.3330 H   0  0  0  0  0  0
  -24.3556  -36.8825   22.2054 H   0  0  0  0  0  0
  -23.7165  -37.6453   23.6637 H   0  0  0  0  0  0
  -26.0601  -31.6146   20.6073 H   0  0  0  0  0  0
  -26.8173  -30.8772   21.9882 H   0  0  0  0  0  0
  -28.1000  -29.1122   21.1528 H   0  0  0  0  0  0
  -26.0108  -26.0041   18.9711 H   0  0  0  0  0  0
  -23.9745  -27.3081   19.0298 H   0  0  0  0  0  0
  -23.7201  -30.6068   19.4027 H   0  0  0  0  0  0
  -22.7368  -29.2499   19.8636 H   0  0  0  0  0  0
  -25.1269  -36.1924   25.0844 H   0  0  0  0  0  0
  -21.0007  -28.3205   24.1421 H   0  0  0  0  0  0
  -20.5678  -26.2251   23.3597 H   0  0  0  0  0  0
  -21.6641  -26.7425   22.1199 H   0  0  0  0  0  0
  -19.6884  -25.6305   21.1222 H   0  0  0  0  0  0
  -19.6688  -27.3239   20.6786 H   0  0  0  0  0  0
  -17.4202  -26.6733   21.3995 H   0  0  0  0  0  0
  -18.0266  -26.0080   22.8999 H   0  0  0  0  0  0
  -19.7946  -30.7320   24.2176 H   0  0  0  0  0  0
  -17.5034  -31.6264   24.5219 H   0  0  0  0  0  0
  -15.5366  -30.3020   23.7712 H   0  0  0  0  0  0
  -15.8655  -28.0888   22.7048 H   0  0  0  0  0  0
  -24.5932  -30.7010   25.7886 H   0  0  0  0  0  0
  -24.8904  -32.2857   26.4917 H   0  0  0  0  0  0
  -25.8117  -30.8933   27.0269 H   0  0  0  0  0  0
  -26.2880  -29.6809   24.1145 H   0  0  0  0  0  0
  -27.4105  -29.7295   25.4555 H   0  0  0  0  0  0
  -27.8707  -30.4428   23.9279 H   0  0  0  0  0  0
  -27.2639  -33.3638   26.2045 H   0  0  0  0  0  0
  -28.3842  -32.6840   25.0322 H   0  0  0  0  0  0
  -28.0676  -31.8458   26.5418 H   0  0  0  0  0  0
  -28.2596  -38.0068   24.7552 H   0  0  0  0  0  0
  -28.1006  -36.2603   24.6262 H   0  0  0  0  0  0
  -27.2289  -37.1406   25.8889 H   0  0  0  0  0  0
  -20.9267  -29.8702   21.6905 H   0  0  0  0  0  0
  -26.0107  -38.2852   24.1514 H   0  0  0  0  0  0
  -31.2673  -22.3255   20.3710 H   0  0  0  0  0  0
  -31.5931  -19.9118   20.4594 H   0  0  0  0  0  0
  -27.2940  -21.8596   21.9802 H   0  0  0  0  0  0
  -26.7423  -20.4599   24.0018 H   0  0  0  0  0  0
  -25.4154  -19.3096   23.4527 H   0  0  0  0  0  0
  -27.0156  -17.3907   23.5807 H   0  0  0  0  0  0
  -28.3447  -18.5370   24.1371 H   0  0  0  0  0  0
  -26.7878  -18.6680   21.4350 H   0  0  0  0  0  0
  -30.8172  -16.4436   23.2505 H   0  0  0  0  0  0
  -32.2044  -15.9285   22.3306 H   0  0  0  0  0  0
  -31.3574  -17.3224   20.3416 H   0  0  0  0  0  0
  -31.8442  -18.1966   21.7840 H   0  0  0  0  0  0
  -27.5069  -24.8343   19.7723 H   0  0  0  0  0  0
  -28.5495  -25.4651   18.5097 H   0  0  0  0  0  0
  -30.3927  -25.0485   20.5454 H   0  0  0  0  0  0
  -29.9464  -23.8687   19.3254 H   0  0  0  0  0  0
  -29.5559  -14.8348   22.1848 H   0  0  0  0  0  0
  1 25  1  0  0  0
  1 30  2  0  0  0
  1 84  1  0  0  0
  2  3  1  0  0  0
  2 25  1  0  0  0
  2 87  1  0  0  0
  2 88  1  0  0  0
  3  4  1  0  0  0
  3 89  1  0  0  0
  3 90  1  0  0  0
  4  5  1  0  0  0
  4 91  1  0  0  0
  4 92  1  0  0  0
  5  6  1  0  0  0
  5 26  1  0  0  0
  5 93  1  0  0  0
  6 25  1  0  0  0
  6 94  1  0  0  0
  6 95  1  0  0  0
  7  8  2  0  0  0
  7 26  1  0  0  0
  7 29  1  0  0  0
  8  9  1  0  0  0
  8 22  1  0  0  0
  9 10  1  0  0  0
  9 27  2  0  0  0
 10 11  2  0  0  0
 10 15  1  0  0  0
 11 12  1  0  0  0
 11 96  1  0  0  0
 12 13  2  0  0  0
 12 97  1  0  0  0
 13 14  1  0  0  0
 13 31  1  0  0  0
 14 15  2  0  0  0
 14 98  1  0  0  0
 15 99  1  0  0  0
 16 17  2  0  0  0
 16 21  1  0  0  0
 16 31  1  0  0  0
 17 18  1  0  0  0
 17100  1  0  0  0
 18 19  2  0  0  0
 18101  1  0  0  0
 19 20  1  0  0  0
 19 24  1  0  0  0
 20 21  2  0  0  0
 20102  1  0  0  0
 21 23  1  0  0  0
 22 28  1  0  0  0
 22 32  2  0  0  0
 26 27  1  0  0  0
 28103  1  0  0  0
 28104  1  0  0  0
 29105  1  0  0  0
 29106  1  0  0  0
 33 34  1  0  0  0
 33 66  1  0  0  0
 33 70  2  0  0  0
 34 36  1  0  0  0
 34 59  1  0  0  0
 34107  1  0  0  0
 35 44  2  0  0  0
 35 45  1  0  0  0
 35 68  1  0  0  0
 36 56  1  0  0  0
 36108  1  0  0  0
 37 39  1  0  0  0
 37 47  1  0  0  0
 37 66  1  0  0  0
 37109  1  0  0  0
 38 43  2  0  0  0
 38 46  1  0  0  0
 38 47  1  0  0  0
 39 64  1  0  0  0
 39 67  2  0  0  0
 40 52  1  0  0  0
 40 53  2  0  0  0
 40 58  1  0  0  0
 41110  1  0  0  0
 41111  1  0  0  0
 41112  1  0  0  0
 41 48  1  0  0  0
 42 43  1  0  0  0
 42 66  1  0  0  0
 42113  1  0  0  0
 42114  1  0  0  0
 43 44  1  0  0  0
 44115  1  0  0  0
 45 46  2  0  0  0
 45116  1  0  0  0
 46117  1  0  0  0
 47118  1  0  0  0
 47119  1  0  0  0
 48 56  1  0  0  0
 48 65  1  0  0  0
 48120  1  0  0  0
 49 50  1  0  0  0
 49 53  1  0  0  0
 49 64  1  0  0  0
 49121  1  0  0  0
 50 51  1  0  0  0
 50122  1  0  0  0
 50123  1  0  0  0
 51 52  1  0  0  0
 51124  1  0  0  0
 51125  1  0  0  0
 52126  1  0  0  0
 52127  1  0  0  0
 53 54  1  0  0  0
 54 55  2  0  0  0
 54128  1  0  0  0
 55 57  1  0  0  0
 55129  1  0  0  0
 56 69  2  0  0  0
 57 58  2  0  0  0
 57130  1  0  0  0
 58131  1  0  0  0
 59 60  1  0  0  0
 59 61  1  0  0  0
 59 62  1  0  0  0
 60132  1  0  0  0
 60133  1  0  0  0
 60134  1  0  0  0
 61135  1  0  0  0
 61136  1  0  0  0
 61137  1  0  0  0
 62138  1  0  0  0
 62139  1  0  0  0
 62140  1  0  0  0
 63 65  1  0  0  0
 63141  1  0  0  0
 63142  1  0  0  0
 63143  1  0  0  0
 64144  1  0  0  0
 65145  1  0  0  0
 68 82  1  0  0  0
 71 72  2  0  0  0
 71 75  1  0  0  0
 71146  1  0  0  0
 72 76  1  0  0  0
 72147  1  0  0  0
 73 74  1  0  0  0
 73 75  2  0  0  0
 73148  1  0  0  0
 74 76  2  0  0  0
 74 79  1  0  0  0
 75 85  1  0  0  0
 76 86  1  0  0  0
 77 78  1  0  0  0
 77 79  1  0  0  0
 77149  1  0  0  0
 77150  1  0  0  0
 78 79  1  0  0  0
 78151  1  0  0  0
 78152  1  0  0  0
 79153  1  0  0  0
 80 81  1  0  0  0
 80 84  1  0  0  0
 80154  1  0  0  0
 80155  1  0  0  0
 81 86  1  0  0  0
 81156  1  0  0  0
 81157  1  0  0  0
 82 83  1  0  0  0
 82158  1  0  0  0
 82159  1  0  0  0
 83 85  1  0  0  0
 83160  1  0  0  0
 83161  1  0  0  0
 84162  1  0  0  0
M  ISO  4   1 100  68 101  82 101  84 100
M  END
> <chiral flag>
0

> <version>
0

> <s_m_source_file>
/data/baiqing/PycharmProjects/Reinvent-master-3.2/result/LINK_invent/BTK/process_docking_weight1_custom_sum_contain_oxygen_bond_distance_aromatic_linkinvent_7_9_3/rearranged_h_0142.sdf

> <i_m_source_file_index>
58

> <r_mmod_Potential_Energy-OPLS-2005>
-94.4439849853516

> <r_mmod_Stretch_Energy-OPLS-2005>
37.2597885131836

> <r_mmod_Bend_Energy-OPLS-2005>
110.624198913574

> <r_mmod_Torsional_Energy-OPLS-2005>
232.252319335938

> <r_mmod_Improper_Torsional_Energy-OPLS-2005>
2.02202939987183

> <r_mmod_Van_der_Waal_Energy-OPLS-2005>
163.124984741211

> <r_mmod_Electrostatic_Energy-OPLS-2005>
-436.435913085938

> <r_mmod_Solvation_Energy-OPLS-2005>
-212.657913208008

> <b_mmod_Minimization_Converged-OPLS-2005>
0

> <r_mmod_RMS_Derivative-OPLS-2005>
3.15571331977844

$$$$
59
                    3D
 Structure written by MMmdl.
158166  0  0  1  0            999 V2000
  -30.7407  -14.3592   20.7141 C   0  0  0  0  0  0
  -30.4263  -12.3035   19.3813 C   0  0  0  0  0  0
  -29.4812  -12.5297   18.1855 C   0  0  0  0  0  0
  -28.0050  -12.3804   18.6023 C   0  0  0  0  0  0
  -27.6644  -13.1956   19.8771 C   0  0  2  0  0  0
  -28.6987  -12.9077   20.9850 C   0  0  0  0  0  0
  -25.2599  -13.8143   20.5660 C   0  0  0  0  0  0
  -24.1830  -13.0421   20.9152 C   0  0  0  0  0  0
  -24.6364  -11.6890   20.8711 C   0  0  0  0  0  0
  -23.9033  -10.4284   21.0398 C   0  0  0  0  0  0
  -24.3602   -9.4196   21.9173 C   0  0  0  0  0  0
  -23.6279   -8.2231   22.0745 C   0  0  0  0  0  0
  -22.4263   -8.0268   21.3536 C   0  0  0  0  0  0
  -21.9895   -9.0238   20.4639 C   0  0  0  0  0  0
  -22.7213  -10.2115   20.3042 C   0  0  0  0  0  0
  -21.6846   -6.0726   22.5283 C   0  0  0  0  0  0
  -21.4007   -6.5634   23.8208 C   0  0  0  0  0  0
  -21.3655   -5.6789   24.9173 C   0  0  0  0  0  0
  -21.6048   -4.3057   24.7227 C   0  0  0  0  0  0
  -21.8824   -3.8141   23.4352 C   0  0  0  0  0  0
  -21.9189   -4.6957   22.3400 C   0  0  0  0  0  0
  -22.7863  -13.5231   21.1836 C   0  0  0  0  0  0
  -22.1665   -4.2146   21.0983 F   0  0  0  0  0  0
  -21.5626   -3.4537   25.7733 F   0  0  0  0  0  0
  -30.0404  -13.2243   20.4601 N   0  0  0  0  0  0
  -26.3021  -12.9287   20.3336 N   0  0  0  0  0  0
  -25.9283  -11.6456   20.5720 N   0  0  0  0  0  0
  -22.0499  -12.8216   22.0400 N   0  0  0  0  0  0
  -25.4332  -15.1847   20.4092 N   0  0  0  0  0  0
  -31.7783  -14.6690   20.1179 O   0  0  0  0  0  0
  -21.6631   -6.8865   21.4238 O   0  0  0  0  0  0
  -22.3543  -14.5531   20.6685 O   0  0  0  0  0  0
  -24.6121  -31.8684   23.2098 C   0  0  0  0  0  0
  -25.9029  -32.4816   23.8392 C   0  0  1  0  0  0
  -27.2416  -27.4520   20.1063 C   0  0  0  0  0  0
  -25.5880  -33.8609   24.2332 N   0  0  0  0  0  0
  -23.4001  -30.4889   21.5500 C   0  0  2  0  0  0
  -24.8484  -28.9514   20.1200 C   0  0  0  0  0  0
  -22.7416  -29.4642   22.5010 C   0  0  0  0  0  0
  -18.0264  -28.1383   22.8498 C   0  0  0  0  0  0
  -24.1478  -36.7314   23.2630 C   0  0  0  0  0  0
  -25.9236  -30.8417   21.3579 C   0  0  0  0  0  0
  -26.0035  -29.4729   20.7149 C   0  0  0  0  0  0
  -27.2035  -28.7308   20.7033 C   0  0  0  0  0  0
  -26.0701  -26.9354   19.5087 C   0  0  0  0  0  0
  -24.8744  -27.6801   19.5172 C   0  0  0  0  0  0
  -23.6090  -29.8159   20.1660 C   0  0  0  0  0  0
  -25.4093  -36.3106   24.0336 C   0  0  1  0  0  0
  -20.5857  -28.3664   23.1330 C   0  0  2  0  0  0
  -20.6762  -26.9410   22.5421 C   0  0  0  0  0  0
  -19.5745  -26.6406   21.5215 C   0  0  0  0  0  0
  -18.1913  -26.7932   22.1616 C   0  0  0  0  0  0
  -19.1517  -28.8843   23.2903 C   0  0  0  0  0  0
  -18.9441  -30.1451   23.8915 C   0  0  0  0  0  0
  -17.6451  -30.6584   24.0569 C   0  0  0  0  0  0
  -25.9022  -34.9472   23.5135 C   0  0  0  0  0  0
  -16.5340  -29.9089   23.6337 C   0  0  0  0  0  0
  -16.7258  -28.6509   23.0347 C   0  0  0  0  0  0
  -26.4489  -31.6570   25.0693 C   0  0  0  0  0  0
  -25.3769  -31.3609   26.1435 C   0  0  0  0  0  0
  -27.0315  -30.3030   24.6004 C   0  0  0  0  0  0
  -27.6096  -32.4262   25.7439 C   0  0  0  0  0  0
  -27.5586  -37.1781   24.8459 C   0  0  0  0  0  0
  -21.4151  -29.3020   22.3747 N   0  0  0  0  0  0
  -26.4284  -37.3791   23.9425 N   0  0  0  0  0  0
  -24.6633  -31.0815   22.0975 N   0  0  0  0  0  0
  -23.4189  -28.8189   23.3060 O   0  0  0  0  0  0
  -28.4334  -26.7698   20.0750 O   0  0  0  0  0  0
  -26.5608  -34.8936   22.4713 O   0  0  0  0  0  0
  -23.5323  -32.1421   23.7521 O   0  0  0  0  0  0
  -30.3256  -21.2629   21.1876 C   0  0  0  0  0  0
  -29.9901  -19.7898   19.3225 C   0  0  0  0  0  0
  -30.3318  -19.9440   20.6824 C   0  0  0  0  0  0
  -29.9928  -22.3669   20.3655 C   0  0  0  0  0  0
  -29.6894  -22.0758   18.9973 C   0  0  0  0  0  0
  -29.3146  -23.0867   17.9247 C   0  0  0  0  0  0
  -30.3375  -17.5003   21.0789 C   0  0  0  0  0  0
  -30.7144  -16.4284   22.1110 C   0  0  0  0  0  0
  -28.4155  -25.4115   20.5157 C   0  0  0  0  0  0
  -29.8484  -24.8558   20.4042 C   0  0  0  0  0  0
  -29.6924  -20.8182   18.5097 N   0  0  0  0  0  0
  -30.6642  -18.8535   21.5144 N   0  0  0  0  0  0
  -30.2151  -15.1321   21.6759 N   0  0  0  0  0  0
  -30.0023  -23.5844   21.0326 O   0  0  0  0  0  0
  -31.4616  -12.4429   19.0655 H   0  0  0  0  0  0
  -30.3622  -11.2726   19.7318 H   0  0  0  0  0  0
  -29.7143  -11.8295   17.3818 H   0  0  0  0  0  0
  -29.6435  -13.5292   17.7774 H   0  0  0  0  0  0
  -27.8110  -11.3206   18.7765 H   0  0  0  0  0  0
  -27.3516  -12.6766   17.7808 H   0  0  0  0  0  0
  -27.7291  -14.2528   19.6146 H   0  0  0  0  0  0
  -28.6658  -11.8504   21.2566 H   0  0  0  0  0  0
  -28.4367  -13.4410   21.8985 H   0  0  0  0  0  0
  -25.2746   -9.5678   22.4740 H   0  0  0  0  0  0
  -23.9993   -7.4624   22.7466 H   0  0  0  0  0  0
  -21.0820   -8.8741   19.8949 H   0  0  0  0  0  0
  -22.3663  -10.9648   19.6146 H   0  0  0  0  0  0
  -21.2001   -7.6139   23.9709 H   0  0  0  0  0  0
  -21.1475   -6.0522   25.9076 H   0  0  0  0  0  0
  -22.0606   -2.7606   23.2848 H   0  0  0  0  0  0
  -22.4122  -11.9881   22.4794 H   0  0  0  0  0  0
  -21.1111  -13.1234   22.2594 H   0  0  0  0  0  0
  -24.6727  -15.8459   20.5267 H   0  0  0  0  0  0
  -26.2965  -15.6235   20.1141 H   0  0  0  0  0  0
  -26.7084  -32.5572   23.1156 H   0  0  0  0  0  0
  -25.0063  -33.9747   25.0494 H   0  0  0  0  0  0
  -22.6868  -31.3044   21.4093 H   0  0  0  0  0  0
  -23.3745  -35.9635   23.3276 H   0  0  0  0  0  0
  -24.3597  -36.8964   22.2053 H   0  0  0  0  0  0
  -23.7241  -37.6512   23.6668 H   0  0  0  0  0  0
  -26.0266  -31.6024   20.5823 H   0  0  0  0  0  0
  -26.8157  -30.9036   21.9689 H   0  0  0  0  0  0
  -28.1013  -29.1304   21.1564 H   0  0  0  0  0  0
  -26.0774  -25.9750   19.0150 H   0  0  0  0  0  0
  -23.9855  -27.2805   19.0490 H   0  0  0  0  0  0
  -23.7140  -30.5877   19.4022 H   0  0  0  0  0  0
  -22.7351  -29.2302   19.8768 H   0  0  0  0  0  0
  -25.1257  -36.1959   25.0824 H   0  0  0  0  0  0
  -20.9926  -28.3220   24.1460 H   0  0  0  0  0  0
  -20.5684  -26.2267   23.3592 H   0  0  0  0  0  0
  -21.6625  -26.7465   22.1207 H   0  0  0  0  0  0
  -19.6913  -25.6330   21.1221 H   0  0  0  0  0  0
  -19.6692  -27.3237   20.6761 H   0  0  0  0  0  0
  -17.4194  -26.6705   21.3995 H   0  0  0  0  0  0
  -18.0288  -26.0057   22.8995 H   0  0  0  0  0  0
  -19.7917  -30.7245   24.2300 H   0  0  0  0  0  0
  -17.5006  -31.6261   24.5164 H   0  0  0  0  0  0
  -15.5342  -30.2981   23.7665 H   0  0  0  0  0  0
  -15.8661  -28.0839   22.7037 H   0  0  0  0  0  0
  -24.6023  -30.6854   25.7781 H   0  0  0  0  0  0
  -24.8830  -32.2693   26.4858 H   0  0  0  0  0  0
  -25.8147  -30.8842   27.0211 H   0  0  0  0  0  0
  -26.2821  -29.6741   24.1165 H   0  0  0  0  0  0
  -27.4261  -29.7289   25.4403 H   0  0  0  0  0  0
  -27.8580  -30.4386   23.9024 H   0  0  0  0  0  0
  -27.2784  -33.3601   26.1987 H   0  0  0  0  0  0
  -28.3905  -32.6729   25.0232 H   0  0  0  0  0  0
  -28.0741  -31.8366   26.5349 H   0  0  0  0  0  0
  -28.2551  -38.0126   24.7579 H   0  0  0  0  0  0
  -28.1136  -36.2669   24.6182 H   0  0  0  0  0  0
  -27.2323  -37.1305   25.8862 H   0  0  0  0  0  0
  -20.9324  -29.8739   21.6965 H   0  0  0  0  0  0
  -26.0175  -38.2861   24.1459 H   0  0  0  0  0  0
  -30.5673  -21.4365   22.2262 H   0  0  0  0  0  0
  -29.9524  -18.8178   18.8525 H   0  0  0  0  0  0
  -28.4651  -23.6930   18.2256 H   0  0  0  0  0  0
  -29.0221  -22.5834   16.9999 H   0  0  0  0  0  0
  -30.1556  -23.7252   17.6598 H   0  0  0  0  0  0
  -29.2658  -17.4431   20.8736 H   0  0  0  0  0  0
  -30.8594  -17.2816   20.1452 H   0  0  0  0  0  0
  -30.2757  -16.6527   23.0852 H   0  0  0  0  0  0
  -31.7946  -16.3837   22.2551 H   0  0  0  0  0  0
  -28.1032  -25.3875   21.5605 H   0  0  0  0  0  0
  -27.7125  -24.7956   19.9598 H   0  0  0  0  0  0
  -30.4913  -25.5295   20.9704 H   0  0  0  0  0  0
  -30.2510  -24.9144   19.4004 H   0  0  0  0  0  0
  -30.9616  -19.0032   22.4784 H   0  0  0  0  0  0
  -29.3484  -14.8127   22.0845 H   0  0  0  0  0  0
  1 25  1  0  0  0
  1 30  2  0  0  0
  1 83  1  0  0  0
  2  3  1  0  0  0
  2 25  1  0  0  0
  2 85  1  0  0  0
  2 86  1  0  0  0
  3  4  1  0  0  0
  3 87  1  0  0  0
  3 88  1  0  0  0
  4  5  1  0  0  0
  4 89  1  0  0  0
  4 90  1  0  0  0
  5  6  1  0  0  0
  5 26  1  0  0  0
  5 91  1  0  0  0
  6 25  1  0  0  0
  6 92  1  0  0  0
  6 93  1  0  0  0
  7  8  2  0  0  0
  7 26  1  0  0  0
  7 29  1  0  0  0
  8  9  1  0  0  0
  8 22  1  0  0  0
  9 10  1  0  0  0
  9 27  2  0  0  0
 10 11  2  0  0  0
 10 15  1  0  0  0
 11 12  1  0  0  0
 11 94  1  0  0  0
 12 13  2  0  0  0
 12 95  1  0  0  0
 13 14  1  0  0  0
 13 31  1  0  0  0
 14 15  2  0  0  0
 14 96  1  0  0  0
 15 97  1  0  0  0
 16 17  2  0  0  0
 16 21  1  0  0  0
 16 31  1  0  0  0
 17 18  1  0  0  0
 17 98  1  0  0  0
 18 19  2  0  0  0
 18 99  1  0  0  0
 19 20  1  0  0  0
 19 24  1  0  0  0
 20 21  2  0  0  0
 20100  1  0  0  0
 21 23  1  0  0  0
 22 28  1  0  0  0
 22 32  2  0  0  0
 26 27  1  0  0  0
 28101  1  0  0  0
 28102  1  0  0  0
 29103  1  0  0  0
 29104  1  0  0  0
 33 34  1  0  0  0
 33 66  1  0  0  0
 33 70  2  0  0  0
 34 36  1  0  0  0
 34 59  1  0  0  0
 34105  1  0  0  0
 35 44  2  0  0  0
 35 45  1  0  0  0
 35 68  1  0  0  0
 36 56  1  0  0  0
 36106  1  0  0  0
 37 39  1  0  0  0
 37 47  1  0  0  0
 37 66  1  0  0  0
 37107  1  0  0  0
 38 43  2  0  0  0
 38 46  1  0  0  0
 38 47  1  0  0  0
 39 64  1  0  0  0
 39 67  2  0  0  0
 40 52  1  0  0  0
 40 53  2  0  0  0
 40 58  1  0  0  0
 41108  1  0  0  0
 41109  1  0  0  0
 41110  1  0  0  0
 41 48  1  0  0  0
 42 43  1  0  0  0
 42 66  1  0  0  0
 42111  1  0  0  0
 42112  1  0  0  0
 43 44  1  0  0  0
 44113  1  0  0  0
 45 46  2  0  0  0
 45114  1  0  0  0
 46115  1  0  0  0
 47116  1  0  0  0
 47117  1  0  0  0
 48 56  1  0  0  0
 48 65  1  0  0  0
 48118  1  0  0  0
 49 50  1  0  0  0
 49 53  1  0  0  0
 49 64  1  0  0  0
 49119  1  0  0  0
 50 51  1  0  0  0
 50120  1  0  0  0
 50121  1  0  0  0
 51 52  1  0  0  0
 51122  1  0  0  0
 51123  1  0  0  0
 52124  1  0  0  0
 52125  1  0  0  0
 53 54  1  0  0  0
 54 55  2  0  0  0
 54126  1  0  0  0
 55 57  1  0  0  0
 55127  1  0  0  0
 56 69  2  0  0  0
 57 58  2  0  0  0
 57128  1  0  0  0
 58129  1  0  0  0
 59 60  1  0  0  0
 59 61  1  0  0  0
 59 62  1  0  0  0
 60130  1  0  0  0
 60131  1  0  0  0
 60132  1  0  0  0
 61133  1  0  0  0
 61134  1  0  0  0
 61135  1  0  0  0
 62136  1  0  0  0
 62137  1  0  0  0
 62138  1  0  0  0
 63 65  1  0  0  0
 63139  1  0  0  0
 63140  1  0  0  0
 63141  1  0  0  0
 64142  1  0  0  0
 65143  1  0  0  0
 68 79  1  0  0  0
 71 73  2  0  0  0
 71 74  1  0  0  0
 71144  1  0  0  0
 72 73  1  0  0  0
 72 81  2  0  0  0
 72145  1  0  0  0
 73 82  1  0  0  0
 74 75  2  0  0  0
 74 84  1  0  0  0
 75 76  1  0  0  0
 75 81  1  0  0  0
 76146  1  0  0  0
 76147  1  0  0  0
 76148  1  0  0  0
 77 78  1  0  0  0
 77 82  1  0  0  0
 77149  1  0  0  0
 77150  1  0  0  0
 78 83  1  0  0  0
 78151  1  0  0  0
 78152  1  0  0  0
 79 80  1  0  0  0
 79153  1  0  0  0
 79154  1  0  0  0
 80 84  1  0  0  0
 80155  1  0  0  0
 80156  1  0  0  0
 82157  1  0  0  0
 83158  1  0  0  0
M  ISO  4   1 100  68 101  79 101  83 100
M  END
> <chiral flag>
0

> <version>
0

> <s_m_source_file>
/data/baiqing/PycharmProjects/Reinvent-master-3.2/result/LINK_invent/BTK/process_docking_weight1_custom_sum_contain_oxygen_bond_distance_aromatic_linkinvent_7_9_3/rearranged_h_0142.sdf

> <i_m_source_file_index>
59

> <r_mmod_Potential_Energy-OPLS-2005>
-122.645225524902

> <r_mmod_Stretch_Energy-OPLS-2005>
35.3085746765137

> <r_mmod_Bend_Energy-OPLS-2005>
136.981155395508

> <r_mmod_Torsional_Energy-OPLS-2005>
190.449798583984

> <r_mmod_Improper_Torsional_Energy-OPLS-2005>
2.05504822731018

> <r_mmod_Van_der_Waal_Energy-OPLS-2005>
165.167541503906

> <r_mmod_Electrostatic_Energy-OPLS-2005>
-420.270233154297

> <r_mmod_Solvation_Energy-OPLS-2005>
-240.205718994141

> <b_mmod_Minimization_Converged-OPLS-2005>
0

> <r_mmod_RMS_Derivative-OPLS-2005>
2.98797631263733

$$$$
60
                    3D
 Structure written by MMmdl.
166175  0  0  1  0            999 V2000
  -30.6915  -14.5159   20.4905 C   0  0  0  0  0  0
  -30.4217  -12.3151   19.4263 C   0  0  0  0  0  0
  -29.4905  -12.4838   18.2083 C   0  0  0  0  0  0
  -28.0183  -12.3266   18.6336 C   0  0  0  0  0  0
  -27.6542  -13.2032   19.8622 C   0  0  2  0  0  0
  -28.7027  -13.0388   20.9867 C   0  0  0  0  0  0
  -25.2585  -13.8161   20.5710 C   0  0  0  0  0  0
  -24.1827  -13.0441   20.9206 C   0  0  0  0  0  0
  -24.6383  -11.6913   20.8771 C   0  0  0  0  0  0
  -23.9055  -10.4300   21.0424 C   0  0  0  0  0  0
  -24.3621   -9.4213   21.9190 C   0  0  0  0  0  0
  -23.6300   -8.2252   22.0772 C   0  0  0  0  0  0
  -22.4280   -8.0293   21.3567 C   0  0  0  0  0  0
  -21.9912   -9.0259   20.4663 C   0  0  0  0  0  0
  -22.7234  -10.2139   20.3064 C   0  0  0  0  0  0
  -21.6846   -6.0749   22.5282 C   0  0  0  0  0  0
  -21.4006   -6.5653   23.8213 C   0  0  0  0  0  0
  -21.3658   -5.6811   24.9180 C   0  0  0  0  0  0
  -21.6048   -4.3073   24.7233 C   0  0  0  0  0  0
  -21.8804   -3.8159   23.4352 C   0  0  0  0  0  0
  -21.9189   -4.6978   22.3409 C   0  0  0  0  0  0
  -22.7844  -13.5240   21.1879 C   0  0  0  0  0  0
  -22.1653   -4.2160   21.0985 F   0  0  0  0  0  0
  -21.5645   -3.4558   25.7749 F   0  0  0  0  0  0
  -30.0227  -13.3318   20.4120 N   0  0  0  0  0  0
  -26.2990  -12.9312   20.3347 N   0  0  0  0  0  0
  -25.9296  -11.6489   20.5787 N   0  0  0  0  0  0
  -22.0466  -12.8227   22.0431 N   0  0  0  0  0  0
  -25.4346  -15.1863   20.4099 N   0  0  0  0  0  0
  -31.8826  -14.6059   20.1767 O   0  0  0  0  0  0
  -21.6643   -6.8887   21.4249 O   0  0  0  0  0  0
  -22.3530  -14.5557   20.6743 O   0  0  0  0  0  0
  -24.6202  -31.8679   23.2101 C   0  0  0  0  0  0
  -25.9078  -32.4818   23.8400 C   0  0  1  0  0  0
  -27.2145  -27.3916   20.0941 C   0  0  0  0  0  0
  -25.5918  -33.8614   24.2327 N   0  0  0  0  0  0
  -23.4088  -30.4965   21.5542 C   0  0  2  0  0  0
  -24.8494  -28.9706   20.1097 C   0  0  0  0  0  0
  -22.7448  -29.4665   22.4984 C   0  0  0  0  0  0
  -18.0287  -28.1394   22.8498 C   0  0  0  0  0  0
  -24.1493  -36.7314   23.2642 C   0  0  0  0  0  0
  -25.9450  -30.8206   21.3723 C   0  0  0  0  0  0
  -26.0163  -29.4558   20.7128 C   0  0  0  0  0  0
  -27.2022  -28.6742   20.7039 C   0  0  0  0  0  0
  -26.0266  -26.9570   19.4536 C   0  0  0  0  0  0
  -24.8518  -27.7226   19.4743 C   0  0  0  0  0  0
  -23.6151  -29.8416   20.1648 C   0  0  0  0  0  0
  -25.4117  -36.3107   24.0335 C   0  0  1  0  0  0
  -20.5879  -28.3692   23.1334 C   0  0  2  0  0  0
  -20.6770  -26.9404   22.5482 C   0  0  0  0  0  0
  -19.5773  -26.6354   21.5274 C   0  0  0  0  0  0
  -18.1929  -26.7937   22.1634 C   0  0  0  0  0  0
  -19.1533  -28.8865   23.2907 C   0  0  0  0  0  0
  -18.9444  -30.1477   23.8901 C   0  0  0  0  0  0
  -17.6438  -30.6597   24.0565 C   0  0  0  0  0  0
  -25.9046  -34.9470   23.5131 C   0  0  0  0  0  0
  -16.5336  -29.9090   23.6323 C   0  0  0  0  0  0
  -16.7270  -28.6515   23.0333 C   0  0  0  0  0  0
  -26.4475  -31.6585   25.0734 C   0  0  0  0  0  0
  -25.3728  -31.3709   26.1484 C   0  0  0  0  0  0
  -27.0315  -30.3020   24.6136 C   0  0  0  0  0  0
  -27.6054  -32.4297   25.7497 C   0  0  0  0  0  0
  -27.5586  -37.1811   24.8460 C   0  0  0  0  0  0
  -21.4168  -29.3053   22.3731 N   0  0  0  0  0  0
  -26.4300  -37.3788   23.9408 N   0  0  0  0  0  0
  -24.6766  -31.0758   22.1020 N   0  0  0  0  0  0
  -23.4217  -28.8181   23.3014 O   0  0  0  0  0  0
  -28.3467  -26.5816   20.1552 O   0  0  0  0  0  0
  -26.5604  -34.8914   22.4687 O   0  0  0  0  0  0
  -23.5384  -32.1443   23.7477 O   0  0  0  0  0  0
  -26.7331  -22.5264   21.4261 C   0  0  0  0  0  0
  -28.5517  -20.9122   21.3667 C   0  0  0  0  0  0
  -25.7890  -21.4845   21.4091 C   0  0  0  0  0  0
  -26.2227  -20.1363   21.3924 C   0  0  0  0  0  0
  -27.6120  -19.8391   21.4201 C   0  0  0  0  0  0
  -28.1157  -22.2704   21.3554 C   0  0  0  0  0  0
  -29.2557  -17.7945   19.5714 C   0  0  0  0  0  0
  -30.1610  -16.5960   19.2935 C   0  0  0  0  0  0
  -29.2328  -16.3255   21.4644 C   0  0  0  0  0  0
  -29.1786  -17.8325   21.0908 C   0  0  2  0  0  0
  -24.3141  -21.8536   21.4424 C   0  0  0  0  0  0
  -25.1987  -18.9996   21.3795 C   0  0  0  0  0  0
  -28.1538  -25.1790   19.8220 C   0  0  0  0  0  0
  -29.2358  -24.1394   20.2518 C   0  0  0  0  0  0
  -29.9085  -15.6218   20.3625 N   0  0  0  0  0  0
  -27.9609  -18.4755   21.5736 N   0  0  0  0  0  0
  -28.9997  -23.3381   21.4334 O   0  0  0  0  0  0
  -31.4637  -12.4100   19.1169 H   0  0  0  0  0  0
  -30.3319  -11.3153   19.8523 H   0  0  0  0  0  0
  -29.7392  -11.7530   17.4380 H   0  0  0  0  0  0
  -29.6382  -13.4663   17.7569 H   0  0  0  0  0  0
  -27.8625  -11.2742   18.8767 H   0  0  0  0  0  0
  -27.3526  -12.5427   17.7969 H   0  0  0  0  0  0
  -27.6788  -14.2379   19.5204 H   0  0  0  0  0  0
  -28.6864  -12.0218   21.3817 H   0  0  0  0  0  0
  -28.4822  -13.6914   21.8309 H   0  0  0  0  0  0
  -25.2776   -9.5694   22.4755 H   0  0  0  0  0  0
  -24.0017   -7.4654   22.7499 H   0  0  0  0  0  0
  -21.0835   -8.8755   19.8982 H   0  0  0  0  0  0
  -22.3680  -10.9676   19.6172 H   0  0  0  0  0  0
  -21.1980   -7.6158   23.9709 H   0  0  0  0  0  0
  -21.1503   -6.0553   25.9080 H   0  0  0  0  0  0
  -22.0585   -2.7622   23.2846 H   0  0  0  0  0  0
  -22.4029  -11.9855   22.4800 H   0  0  0  0  0  0
  -21.1086  -13.1267   22.2648 H   0  0  0  0  0  0
  -24.6676  -15.8420   20.5020 H   0  0  0  0  0  0
  -26.2852  -15.6128   20.0668 H   0  0  0  0  0  0
  -26.7152  -32.5512   23.1164 H   0  0  0  0  0  0
  -25.0029  -33.9756   25.0447 H   0  0  0  0  0  0
  -22.6988  -31.3151   21.4195 H   0  0  0  0  0  0
  -23.3742  -35.9659   23.3312 H   0  0  0  0  0  0
  -24.3583  -36.8926   22.2055 H   0  0  0  0  0  0
  -23.7262  -37.6529   23.6642 H   0  0  0  0  0  0
  -26.0691  -31.5901   20.6088 H   0  0  0  0  0  0
  -26.8297  -30.8657   21.9967 H   0  0  0  0  0  0
  -28.0967  -29.0433   21.1860 H   0  0  0  0  0  0
  -25.9619  -26.0160   18.9283 H   0  0  0  0  0  0
  -23.9591  -27.3503   18.9911 H   0  0  0  0  0  0
  -23.7253  -30.6213   19.4104 H   0  0  0  0  0  0
  -22.7369  -29.2671   19.8657 H   0  0  0  0  0  0
  -25.1294  -36.1980   25.0827 H   0  0  0  0  0  0
  -20.9962  -28.3270   24.1464 H   0  0  0  0  0  0
  -21.6654  -26.7413   22.1315 H   0  0  0  0  0  0
  -20.5639  -26.2297   23.3686 H   0  0  0  0  0  0
  -19.6927  -25.6263   21.1309 H   0  0  0  0  0  0
  -19.6734  -27.3164   20.6814 H   0  0  0  0  0  0
  -17.4214  -26.6699   21.4022 H   0  0  0  0  0  0
  -18.0292  -26.0087   22.9022 H   0  0  0  0  0  0
  -19.7919  -30.7318   24.2255 H   0  0  0  0  0  0
  -17.5008  -31.6271   24.5179 H   0  0  0  0  0  0
  -15.5337  -30.3007   23.7644 H   0  0  0  0  0  0
  -15.8685  -28.0852   22.7004 H   0  0  0  0  0  0
  -24.5904  -30.7052   25.7825 H   0  0  0  0  0  0
  -24.8915  -32.2869   26.4913 H   0  0  0  0  0  0
  -25.8078  -30.8894   27.0256 H   0  0  0  0  0  0
  -26.2881  -29.6788   24.1162 H   0  0  0  0  0  0
  -27.4043  -29.7252   25.4611 H   0  0  0  0  0  0
  -27.8725  -30.4332   23.9331 H   0  0  0  0  0  0
  -27.2680  -33.3591   26.2100 H   0  0  0  0  0  0
  -28.3849  -32.6873   25.0313 H   0  0  0  0  0  0
  -28.0734  -31.8404   26.5399 H   0  0  0  0  0  0
  -28.2605  -38.0105   24.7496 H   0  0  0  0  0  0
  -28.1076  -36.2634   24.6295 H   0  0  0  0  0  0
  -27.2285  -37.1478   25.8856 H   0  0  0  0  0  0
  -20.9325  -29.8824   21.6999 H   0  0  0  0  0  0
  -26.0191  -38.2873   24.1382 H   0  0  0  0  0  0
  -26.3780  -23.5382   21.5349 H   0  0  0  0  0  0
  -29.6119  -20.7043   21.3907 H   0  0  0  0  0  0
  -28.2713  -17.5993   19.1431 H   0  0  0  0  0  0
  -29.6292  -18.7214   19.1323 H   0  0  0  0  0  0
  -31.2035  -16.9175   19.3154 H   0  0  0  0  0  0
  -29.9701  -16.1628   18.3102 H   0  0  0  0  0  0
  -28.2260  -15.9146   21.5430 H   0  0  0  0  0  0
  -29.7300  -16.1610   22.4218 H   0  0  0  0  0  0
  -30.0587  -18.3363   21.4940 H   0  0  0  0  0  0
  -23.8215  -21.3949   22.3000 H   0  0  0  0  0  0
  -23.8159  -21.5206   20.5313 H   0  0  0  0  0  0
  -24.1682  -22.9317   21.5182 H   0  0  0  0  0  0
  -24.2017  -19.3208   21.0834 H   0  0  0  0  0  0
  -25.1192  -18.5461   22.3665 H   0  0  0  0  0  0
  -25.4810  -18.2239   20.6680 H   0  0  0  0  0  0
  -27.1961  -24.8305   20.1853 H   0  0  0  0  0  0
  -28.0898  -25.1416   18.7333 H   0  0  0  0  0  0
  -29.3871  -23.4449   19.4235 H   0  0  0  0  0  0
  -30.1907  -24.6522   20.3738 H   0  0  0  0  0  0
  -27.1800  -17.8458   21.7244 H   0  0  0  0  0  0
  1 25  1  0  0  0
  1 30  2  0  0  0
  1 85  1  0  0  0
  2  3  1  0  0  0
  2 25  1  0  0  0
  2 88  1  0  0  0
  2 89  1  0  0  0
  3  4  1  0  0  0
  3 90  1  0  0  0
  3 91  1  0  0  0
  4  5  1  0  0  0
  4 92  1  0  0  0
  4 93  1  0  0  0
  5  6  1  0  0  0
  5 26  1  0  0  0
  5 94  1  0  0  0
  6 25  1  0  0  0
  6 95  1  0  0  0
  6 96  1  0  0  0
  7  8  2  0  0  0
  7 26  1  0  0  0
  7 29  1  0  0  0
  8  9  1  0  0  0
  8 22  1  0  0  0
  9 10  1  0  0  0
  9 27  2  0  0  0
 10 11  2  0  0  0
 10 15  1  0  0  0
 11 12  1  0  0  0
 11 97  1  0  0  0
 12 13  2  0  0  0
 12 98  1  0  0  0
 13 14  1  0  0  0
 13 31  1  0  0  0
 14 15  2  0  0  0
 14 99  1  0  0  0
 15100  1  0  0  0
 16 17  2  0  0  0
 16 21  1  0  0  0
 16 31  1  0  0  0
 17 18  1  0  0  0
 17101  1  0  0  0
 18 19  2  0  0  0
 18102  1  0  0  0
 19 20  1  0  0  0
 19 24  1  0  0  0
 20 21  2  0  0  0
 20103  1  0  0  0
 21 23  1  0  0  0
 22 28  1  0  0  0
 22 32  2  0  0  0
 26 27  1  0  0  0
 28104  1  0  0  0
 28105  1  0  0  0
 29106  1  0  0  0
 29107  1  0  0  0
 33 34  1  0  0  0
 33 66  1  0  0  0
 33 70  2  0  0  0
 34 36  1  0  0  0
 34 59  1  0  0  0
 34108  1  0  0  0
 35 44  2  0  0  0
 35 45  1  0  0  0
 35 68  1  0  0  0
 36 56  1  0  0  0
 36109  1  0  0  0
 37 39  1  0  0  0
 37 47  1  0  0  0
 37 66  1  0  0  0
 37110  1  0  0  0
 38 43  2  0  0  0
 38 46  1  0  0  0
 38 47  1  0  0  0
 39 64  1  0  0  0
 39 67  2  0  0  0
 40 52  1  0  0  0
 40 53  2  0  0  0
 40 58  1  0  0  0
 41111  1  0  0  0
 41112  1  0  0  0
 41113  1  0  0  0
 41 48  1  0  0  0
 42 43  1  0  0  0
 42 66  1  0  0  0
 42114  1  0  0  0
 42115  1  0  0  0
 43 44  1  0  0  0
 44116  1  0  0  0
 45 46  2  0  0  0
 45117  1  0  0  0
 46118  1  0  0  0
 47119  1  0  0  0
 47120  1  0  0  0
 48 56  1  0  0  0
 48 65  1  0  0  0
 48121  1  0  0  0
 49 50  1  0  0  0
 49 53  1  0  0  0
 49 64  1  0  0  0
 49122  1  0  0  0
 50 51  1  0  0  0
 50123  1  0  0  0
 50124  1  0  0  0
 51 52  1  0  0  0
 51125  1  0  0  0
 51126  1  0  0  0
 52127  1  0  0  0
 52128  1  0  0  0
 53 54  1  0  0  0
 54 55  2  0  0  0
 54129  1  0  0  0
 55 57  1  0  0  0
 55130  1  0  0  0
 56 69  2  0  0  0
 57 58  2  0  0  0
 57131  1  0  0  0
 58132  1  0  0  0
 59 60  1  0  0  0
 59 61  1  0  0  0
 59 62  1  0  0  0
 60133  1  0  0  0
 60134  1  0  0  0
 60135  1  0  0  0
 61136  1  0  0  0
 61137  1  0  0  0
 61138  1  0  0  0
 62139  1  0  0  0
 62140  1  0  0  0
 62141  1  0  0  0
 63 65  1  0  0  0
 63142  1  0  0  0
 63143  1  0  0  0
 63144  1  0  0  0
 64145  1  0  0  0
 65146  1  0  0  0
 68 83  1  0  0  0
 71 73  2  0  0  0
 71 76  1  0  0  0
 71147  1  0  0  0
 72 75  1  0  0  0
 72 76  2  0  0  0
 72148  1  0  0  0
 73 74  1  0  0  0
 73 81  1  0  0  0
 74 75  2  0  0  0
 74 82  1  0  0  0
 75 86  1  0  0  0
 76 87  1  0  0  0
 77 78  1  0  0  0
 77 80  1  0  0  0
 77149  1  0  0  0
 77150  1  0  0  0
 78 85  1  0  0  0
 78151  1  0  0  0
 78152  1  0  0  0
 79 80  1  0  0  0
 79 85  1  0  0  0
 79153  1  0  0  0
 79154  1  0  0  0
 80 86  1  0  0  0
 80155  1  0  0  0
 81156  1  0  0  0
 81157  1  0  0  0
 81158  1  0  0  0
 82159  1  0  0  0
 82160  1  0  0  0
 82161  1  0  0  0
 83 84  1  0  0  0
 83162  1  0  0  0
 83163  1  0  0  0
 84 87  1  0  0  0
 84164  1  0  0  0
 84165  1  0  0  0
 86166  1  0  0  0
M  ISO  4   1 100  68 101  83 101  85 100
M  END
> <chiral flag>
0

> <version>
0

> <s_m_source_file>
/data/baiqing/PycharmProjects/Reinvent-master-3.2/result/LINK_invent/BTK/process_docking_weight1_custom_sum_contain_oxygen_bond_distance_aromatic_linkinvent_7_9_3/rearranged_h_0142.sdf

> <i_m_source_file_index>
60

> <r_mmod_Potential_Energy-OPLS-2005>
189.123580932617

> <r_mmod_Stretch_Energy-OPLS-2005>
48.2522354125977

> <r_mmod_Bend_Energy-OPLS-2005>
153.684600830078

> <r_mmod_Torsional_Energy-OPLS-2005>
346.293518066406

> <r_mmod_Improper_Torsional_Energy-OPLS-2005>
23.1502437591553

> <r_mmod_Van_der_Waal_Energy-OPLS-2005>
154.990982055664

> <r_mmod_Electrostatic_Energy-OPLS-2005>
-358.691741943359

> <r_mmod_Solvation_Energy-OPLS-2005>
-206.391357421875

> <b_mmod_Minimization_Converged-OPLS-2005>
0

> <r_mmod_RMS_Derivative-OPLS-2005>
2.46645498275757

$$$$
61
                    3D
 Structure written by MMmdl.
171179  0  0  1  0            999 V2000
  -30.7539  -14.3365   20.6532 C   0  0  0  0  0  0
  -30.4137  -12.2624   19.3669 C   0  0  0  0  0  0
  -29.4804  -12.5550   18.1767 C   0  0  0  0  0  0
  -28.0014  -12.4369   18.5892 C   0  0  0  0  0  0
  -27.6778  -13.2072   19.8979 C   0  0  2  0  0  0
  -28.7212  -12.8928   20.9950 C   0  0  0  0  0  0
  -25.2661  -13.8160   20.5690 C   0  0  0  0  0  0
  -24.1896  -13.0420   20.9122 C   0  0  0  0  0  0
  -24.6435  -11.6895   20.8691 C   0  0  0  0  0  0
  -23.9074  -10.4282   21.0379 C   0  0  0  0  0  0
  -24.3615   -9.4193   21.9173 C   0  0  0  0  0  0
  -23.6305   -8.2237   22.0743 C   0  0  0  0  0  0
  -22.4299   -8.0277   21.3535 C   0  0  0  0  0  0
  -21.9929   -9.0246   20.4646 C   0  0  0  0  0  0
  -22.7229  -10.2126   20.3048 C   0  0  0  0  0  0
  -21.6881   -6.0701   22.5261 C   0  0  0  0  0  0
  -21.4043   -6.5630   23.8173 C   0  0  0  0  0  0
  -21.3656   -5.6784   24.9142 C   0  0  0  0  0  0
  -21.6041   -4.3057   24.7220 C   0  0  0  0  0  0
  -21.8831   -3.8126   23.4363 C   0  0  0  0  0  0
  -21.9205   -4.6930   22.3380 C   0  0  0  0  0  0
  -22.7912  -13.5215   21.1747 C   0  0  0  0  0  0
  -22.1684   -4.2092   21.0975 F   0  0  0  0  0  0
  -21.5582   -3.4520   25.7742 F   0  0  0  0  0  0
  -30.0622  -13.1878   20.4520 N   0  0  0  0  0  0
  -26.3131  -12.9346   20.3510 N   0  0  0  0  0  0
  -25.9415  -11.6471   20.5832 N   0  0  0  0  0  0
  -22.0556  -12.8247   22.0344 N   0  0  0  0  0  0
  -25.4403  -15.1893   20.4166 N   0  0  0  0  0  0
  -31.7910  -14.6318   20.0481 O   0  0  0  0  0  0
  -21.6669   -6.8866   21.4246 O   0  0  0  0  0  0
  -22.3600  -14.5457   20.6526 O   0  0  0  0  0  0
  -24.6102  -31.8706   23.2123 C   0  0  0  0  0  0
  -25.9034  -32.4814   23.8360 C   0  0  1  0  0  0
  -27.2441  -27.4921   20.0526 C   0  0  0  0  0  0
  -25.5956  -33.8611   24.2304 N   0  0  0  0  0  0
  -23.3912  -30.5039   21.5485 C   0  0  2  0  0  0
  -24.8370  -28.9772   20.1098 C   0  0  0  0  0  0
  -22.7322  -29.4745   22.4960 C   0  0  0  0  0  0
  -18.0295  -28.1360   22.8553 C   0  0  0  0  0  0
  -24.1521  -36.7327   23.2634 C   0  0  0  0  0  0
  -25.9155  -30.8553   21.3536 C   0  0  0  0  0  0
  -25.9948  -29.4910   20.7062 C   0  0  0  0  0  0
  -27.1946  -28.7525   20.6830 C   0  0  0  0  0  0
  -26.0625  -26.9810   19.4587 C   0  0  0  0  0  0
  -24.8642  -27.7179   19.4923 C   0  0  0  0  0  0
  -23.5985  -29.8433   20.1573 C   0  0  0  0  0  0
  -25.4128  -36.3083   24.0324 C   0  0  1  0  0  0
  -20.5866  -28.3652   23.1354 C   0  0  2  0  0  0
  -20.6861  -26.9400   22.5421 C   0  0  0  0  0  0
  -19.5751  -26.6278   21.5363 C   0  0  0  0  0  0
  -18.1934  -26.7860   22.1786 C   0  0  0  0  0  0
  -19.1532  -28.8833   23.2941 C   0  0  0  0  0  0
  -18.9446  -30.1469   23.8892 C   0  0  0  0  0  0
  -17.6455  -30.6605   24.0510 C   0  0  0  0  0  0
  -25.9051  -34.9462   23.5083 C   0  0  0  0  0  0
  -16.5348  -29.9073   23.6328 C   0  0  0  0  0  0
  -16.7282  -28.6502   23.0330 C   0  0  0  0  0  0
  -26.4530  -31.6557   25.0643 C   0  0  0  0  0  0
  -25.3876  -31.3518   26.1418 C   0  0  0  0  0  0
  -27.0304  -30.3037   24.5879 C   0  0  0  0  0  0
  -27.6133  -32.4207   25.7430 C   0  0  0  0  0  0
  -27.5578  -37.1823   24.8457 C   0  0  0  0  0  0
  -21.4056  -29.3045   22.3733 N   0  0  0  0  0  0
  -26.4299  -37.3783   23.9416 N   0  0  0  0  0  0
  -24.6580  -31.0866   22.0986 N   0  0  0  0  0  0
  -23.4139  -28.8294   23.2974 O   0  0  0  0  0  0
  -28.4647  -26.8456   20.0298 O   0  0  0  0  0  0
  -26.5550  -34.8913   22.4601 O   0  0  0  0  0  0
  -23.5346  -32.1422   23.7612 O   0  0  0  0  0  0
  -26.2111  -22.4746   21.5266 C   0  0  0  0  0  0
  -28.3498  -21.3473   21.6689 C   0  0  0  0  0  0
  -25.6841  -21.6373   22.5234 C   0  0  0  0  0  0
  -26.5080  -20.6526   23.1488 C   0  0  0  0  0  0
  -27.8591  -20.5068   22.6964 C   0  0  0  0  0  0
  -27.5480  -22.3509   21.1154 C   0  0  0  0  0  0
  -24.2238  -21.8540   22.8964 C   0  0  0  0  0  0
  -26.2163  -20.4892   25.6777 C   0  0  0  0  0  0
  -26.2009  -18.3077   24.3011 C   0  0  0  0  0  0
  -29.5370  -17.3384   22.5589 C   0  0  0  0  0  0
  -29.6794  -18.8643   22.4221 C   0  0  0  0  0  0
  -30.5060  -16.5969   21.6188 C   0  0  0  0  0  0
  -28.5421  -25.5097   19.5373 C   0  0  0  0  0  0
  -27.9711  -24.5697   20.5992 C   0  0  0  0  0  0
  -25.9144  -19.8286   24.3171 C   0  0  0  0  0  0
  -28.7291  -19.5728   23.2793 N   0  0  0  0  0  0
  -30.1938  -15.1746   21.5245 N   0  0  0  0  0  0
  -28.0912  -23.2110   20.1982 O   0  0  0  0  0  0
  -31.4573  -12.3642   19.0585 H   0  0  0  0  0  0
  -30.3010  -11.2264   19.6913 H   0  0  0  0  0  0
  -29.6952  -11.8733   17.3521 H   0  0  0  0  0  0
  -29.6731  -13.5654   17.8097 H   0  0  0  0  0  0
  -27.7591  -11.3811   18.7019 H   0  0  0  0  0  0
  -27.3707  -12.8105   17.7811 H   0  0  0  0  0  0
  -27.7554  -14.2729   19.6741 H   0  0  0  0  0  0
  -28.6810  -11.8352   21.2625 H   0  0  0  0  0  0
  -28.4978  -13.4201   21.9238 H   0  0  0  0  0  0
  -25.2743   -9.5651   22.4760 H   0  0  0  0  0  0
  -23.9961   -7.4642   22.7519 H   0  0  0  0  0  0
  -21.0792   -8.8785   19.9009 H   0  0  0  0  0  0
  -22.3662  -10.9676   19.6170 H   0  0  0  0  0  0
  -21.2088   -7.6133   23.9661 H   0  0  0  0  0  0
  -21.1471   -6.0508   25.9015 H   0  0  0  0  0  0
  -22.0641   -2.7589   23.2865 H   0  0  0  0  0  0
  -22.4180  -11.9972   22.4789 H   0  0  0  0  0  0
  -21.1172  -13.1328   22.2509 H   0  0  0  0  0  0
  -24.6723  -15.8429   20.5217 H   0  0  0  0  0  0
  -26.2987  -15.6323   20.1174 H   0  0  0  0  0  0
  -26.7087  -32.5552   23.1108 H   0  0  0  0  0  0
  -25.0201  -33.9788   25.0510 H   0  0  0  0  0  0
  -22.6781  -31.3224   21.4156 H   0  0  0  0  0  0
  -23.3761  -35.9679   23.3297 H   0  0  0  0  0  0
  -24.3613  -36.8951   22.2053 H   0  0  0  0  0  0
  -23.7339  -37.6559   23.6645 H   0  0  0  0  0  0
  -26.0063  -31.6247   20.5843 H   0  0  0  0  0  0
  -26.8060  -30.9089   21.9642 H   0  0  0  0  0  0
  -28.0943  -29.1550   21.1316 H   0  0  0  0  0  0
  -26.0465  -26.0320   18.9430 H   0  0  0  0  0  0
  -23.9747  -27.3215   19.0242 H   0  0  0  0  0  0
  -23.7119  -30.6258   19.4039 H   0  0  0  0  0  0
  -22.7138  -29.2780   19.8557 H   0  0  0  0  0  0
  -25.1339  -36.1892   25.0819 H   0  0  0  0  0  0
  -20.9994  -28.3229   24.1458 H   0  0  0  0  0  0
  -20.6054  -26.2202   23.3575 H   0  0  0  0  0  0
  -21.6670  -26.7543   22.0997 H   0  0  0  0  0  0
  -19.6866  -25.6141   21.1482 H   0  0  0  0  0  0
  -19.6700  -27.3021   20.6849 H   0  0  0  0  0  0
  -17.4173  -26.6539   21.4239 H   0  0  0  0  0  0
  -18.0324  -26.0079   22.9276 H   0  0  0  0  0  0
  -19.7908  -30.7332   24.2203 H   0  0  0  0  0  0
  -17.4978  -31.6312   24.5032 H   0  0  0  0  0  0
  -15.5333  -30.2937   23.7690 H   0  0  0  0  0  0
  -15.8681  -28.0851   22.6986 H   0  0  0  0  0  0
  -24.6159  -30.6734   25.7771 H   0  0  0  0  0  0
  -24.8956  -32.2586   26.4940 H   0  0  0  0  0  0
  -25.8385  -30.8711   27.0104 H   0  0  0  0  0  0
  -26.2697  -29.6778   24.1200 H   0  0  0  0  0  0
  -27.4431  -29.7294   25.4173 H   0  0  0  0  0  0
  -27.8408  -30.4420   23.8716 H   0  0  0  0  0  0
  -27.2808  -33.3515   26.2045 H   0  0  0  0  0  0
  -28.3986  -32.6740   25.0289 H   0  0  0  0  0  0
  -28.0741  -31.8234   26.5322 H   0  0  0  0  0  0
  -28.2582  -38.0129   24.7482 H   0  0  0  0  0  0
  -28.1078  -36.2657   24.6290 H   0  0  0  0  0  0
  -27.2265  -37.1489   25.8845 H   0  0  0  0  0  0
  -20.9110  -29.8767   21.7026 H   0  0  0  0  0  0
  -26.0160  -38.2843   24.1426 H   0  0  0  0  0  0
  -25.5828  -23.2363   21.0855 H   0  0  0  0  0  0
  -29.3715  -21.2725   21.3248 H   0  0  0  0  0  0
  -23.7596  -22.6400   22.2957 H   0  0  0  0  0  0
  -24.1262  -22.1365   23.9472 H   0  0  0  0  0  0
  -23.6478  -20.9472   22.7077 H   0  0  0  0  0  0
  -27.2841  -20.5886   25.8830 H   0  0  0  0  0  0
  -25.7771  -19.9311   26.5056 H   0  0  0  0  0  0
  -25.7851  -21.4889   25.7082 H   0  0  0  0  0  0
  -26.0788  -17.8792   23.3061 H   0  0  0  0  0  0
  -25.4924  -17.7923   24.9470 H   0  0  0  0  0  0
  -27.1876  -18.0276   24.6670 H   0  0  0  0  0  0
  -29.6977  -17.0122   23.5891 H   0  0  0  0  0  0
  -28.5068  -17.0687   22.3258 H   0  0  0  0  0  0
  -30.6932  -19.1889   22.6638 H   0  0  0  0  0  0
  -29.5336  -19.1149   21.3676 H   0  0  0  0  0  0
  -31.5348  -16.7408   21.9501 H   0  0  0  0  0  0
  -30.4399  -17.0115   20.6109 H   0  0  0  0  0  0
  -28.0688  -25.3969   18.5575 H   0  0  0  0  0  0
  -29.5938  -25.2594   19.3958 H   0  0  0  0  0  0
  -26.9370  -24.8488   20.7938 H   0  0  0  0  0  0
  -28.5167  -24.7100   21.5350 H   0  0  0  0  0  0
  -24.8317  -19.8594   24.2350 H   0  0  0  0  0  0
  -28.3010  -19.0223   24.0141 H   0  0  0  0  0  0
  -29.3839  -14.8233   22.0110 H   0  0  0  0  0  0
  1 25  1  0  0  0
  1 30  2  0  0  0
  1 87  1  0  0  0
  2  3  1  0  0  0
  2 25  1  0  0  0
  2 89  1  0  0  0
  2 90  1  0  0  0
  3  4  1  0  0  0
  3 91  1  0  0  0
  3 92  1  0  0  0
  4  5  1  0  0  0
  4 93  1  0  0  0
  4 94  1  0  0  0
  5  6  1  0  0  0
  5 26  1  0  0  0
  5 95  1  0  0  0
  6 25  1  0  0  0
  6 96  1  0  0  0
  6 97  1  0  0  0
  7  8  2  0  0  0
  7 26  1  0  0  0
  7 29  1  0  0  0
  8  9  1  0  0  0
  8 22  1  0  0  0
  9 10  1  0  0  0
  9 27  2  0  0  0
 10 11  2  0  0  0
 10 15  1  0  0  0
 11 12  1  0  0  0
 11 98  1  0  0  0
 12 13  2  0  0  0
 12 99  1  0  0  0
 13 14  1  0  0  0
 13 31  1  0  0  0
 14 15  2  0  0  0
 14100  1  0  0  0
 15101  1  0  0  0
 16 17  2  0  0  0
 16 21  1  0  0  0
 16 31  1  0  0  0
 17 18  1  0  0  0
 17102  1  0  0  0
 18 19  2  0  0  0
 18103  1  0  0  0
 19 20  1  0  0  0
 19 24  1  0  0  0
 20 21  2  0  0  0
 20104  1  0  0  0
 21 23  1  0  0  0
 22 28  1  0  0  0
 22 32  2  0  0  0
 26 27  1  0  0  0
 28105  1  0  0  0
 28106  1  0  0  0
 29107  1  0  0  0
 29108  1  0  0  0
 33 34  1  0  0  0
 33 66  1  0  0  0
 33 70  2  0  0  0
 34 36  1  0  0  0
 34 59  1  0  0  0
 34109  1  0  0  0
 35 44  2  0  0  0
 35 45  1  0  0  0
 35 68  1  0  0  0
 36 56  1  0  0  0
 36110  1  0  0  0
 37 39  1  0  0  0
 37 47  1  0  0  0
 37 66  1  0  0  0
 37111  1  0  0  0
 38 43  2  0  0  0
 38 46  1  0  0  0
 38 47  1  0  0  0
 39 64  1  0  0  0
 39 67  2  0  0  0
 40 52  1  0  0  0
 40 53  2  0  0  0
 40 58  1  0  0  0
 41112  1  0  0  0
 41113  1  0  0  0
 41114  1  0  0  0
 41 48  1  0  0  0
 42 43  1  0  0  0
 42 66  1  0  0  0
 42115  1  0  0  0
 42116  1  0  0  0
 43 44  1  0  0  0
 44117  1  0  0  0
 45 46  2  0  0  0
 45118  1  0  0  0
 46119  1  0  0  0
 47120  1  0  0  0
 47121  1  0  0  0
 48 56  1  0  0  0
 48 65  1  0  0  0
 48122  1  0  0  0
 49 50  1  0  0  0
 49 53  1  0  0  0
 49 64  1  0  0  0
 49123  1  0  0  0
 50 51  1  0  0  0
 50124  1  0  0  0
 50125  1  0  0  0
 51 52  1  0  0  0
 51126  1  0  0  0
 51127  1  0  0  0
 52128  1  0  0  0
 52129  1  0  0  0
 53 54  1  0  0  0
 54 55  2  0  0  0
 54130  1  0  0  0
 55 57  1  0  0  0
 55131  1  0  0  0
 56 69  2  0  0  0
 57 58  2  0  0  0
 57132  1  0  0  0
 58133  1  0  0  0
 59 60  1  0  0  0
 59 61  1  0  0  0
 59 62  1  0  0  0
 60134  1  0  0  0
 60135  1  0  0  0
 60136  1  0  0  0
 61137  1  0  0  0
 61138  1  0  0  0
 61139  1  0  0  0
 62140  1  0  0  0
 62141  1  0  0  0
 62142  1  0  0  0
 63 65  1  0  0  0
 63143  1  0  0  0
 63144  1  0  0  0
 63145  1  0  0  0
 64146  1  0  0  0
 65147  1  0  0  0
 68 83  1  0  0  0
 71 73  2  0  0  0
 71 76  1  0  0  0
 71148  1  0  0  0
 72 75  1  0  0  0
 72 76  2  0  0  0
 72149  1  0  0  0
 73 74  1  0  0  0
 73 77  1  0  0  0
 74 75  2  0  0  0
 74 85  1  0  0  0
 75 86  1  0  0  0
 76 88  1  0  0  0
 77150  1  0  0  0
 77151  1  0  0  0
 77152  1  0  0  0
 78153  1  0  0  0
 78154  1  0  0  0
 78155  1  0  0  0
 78 85  1  0  0  0
 79 85  1  0  0  0
 79156  1  0  0  0
 79157  1  0  0  0
 79158  1  0  0  0
 80 81  1  0  0  0
 80 82  1  0  0  0
 80159  1  0  0  0
 80160  1  0  0  0
 81 86  1  0  0  0
 81161  1  0  0  0
 81162  1  0  0  0
 82 87  1  0  0  0
 82163  1  0  0  0
 82164  1  0  0  0
 83 84  1  0  0  0
 83165  1  0  0  0
 83166  1  0  0  0
 84 88  1  0  0  0
 84167  1  0  0  0
 84168  1  0  0  0
 85169  1  0  0  0
 86170  1  0  0  0
 87171  1  0  0  0
M  ISO  4   1 100  68 101  83 101  87 100
M  END
> <chiral flag>
0

> <version>
0

> <s_m_source_file>
/data/baiqing/PycharmProjects/Reinvent-master-3.2/result/LINK_invent/BTK/process_docking_weight1_custom_sum_contain_oxygen_bond_distance_aromatic_linkinvent_7_9_3/rearranged_h_0142.sdf

> <i_m_source_file_index>
61

> <r_mmod_Potential_Energy-OPLS-2005>
-16.0230846405029

> <r_mmod_Stretch_Energy-OPLS-2005>
37.4421501159668

> <r_mmod_Bend_Energy-OPLS-2005>
109.141540527344

> <r_mmod_Torsional_Energy-OPLS-2005>
212.917358398438

> <r_mmod_Improper_Torsional_Energy-OPLS-2005>
5.87731313705444

> <r_mmod_Van_der_Waal_Energy-OPLS-2005>
175.449508666992

> <r_mmod_Electrostatic_Energy-OPLS-2005>
-353.568756103516

> <r_mmod_Solvation_Energy-OPLS-2005>
-212.735321044922

> <b_mmod_Minimization_Converged-OPLS-2005>
0

> <r_mmod_RMS_Derivative-OPLS-2005>
6.96234464645386

$$$$
62
                    3D
 Structure written by MMmdl.
176185  0  0  1  0            999 V2000
  -30.7841  -14.3550   20.6814 C   0  0  0  0  0  0
  -30.4168  -12.2862   19.3958 C   0  0  0  0  0  0
  -29.4836  -12.5193   18.1931 C   0  0  0  0  0  0
  -28.0086  -12.3777   18.6130 C   0  0  0  0  0  0
  -27.6672  -13.2040   19.8803 C   0  0  2  0  0  0
  -28.7062  -12.9540   20.9967 C   0  0  0  0  0  0
  -25.2607  -13.8152   20.5684 C   0  0  0  0  0  0
  -24.1856  -13.0438   20.9174 C   0  0  0  0  0  0
  -24.6414  -11.6902   20.8738 C   0  0  0  0  0  0
  -23.9083  -10.4290   21.0407 C   0  0  0  0  0  0
  -24.3635   -9.4209   21.9192 C   0  0  0  0  0  0
  -23.6305   -8.2241   22.0765 C   0  0  0  0  0  0
  -22.4283   -8.0289   21.3549 C   0  0  0  0  0  0
  -21.9928   -9.0259   20.4649 C   0  0  0  0  0  0
  -22.7259  -10.2138   20.3058 C   0  0  0  0  0  0
  -21.6858   -6.0745   22.5286 C   0  0  0  0  0  0
  -21.4006   -6.5638   23.8221 C   0  0  0  0  0  0
  -21.3655   -5.6799   24.9182 C   0  0  0  0  0  0
  -21.6045   -4.3065   24.7235 C   0  0  0  0  0  0
  -21.8811   -3.8165   23.4352 C   0  0  0  0  0  0
  -21.9191   -4.6976   22.3407 C   0  0  0  0  0  0
  -22.7874  -13.5239   21.1833 C   0  0  0  0  0  0
  -22.1661   -4.2168   21.0987 F   0  0  0  0  0  0
  -21.5633   -3.4550   25.7743 F   0  0  0  0  0  0
  -30.0505  -13.2356   20.4568 N   0  0  0  0  0  0
  -26.3055  -12.9327   20.3394 N   0  0  0  0  0  0
  -25.9343  -11.6487   20.5780 N   0  0  0  0  0  0
  -22.0507  -12.8226   22.0386 N   0  0  0  0  0  0
  -25.4321  -15.1876   20.4086 N   0  0  0  0  0  0
  -31.8160  -14.6228   20.0607 O   0  0  0  0  0  0
  -21.6642   -6.8890   21.4252 O   0  0  0  0  0  0
  -22.3570  -14.5554   20.6702 O   0  0  0  0  0  0
  -24.6127  -31.8723   23.2154 C   0  0  0  0  0  0
  -25.9037  -32.4844   23.8444 C   0  0  1  0  0  0
  -27.2235  -27.4492   20.0730 C   0  0  0  0  0  0
  -25.5909  -33.8648   24.2376 N   0  0  0  0  0  0
  -23.3969  -30.5022   21.5571 C   0  0  2  0  0  0
  -24.8373  -28.9783   20.1145 C   0  0  0  0  0  0
  -22.7372  -29.4702   22.5003 C   0  0  0  0  0  0
  -18.0261  -28.1381   22.8506 C   0  0  0  0  0  0
  -24.1499  -36.7304   23.2647 C   0  0  0  0  0  0
  -25.9276  -30.8360   21.3716 C   0  0  0  0  0  0
  -25.9989  -29.4734   20.7188 C   0  0  0  0  0  0
  -27.1892  -28.7121   20.7077 C   0  0  0  0  0  0
  -26.0380  -26.9833   19.4491 C   0  0  0  0  0  0
  -24.8497  -27.7278   19.4844 C   0  0  0  0  0  0
  -23.6017  -29.8443   20.1689 C   0  0  0  0  0  0
  -25.4116  -36.3117   24.0352 C   0  0  1  0  0  0
  -20.5844  -28.3667   23.1314 C   0  0  2  0  0  0
  -20.6763  -26.9407   22.5407 C   0  0  0  0  0  0
  -19.5750  -26.6397   21.5199 C   0  0  0  0  0  0
  -18.1921  -26.7939   22.1604 C   0  0  0  0  0  0
  -19.1514  -28.8835   23.2925 C   0  0  0  0  0  0
  -18.9447  -30.1434   23.8952 C   0  0  0  0  0  0
  -17.6459  -30.6599   24.0571 C   0  0  0  0  0  0
  -25.9041  -34.9479   23.5154 C   0  0  0  0  0  0
  -16.5350  -29.9107   23.6329 C   0  0  0  0  0  0
  -16.7253  -28.6508   23.0382 C   0  0  0  0  0  0
  -26.4469  -31.6610   25.0753 C   0  0  0  0  0  0
  -25.3741  -31.3667   26.1490 C   0  0  0  0  0  0
  -27.0309  -30.3070   24.6103 C   0  0  0  0  0  0
  -27.6075  -32.4315   25.7496 C   0  0  0  0  0  0
  -27.5596  -37.1819   24.8480 C   0  0  0  0  0  0
  -21.4105  -29.3061   22.3730 N   0  0  0  0  0  0
  -26.4305  -37.3798   23.9430 N   0  0  0  0  0  0
  -24.6642  -31.0843   22.1051 N   0  0  0  0  0  0
  -23.4160  -28.8228   23.3024 O   0  0  0  0  0  0
  -28.4061  -26.7275   20.0882 O   0  0  0  0  0  0
  -26.5591  -34.8917   22.4709 O   0  0  0  0  0  0
  -23.5320  -32.1496   23.7533 O   0  0  0  0  0  0
  -28.4756  -19.3275   16.6490 C   0  0  0  0  0  0
  -28.3810  -19.7971   15.3278 C   0  0  0  0  0  0
  -28.5689  -22.0723   16.1397 C   0  0  0  0  0  0
  -28.7330  -21.6196   17.4739 C   0  0  0  0  0  0
  -28.6230  -20.2223   17.7325 C   0  0  0  0  0  0
  -28.3909  -21.1745   15.0612 C   0  0  0  0  0  0
  -27.5613  -23.1816   19.0586 C   0  0  0  0  0  0
  -29.9226  -23.8069   18.2053 C   0  0  0  0  0  0
  -27.6879  -24.3453   20.0479 C   0  0  0  0  0  0
  -29.9006  -25.0140   19.1678 C   0  0  0  0  0  0
  -28.9348  -22.6585   18.5907 C   0  0  2  0  0  0
  -28.4562  -25.4956   19.3631 C   0  0  2  0  0  0
  -27.9917  -22.9404   13.4856 C   0  0  0  0  0  0
  -28.5698  -19.6228   19.1367 C   0  0  0  0  0  0
  -31.0904  -17.5159   21.1164 C   0  0  0  0  0  0
  -30.9980  -16.3675   22.1483 C   0  0  0  0  0  0
  -29.7259  -18.0473   20.6438 C   0  0  0  0  0  0
  -30.3291  -15.1621   21.6479 N   0  0  0  0  0  0
  -29.8544  -19.0222   19.5380 N   0  3  0  0  0  0
  -28.2178  -21.5611   13.7508 O   0  0  0  0  0  0
  -31.4595  -12.3851   19.0882 H   0  0  0  0  0  0
  -30.3191  -11.2644   19.7658 H   0  0  0  0  0  0
  -29.7122  -11.8078   17.3990 H   0  0  0  0  0  0
  -29.6552  -13.5123   17.7751 H   0  0  0  0  0  0
  -27.8144  -11.3195   18.7965 H   0  0  0  0  0  0
  -27.3562  -12.6678   17.7890 H   0  0  0  0  0  0
  -27.7220  -14.2566   19.6037 H   0  0  0  0  0  0
  -28.6646  -11.9131   21.3223 H   0  0  0  0  0  0
  -28.4578  -13.5421   21.8808 H   0  0  0  0  0  0
  -25.2780   -9.5676   22.4760 H   0  0  0  0  0  0
  -24.0019   -7.4634   22.7479 H   0  0  0  0  0  0
  -21.0868   -8.8779   19.8942 H   0  0  0  0  0  0
  -22.3736  -10.9680   19.6160 H   0  0  0  0  0  0
  -21.1983   -7.6139   23.9730 H   0  0  0  0  0  0
  -21.1483   -6.0527   25.9087 H   0  0  0  0  0  0
  -22.0592   -2.7631   23.2856 H   0  0  0  0  0  0
  -22.4118  -11.9878   22.4753 H   0  0  0  0  0  0
  -21.1124  -13.1242   22.2581 H   0  0  0  0  0  0
  -24.6629  -15.8403   20.5084 H   0  0  0  0  0  0
  -26.2866  -15.6253   20.0889 H   0  0  0  0  0  0
  -26.7094  -32.5549   23.1199 H   0  0  0  0  0  0
  -25.0114  -33.9829   25.0555 H   0  0  0  0  0  0
  -22.6866  -31.3195   21.4213 H   0  0  0  0  0  0
  -23.3771  -35.9624   23.3292 H   0  0  0  0  0  0
  -24.3622  -36.8926   22.2068 H   0  0  0  0  0  0
  -23.7224  -37.6497   23.6661 H   0  0  0  0  0  0
  -26.0440  -31.5988   20.6007 H   0  0  0  0  0  0
  -26.8161  -30.8865   21.9884 H   0  0  0  0  0  0
  -28.0851  -29.0916   21.1798 H   0  0  0  0  0  0
  -25.9890  -26.0462   18.9177 H   0  0  0  0  0  0
  -23.9572  -27.3452   19.0101 H   0  0  0  0  0  0
  -23.7089  -30.6260   19.4162 H   0  0  0  0  0  0
  -22.7243  -29.2683   19.8689 H   0  0  0  0  0  0
  -25.1275  -36.1996   25.0842 H   0  0  0  0  0  0
  -20.9951  -28.3242   24.1429 H   0  0  0  0  0  0
  -20.5649  -26.2285   23.3601 H   0  0  0  0  0  0
  -21.6642  -26.7457   22.1207 H   0  0  0  0  0  0
  -19.6915  -25.6303   21.1242 H   0  0  0  0  0  0
  -19.6702  -27.3205   20.6730 H   0  0  0  0  0  0
  -17.4190  -26.6691   21.4009 H   0  0  0  0  0  0
  -18.0336  -26.0055   22.8972 H   0  0  0  0  0  0
  -19.7919  -30.7223   24.2386 H   0  0  0  0  0  0
  -17.5012  -31.6293   24.5145 H   0  0  0  0  0  0
  -15.5358  -30.3039   23.7622 H   0  0  0  0  0  0
  -15.8640  -28.0825   22.7135 H   0  0  0  0  0  0
  -24.5979  -30.6934   25.7821 H   0  0  0  0  0  0
  -24.8834  -32.2777   26.4930 H   0  0  0  0  0  0
  -25.8109  -30.8876   27.0256 H   0  0  0  0  0  0
  -26.2842  -29.6823   24.1177 H   0  0  0  0  0  0
  -27.4128  -29.7305   25.4540 H   0  0  0  0  0  0
  -27.8647  -30.4424   23.9209 H   0  0  0  0  0  0
  -27.2768  -33.3651   26.2049 H   0  0  0  0  0  0
  -28.3888  -32.6811   25.0308 H   0  0  0  0  0  0
  -28.0717  -31.8432   26.5416 H   0  0  0  0  0  0
  -28.2598  -38.0133   24.7544 H   0  0  0  0  0  0
  -28.1108  -36.2667   24.6273 H   0  0  0  0  0  0
  -27.2323  -37.1413   25.8886 H   0  0  0  0  0  0
  -20.9251  -29.8809   21.6978 H   0  0  0  0  0  0
  -26.0184  -38.2872   24.1431 H   0  0  0  0  0  0
  -28.4013  -18.2623   16.8235 H   0  0  0  0  0  0
  -28.2552  -19.0954   14.5156 H   0  0  0  0  0  0
  -28.5545  -23.1311   15.9407 H   0  0  0  0  0  0
  -26.9835  -23.5148   18.1947 H   0  0  0  0  0  0
  -26.9833  -22.3757   19.5111 H   0  0  0  0  0  0
  -30.9351  -23.4088   18.1276 H   0  0  0  0  0  0
  -29.7015  -24.2221   17.2265 H   0  0  0  0  0  0
  -28.2106  -24.0208   20.9488 H   0  0  0  0  0  0
  -26.6960  -24.6371   20.3869 H   0  0  0  0  0  0
  -30.5100  -25.8189   18.7565 H   0  0  0  0  0  0
  -30.3479  -24.7498   20.1269 H   0  0  0  0  0  0
  -29.4003  -22.1725   19.4459 H   0  0  0  0  0  0
  -28.0555  -25.6836   18.3653 H   0  0  0  0  0  0
  -27.7651  -23.0711   12.4276 H   0  0  0  0  0  0
  -28.8723  -23.5431   13.7113 H   0  0  0  0  0  0
  -27.1404  -23.3217   14.0520 H   0  0  0  0  0  0
  -27.8032  -18.8462   19.1251 H   0  0  0  0  0  0
  -28.2327  -20.3393   19.8843 H   0  0  0  0  0  0
  -31.6787  -17.1882   20.2587 H   0  0  0  0  0  0
  -31.6568  -18.3371   21.5590 H   0  0  0  0  0  0
  -30.4659  -16.7111   23.0368 H   0  0  0  0  0  0
  -32.0009  -16.0981   22.4857 H   0  0  0  0  0  0
  -29.2021  -18.5087   21.4828 H   0  0  0  0  0  0
  -29.1044  -17.2174   20.3033 H   0  0  0  0  0  0
  -29.4971  -14.8549   22.1339 H   0  0  0  0  0  0
  -30.4886  -19.7595   19.7966 H   0  0  0  0  0  0
  -30.2401  -18.5528   18.7350 H   0  0  0  0  0  0
  1 25  1  0  0  0
  1 30  2  0  0  0
  1 88  1  0  0  0
  2  3  1  0  0  0
  2 25  1  0  0  0
  2 91  1  0  0  0
  2 92  1  0  0  0
  3  4  1  0  0  0
  3 93  1  0  0  0
  3 94  1  0  0  0
  4  5  1  0  0  0
  4 95  1  0  0  0
  4 96  1  0  0  0
  5  6  1  0  0  0
  5 26  1  0  0  0
  5 97  1  0  0  0
  6 25  1  0  0  0
  6 98  1  0  0  0
  6 99  1  0  0  0
  7  8  2  0  0  0
  7 26  1  0  0  0
  7 29  1  0  0  0
  8  9  1  0  0  0
  8 22  1  0  0  0
  9 10  1  0  0  0
  9 27  2  0  0  0
 10 11  2  0  0  0
 10 15  1  0  0  0
 11 12  1  0  0  0
 11100  1  0  0  0
 12 13  2  0  0  0
 12101  1  0  0  0
 13 14  1  0  0  0
 13 31  1  0  0  0
 14 15  2  0  0  0
 14102  1  0  0  0
 15103  1  0  0  0
 16 17  2  0  0  0
 16 21  1  0  0  0
 16 31  1  0  0  0
 17 18  1  0  0  0
 17104  1  0  0  0
 18 19  2  0  0  0
 18105  1  0  0  0
 19 20  1  0  0  0
 19 24  1  0  0  0
 20 21  2  0  0  0
 20106  1  0  0  0
 21 23  1  0  0  0
 22 28  1  0  0  0
 22 32  2  0  0  0
 26 27  1  0  0  0
 28107  1  0  0  0
 28108  1  0  0  0
 29109  1  0  0  0
 29110  1  0  0  0
 33 34  1  0  0  0
 33 66  1  0  0  0
 33 70  2  0  0  0
 34 36  1  0  0  0
 34 59  1  0  0  0
 34111  1  0  0  0
 35 44  2  0  0  0
 35 45  1  0  0  0
 35 68  1  0  0  0
 36 56  1  0  0  0
 36112  1  0  0  0
 37 39  1  0  0  0
 37 47  1  0  0  0
 37 66  1  0  0  0
 37113  1  0  0  0
 38 43  2  0  0  0
 38 46  1  0  0  0
 38 47  1  0  0  0
 39 64  1  0  0  0
 39 67  2  0  0  0
 40 52  1  0  0  0
 40 53  2  0  0  0
 40 58  1  0  0  0
 41114  1  0  0  0
 41115  1  0  0  0
 41116  1  0  0  0
 41 48  1  0  0  0
 42 43  1  0  0  0
 42 66  1  0  0  0
 42117  1  0  0  0
 42118  1  0  0  0
 43 44  1  0  0  0
 44119  1  0  0  0
 45 46  2  0  0  0
 45120  1  0  0  0
 46121  1  0  0  0
 47122  1  0  0  0
 47123  1  0  0  0
 48 56  1  0  0  0
 48 65  1  0  0  0
 48124  1  0  0  0
 49 50  1  0  0  0
 49 53  1  0  0  0
 49 64  1  0  0  0
 49125  1  0  0  0
 50 51  1  0  0  0
 50126  1  0  0  0
 50127  1  0  0  0
 51 52  1  0  0  0
 51128  1  0  0  0
 51129  1  0  0  0
 52130  1  0  0  0
 52131  1  0  0  0
 53 54  1  0  0  0
 54 55  2  0  0  0
 54132  1  0  0  0
 55 57  1  0  0  0
 55133  1  0  0  0
 56 69  2  0  0  0
 57 58  2  0  0  0
 57134  1  0  0  0
 58135  1  0  0  0
 59 60  1  0  0  0
 59 61  1  0  0  0
 59 62  1  0  0  0
 60136  1  0  0  0
 60137  1  0  0  0
 60138  1  0  0  0
 61139  1  0  0  0
 61140  1  0  0  0
 61141  1  0  0  0
 62142  1  0  0  0
 62143  1  0  0  0
 62144  1  0  0  0
 63 65  1  0  0  0
 63145  1  0  0  0
 63146  1  0  0  0
 63147  1  0  0  0
 64148  1  0  0  0
 65149  1  0  0  0
 68 82  1  0  0  0
 71 72  2  0  0  0
 71 75  1  0  0  0
 71150  1  0  0  0
 72 76  1  0  0  0
 72151  1  0  0  0
 73 74  1  0  0  0
 73 76  2  0  0  0
 73152  1  0  0  0
 74 75  2  0  0  0
 74 81  1  0  0  0
 75 84  1  0  0  0
 76 90  1  0  0  0
 77 79  1  0  0  0
 77 81  1  0  0  0
 77153  1  0  0  0
 77154  1  0  0  0
 78 80  1  0  0  0
 78 81  1  0  0  0
 78155  1  0  0  0
 78156  1  0  0  0
 79 82  1  0  0  0
 79157  1  0  0  0
 79158  1  0  0  0
 80 82  1  0  0  0
 80159  1  0  0  0
 80160  1  0  0  0
 81161  1  0  0  0
 82162  1  0  0  0
 83 90  1  0  0  0
 83163  1  0  0  0
 83164  1  0  0  0
 83165  1  0  0  0
 84 89  1  0  0  0
 84166  1  0  0  0
 84167  1  0  0  0
 85 86  1  0  0  0
 85 87  1  0  0  0
 85168  1  0  0  0
 85169  1  0  0  0
 86 88  1  0  0  0
 86170  1  0  0  0
 86171  1  0  0  0
 87 89  1  0  0  0
 87172  1  0  0  0
 87173  1  0  0  0
 88174  1  0  0  0
 89175  1  0  0  0
 89176  1  0  0  0
M  CHG  1  89   1
M  ISO  4   1 100  68 101  82 101  88 100
M  END
> <chiral flag>
0

> <version>
0

> <s_m_source_file>
/data/baiqing/PycharmProjects/Reinvent-master-3.2/result/LINK_invent/BTK/process_docking_weight1_custom_sum_contain_oxygen_bond_distance_aromatic_linkinvent_7_9_3/rearranged_h_0142.sdf

> <i_m_source_file_index>
62

> <r_mmod_Potential_Energy-OPLS-2005>
-243.431045532227

> <r_mmod_Stretch_Energy-OPLS-2005>
37.8021278381348

> <r_mmod_Bend_Energy-OPLS-2005>
113.417114257812

> <r_mmod_Torsional_Energy-OPLS-2005>
205.24821472168

> <r_mmod_Improper_Torsional_Energy-OPLS-2005>
2.11829257011414

> <r_mmod_Van_der_Waal_Energy-OPLS-2005>
176.46403503418

> <r_mmod_Electrostatic_Energy-OPLS-2005>
-312.59619140625

> <r_mmod_Solvation_Energy-OPLS-2005>
-474.883636474609

> <b_mmod_Minimization_Converged-OPLS-2005>
0

> <r_mmod_RMS_Derivative-OPLS-2005>
2.01719641685486

$$$$
63
                    3D
 Structure written by MMmdl.
162170  0  0  1  0            999 V2000
  -30.6357  -14.6099   20.5221 C   0  0  0  0  0  0
  -30.4350  -12.3713   19.4558 C   0  0  0  0  0  0
  -29.5097  -12.4985   18.2266 C   0  0  0  0  0  0
  -28.0314  -12.3422   18.6340 C   0  0  0  0  0  0
  -27.6547  -13.2139   19.8595 C   0  0  2  0  0  0
  -28.6948  -13.0642   20.9905 C   0  0  0  0  0  0
  -25.2569  -13.8151   20.5632 C   0  0  0  0  0  0
  -24.1836  -13.0425   20.9129 C   0  0  0  0  0  0
  -24.6409  -11.6884   20.8725 C   0  0  0  0  0  0
  -23.9096  -10.4262   21.0394 C   0  0  0  0  0  0
  -24.3645   -9.4167   21.9168 C   0  0  0  0  0  0
  -23.6306   -8.2217   22.0733 C   0  0  0  0  0  0
  -22.4287   -8.0261   21.3522 C   0  0  0  0  0  0
  -21.9941   -9.0238   20.4620 C   0  0  0  0  0  0
  -22.7283  -10.2100   20.3027 C   0  0  0  0  0  0
  -21.6854   -6.0731   22.5258 C   0  0  0  0  0  0
  -21.4032   -6.5635   23.8194 C   0  0  0  0  0  0
  -21.3661   -5.6780   24.9149 C   0  0  0  0  0  0
  -21.6047   -4.3048   24.7192 C   0  0  0  0  0  0
  -21.8837   -3.8141   23.4320 C   0  0  0  0  0  0
  -21.9198   -4.6961   22.3375 C   0  0  0  0  0  0
  -22.7864  -13.5187   21.1842 C   0  0  0  0  0  0
  -22.1662   -4.2155   21.0951 F   0  0  0  0  0  0
  -21.5627   -3.4528   25.7710 F   0  0  0  0  0  0
  -30.0127  -13.3950   20.4294 N   0  0  0  0  0  0
  -26.2998  -12.9336   20.3270 N   0  0  0  0  0  0
  -25.9330  -11.6492   20.5728 N   0  0  0  0  0  0
  -22.0580  -12.8112   22.0389 N   0  0  0  0  0  0
  -25.4410  -15.1869   20.4024 N   0  0  0  0  0  0
  -31.8000  -14.7766   20.1513 O   0  0  0  0  0  0
  -21.6627   -6.8874   21.4220 O   0  0  0  0  0  0
  -22.3514  -14.5505   20.6729 O   0  0  0  0  0  0
  -24.6149  -31.8656   23.2062 C   0  0  0  0  0  0
  -25.9037  -32.4800   23.8341 C   0  0  1  0  0  0
  -27.2199  -27.3845   20.0949 C   0  0  0  0  0  0
  -25.5886  -33.8602   24.2284 N   0  0  0  0  0  0
  -23.4032  -30.4856   21.5553 C   0  0  2  0  0  0
  -24.8476  -28.9471   20.1144 C   0  0  0  0  0  0
  -22.7394  -29.4638   22.5054 C   0  0  0  0  0  0
  -18.0258  -28.1349   22.8470 C   0  0  0  0  0  0
  -24.1513  -36.7337   23.2633 C   0  0  0  0  0  0
  -25.9384  -30.8141   21.3644 C   0  0  0  0  0  0
  -26.0146  -29.4463   20.7066 C   0  0  0  0  0  0
  -27.2095  -28.6771   20.6837 C   0  0  0  0  0  0
  -26.0387  -26.9217   19.4795 C   0  0  0  0  0  0
  -24.8560  -27.6861   19.4925 C   0  0  0  0  0  0
  -23.6076  -29.8162   20.1719 C   0  0  0  0  0  0
  -25.4128  -36.3106   24.0319 C   0  0  1  0  0  0
  -20.5841  -28.3653   23.1327 C   0  0  2  0  0  0
  -20.6785  -26.9411   22.5404 C   0  0  0  0  0  0
  -19.5789  -26.6395   21.5179 C   0  0  0  0  0  0
  -18.1943  -26.7896   22.1575 C   0  0  0  0  0  0
  -19.1499  -28.8810   23.2885 C   0  0  0  0  0  0
  -18.9447  -30.1414   23.8897 C   0  0  0  0  0  0
  -17.6450  -30.6582   24.0521 C   0  0  0  0  0  0
  -25.9048  -34.9467   23.5103 C   0  0  0  0  0  0
  -16.5333  -29.9079   23.6315 C   0  0  0  0  0  0
  -16.7240  -28.6480   23.0353 C   0  0  0  0  0  0
  -26.4467  -31.6567   25.0668 C   0  0  0  0  0  0
  -25.3713  -31.3662   26.1395 C   0  0  0  0  0  0
  -27.0292  -30.2987   24.6053 C   0  0  0  0  0  0
  -27.6034  -32.4303   25.7438 C   0  0  0  0  0  0
  -27.5606  -37.1801   24.8448 C   0  0  0  0  0  0
  -21.4126  -29.3021   22.3769 N   0  0  0  0  0  0
  -26.4320  -37.3784   23.9393 N   0  0  0  0  0  0
  -24.6719  -31.0703   22.0993 N   0  0  0  0  0  0
  -23.4157  -28.8216   23.3134 O   0  0  0  0  0  0
  -28.3526  -26.5805   20.1000 O   0  0  0  0  0  0
  -26.5644  -34.8931   22.4688 O   0  0  0  0  0  0
  -23.5347  -32.1450   23.7433 O   0  0  0  0  0  0
  -30.6955  -22.8490   21.7231 C   0  0  0  0  0  0
  -31.8791  -22.4360   22.3485 C   0  0  0  0  0  0
  -31.4683  -20.1761   21.5797 C   0  0  0  0  0  0
  -29.8738  -21.9508   21.0036 C   0  0  0  0  0  0
  -30.2503  -20.5505   20.9576 C   0  0  0  0  0  0
  -32.2890  -21.0978   22.2733 C   0  0  0  0  0  0
  -33.8460  -19.3942   22.9737 C   0  0  0  0  0  0
  -28.6191  -22.5851   20.3478 C   0  0  0  0  0  0
  -28.7821  -24.0583   19.7774 C   0  0  0  0  0  0
  -29.8889  -18.1440   19.9910 C   0  0  0  0  0  0
  -30.1925  -17.0976   21.1410 C   0  0  0  0  0  0
  -28.1844  -25.2312   20.6312 C   0  0  0  0  0  0
  -29.4522  -19.5324   20.3582 N   0  0  0  0  0  0
  -29.8481  -15.6613   20.8883 N   0  0  0  0  0  0
  -33.4745  -20.7671   22.8969 O   0  0  0  0  0  0
  -31.4808  -12.4837   19.1627 H   0  0  0  0  0  0
  -30.3544  -11.3761   19.8986 H   0  0  0  0  0  0
  -29.7729  -11.7523   17.4758 H   0  0  0  0  0  0
  -29.6577  -13.4736   17.7618 H   0  0  0  0  0  0
  -27.8645  -11.2896   18.8651 H   0  0  0  0  0  0
  -27.3808  -12.5729   17.7896 H   0  0  0  0  0  0
  -27.6751  -14.2489   19.5171 H   0  0  0  0  0  0
  -28.6961  -12.0421   21.3736 H   0  0  0  0  0  0
  -28.4412  -13.7003   21.8400 H   0  0  0  0  0  0
  -25.2818   -9.5596   22.4718 H   0  0  0  0  0  0
  -24.0004   -7.4588   22.7444 H   0  0  0  0  0  0
  -21.0886   -8.8764   19.8914 H   0  0  0  0  0  0
  -22.3796  -10.9623   19.6099 H   0  0  0  0  0  0
  -21.2052   -7.6153   23.9700 H   0  0  0  0  0  0
  -21.1472   -6.0509   25.9050 H   0  0  0  0  0  0
  -22.0637   -2.7616   23.2802 H   0  0  0  0  0  0
  -22.4269  -11.9691   22.4592 H   0  0  0  0  0  0
  -21.1208  -13.1058   22.2724 H   0  0  0  0  0  0
  -24.7001  -15.8684   20.5178 H   0  0  0  0  0  0
  -26.3067  -15.6014   20.0803 H   0  0  0  0  0  0
  -26.7085  -32.5480   23.1084 H   0  0  0  0  0  0
  -24.9930  -33.9736   25.0353 H   0  0  0  0  0  0
  -22.6922  -31.3027   21.4214 H   0  0  0  0  0  0
  -23.3765  -35.9680   23.3287 H   0  0  0  0  0  0
  -24.3588  -36.8979   22.2048 H   0  0  0  0  0  0
  -23.7305  -37.6548   23.6665 H   0  0  0  0  0  0
  -26.0513  -31.5838   20.6005 H   0  0  0  0  0  0
  -26.8225  -30.8634   21.9863 H   0  0  0  0  0  0
  -28.1143  -29.0588   21.1371 H   0  0  0  0  0  0
  -26.0282  -25.9600   18.9837 H   0  0  0  0  0  0
  -23.9606  -27.3012   19.0235 H   0  0  0  0  0  0
  -23.6997  -30.5913   19.4120 H   0  0  0  0  0  0
  -22.7277  -29.2363   19.8882 H   0  0  0  0  0  0
  -25.1318  -36.1963   25.0810 H   0  0  0  0  0  0
  -20.9863  -28.3217   24.1475 H   0  0  0  0  0  0
  -20.5751  -26.2248   23.3575 H   0  0  0  0  0  0
  -21.6662  -26.7532   22.1171 H   0  0  0  0  0  0
  -19.6985  -25.6320   21.1205 H   0  0  0  0  0  0
  -19.6724  -27.3218   20.6715 H   0  0  0  0  0  0
  -17.4228  -26.6611   21.3971 H   0  0  0  0  0  0
  -18.0341  -26.0017   22.8949 H   0  0  0  0  0  0
  -19.7942  -30.7179   24.2311 H   0  0  0  0  0  0
  -17.5042  -31.6269   24.5131 H   0  0  0  0  0  0
  -15.5348  -30.2980   23.7697 H   0  0  0  0  0  0
  -15.8618  -28.0806   22.7104 H   0  0  0  0  0  0
  -24.5909  -30.7008   25.7716 H   0  0  0  0  0  0
  -24.8874  -32.2800   26.4822 H   0  0  0  0  0  0
  -25.8035  -30.8829   27.0170 H   0  0  0  0  0  0
  -26.2821  -29.6710   24.1172 H   0  0  0  0  0  0
  -27.4132  -29.7239   25.4501 H   0  0  0  0  0  0
  -27.8642  -30.4299   23.9164 H   0  0  0  0  0  0
  -27.2650  -33.3607   26.2011 H   0  0  0  0  0  0
  -28.3827  -32.6844   25.0250 H   0  0  0  0  0  0
  -28.0709  -31.8416   26.5346 H   0  0  0  0  0  0
  -28.2598  -38.0127   24.7517 H   0  0  0  0  0  0
  -28.1141  -36.2647   24.6269 H   0  0  0  0  0  0
  -27.2287  -37.1423   25.8841 H   0  0  0  0  0  0
  -20.9325  -29.8656   21.6902 H   0  0  0  0  0  0
  -26.0214  -38.2884   24.1353 H   0  0  0  0  0  0
  -30.4285  -23.8919   21.8158 H   0  0  0  0  0  0
  -32.4681  -23.1588   22.8960 H   0  0  0  0  0  0
  -31.7857  -19.1544   21.5389 H   0  0  0  0  0  0
  -33.0956  -18.8052   23.5033 H   0  0  0  0  0  0
  -34.7762  -19.3076   23.5349 H   0  0  0  0  0  0
  -34.0219  -18.9536   21.9898 H   0  0  0  0  0  0
  -27.8012  -22.5612   21.0714 H   0  0  0  0  0  0
  -28.2982  -21.9395   19.5302 H   0  0  0  0  0  0
  -28.2771  -24.0878   18.8124 H   0  0  0  0  0  0
  -29.8290  -24.2587   19.5413 H   0  0  0  0  0  0
  -29.0684  -17.7402   19.3952 H   0  0  0  0  0  0
  -30.7329  -18.1967   19.2994 H   0  0  0  0  0  0
  -29.6270  -17.3890   22.0253 H   0  0  0  0  0  0
  -31.2421  -17.1458   21.4324 H   0  0  0  0  0  0
  -28.6676  -25.2352   21.6078 H   0  0  0  0  0  0
  -27.1358  -25.0091   20.8376 H   0  0  0  0  0  0
  -28.6370  -19.8676   19.8501 H   0  0  0  0  0  0
  -28.9022  -15.4033   21.1312 H   0  0  0  0  0  0
  1 25  1  0  0  0
  1 30  2  0  0  0
  1 84  1  0  0  0
  2  3  1  0  0  0
  2 25  1  0  0  0
  2 86  1  0  0  0
  2 87  1  0  0  0
  3  4  1  0  0  0
  3 88  1  0  0  0
  3 89  1  0  0  0
  4  5  1  0  0  0
  4 90  1  0  0  0
  4 91  1  0  0  0
  5  6  1  0  0  0
  5 26  1  0  0  0
  5 92  1  0  0  0
  6 25  1  0  0  0
  6 93  1  0  0  0
  6 94  1  0  0  0
  7  8  2  0  0  0
  7 26  1  0  0  0
  7 29  1  0  0  0
  8  9  1  0  0  0
  8 22  1  0  0  0
  9 10  1  0  0  0
  9 27  2  0  0  0
 10 11  2  0  0  0
 10 15  1  0  0  0
 11 12  1  0  0  0
 11 95  1  0  0  0
 12 13  2  0  0  0
 12 96  1  0  0  0
 13 14  1  0  0  0
 13 31  1  0  0  0
 14 15  2  0  0  0
 14 97  1  0  0  0
 15 98  1  0  0  0
 16 17  2  0  0  0
 16 21  1  0  0  0
 16 31  1  0  0  0
 17 18  1  0  0  0
 17 99  1  0  0  0
 18 19  2  0  0  0
 18100  1  0  0  0
 19 20  1  0  0  0
 19 24  1  0  0  0
 20 21  2  0  0  0
 20101  1  0  0  0
 21 23  1  0  0  0
 22 28  1  0  0  0
 22 32  2  0  0  0
 26 27  1  0  0  0
 28102  1  0  0  0
 28103  1  0  0  0
 29104  1  0  0  0
 29105  1  0  0  0
 33 34  1  0  0  0
 33 66  1  0  0  0
 33 70  2  0  0  0
 34 36  1  0  0  0
 34 59  1  0  0  0
 34106  1  0  0  0
 35 44  2  0  0  0
 35 45  1  0  0  0
 35 68  1  0  0  0
 36 56  1  0  0  0
 36107  1  0  0  0
 37 39  1  0  0  0
 37 47  1  0  0  0
 37 66  1  0  0  0
 37108  1  0  0  0
 38 43  2  0  0  0
 38 46  1  0  0  0
 38 47  1  0  0  0
 39 64  1  0  0  0
 39 67  2  0  0  0
 40 52  1  0  0  0
 40 53  2  0  0  0
 40 58  1  0  0  0
 41109  1  0  0  0
 41110  1  0  0  0
 41111  1  0  0  0
 41 48  1  0  0  0
 42 43  1  0  0  0
 42 66  1  0  0  0
 42112  1  0  0  0
 42113  1  0  0  0
 43 44  1  0  0  0
 44114  1  0  0  0
 45 46  2  0  0  0
 45115  1  0  0  0
 46116  1  0  0  0
 47117  1  0  0  0
 47118  1  0  0  0
 48 56  1  0  0  0
 48 65  1  0  0  0
 48119  1  0  0  0
 49 50  1  0  0  0
 49 53  1  0  0  0
 49 64  1  0  0  0
 49120  1  0  0  0
 50 51  1  0  0  0
 50121  1  0  0  0
 50122  1  0  0  0
 51 52  1  0  0  0
 51123  1  0  0  0
 51124  1  0  0  0
 52125  1  0  0  0
 52126  1  0  0  0
 53 54  1  0  0  0
 54 55  2  0  0  0
 54127  1  0  0  0
 55 57  1  0  0  0
 55128  1  0  0  0
 56 69  2  0  0  0
 57 58  2  0  0  0
 57129  1  0  0  0
 58130  1  0  0  0
 59 60  1  0  0  0
 59 61  1  0  0  0
 59 62  1  0  0  0
 60131  1  0  0  0
 60132  1  0  0  0
 60133  1  0  0  0
 61134  1  0  0  0
 61135  1  0  0  0
 61136  1  0  0  0
 62137  1  0  0  0
 62138  1  0  0  0
 62139  1  0  0  0
 63 65  1  0  0  0
 63140  1  0  0  0
 63141  1  0  0  0
 63142  1  0  0  0
 64143  1  0  0  0
 65144  1  0  0  0
 68 82  1  0  0  0
 71 72  2  0  0  0
 71 74  1  0  0  0
 71145  1  0  0  0
 72 76  1  0  0  0
 72146  1  0  0  0
 73 75  1  0  0  0
 73 76  2  0  0  0
 73147  1  0  0  0
 74 75  2  0  0  0
 74 78  1  0  0  0
 75 83  1  0  0  0
 76 85  1  0  0  0
 77 85  1  0  0  0
 77148  1  0  0  0
 77149  1  0  0  0
 77150  1  0  0  0
 78 79  1  0  0  0
 78151  1  0  0  0
 78152  1  0  0  0
 79 82  1  0  0  0
 79153  1  0  0  0
 79154  1  0  0  0
 80 81  1  0  0  0
 80 83  1  0  0  0
 80155  1  0  0  0
 80156  1  0  0  0
 81 84  1  0  0  0
 81157  1  0  0  0
 81158  1  0  0  0
 82159  1  0  0  0
 82160  1  0  0  0
 83161  1  0  0  0
 84162  1  0  0  0
M  ISO  4   1 100  68 101  82 101  84 100
M  END
> <chiral flag>
0

> <version>
0

> <s_m_source_file>
/data/baiqing/PycharmProjects/Reinvent-master-3.2/result/LINK_invent/BTK/process_docking_weight1_custom_sum_contain_oxygen_bond_distance_aromatic_linkinvent_7_9_3/rearranged_h_0142.sdf

> <i_m_source_file_index>
63

> <r_mmod_Potential_Energy-OPLS-2005>
-33.3541946411133

> <r_mmod_Stretch_Energy-OPLS-2005>
66.6427307128906

> <r_mmod_Bend_Energy-OPLS-2005>
147.986770629883

> <r_mmod_Torsional_Energy-OPLS-2005>
218.795196533203

> <r_mmod_Improper_Torsional_Energy-OPLS-2005>
4.89266967773438

> <r_mmod_Van_der_Waal_Energy-OPLS-2005>
155.729049682617

> <r_mmod_Electrostatic_Energy-OPLS-2005>
-431.421752929688

> <r_mmod_Solvation_Energy-OPLS-2005>
-229.009643554688

> <b_mmod_Minimization_Converged-OPLS-2005>
0

> <r_mmod_RMS_Derivative-OPLS-2005>
4.20982837677002

$$$$
64
                    3D
 Structure written by MMmdl.
156164  0  0  1  0            999 V2000
  -30.6837  -14.5020   20.5170 C   0  0  0  0  0  0
  -30.4276  -12.3066   19.4365 C   0  0  0  0  0  0
  -29.5016  -12.4928   18.2147 C   0  0  0  0  0  0
  -28.0234  -12.3507   18.6282 C   0  0  0  0  0  0
  -27.6621  -13.2059   19.8717 C   0  0  2  0  0  0
  -28.7059  -13.0115   20.9972 C   0  0  0  0  0  0
  -25.2590  -13.8163   20.5662 C   0  0  0  0  0  0
  -24.1842  -13.0441   20.9174 C   0  0  0  0  0  0
  -24.6394  -11.6909   20.8738 C   0  0  0  0  0  0
  -23.9064  -10.4294   21.0404 C   0  0  0  0  0  0
  -24.3613   -9.4207   21.9177 C   0  0  0  0  0  0
  -23.6284   -8.2251   22.0753 C   0  0  0  0  0  0
  -22.4267   -8.0285   21.3552 C   0  0  0  0  0  0
  -21.9901   -9.0265   20.4654 C   0  0  0  0  0  0
  -22.7236  -10.2136   20.3056 C   0  0  0  0  0  0
  -21.6847   -6.0733   22.5287 C   0  0  0  0  0  0
  -21.4017   -6.5634   23.8222 C   0  0  0  0  0  0
  -21.3656   -5.6781   24.9183 C   0  0  0  0  0  0
  -21.6044   -4.3049   24.7227 C   0  0  0  0  0  0
  -21.8822   -3.8140   23.4348 C   0  0  0  0  0  0
  -21.9190   -4.6962   22.3402 C   0  0  0  0  0  0
  -22.7861  -13.5250   21.1824 C   0  0  0  0  0  0
  -22.1660   -4.2144   21.0983 F   0  0  0  0  0  0
  -21.5621   -3.4533   25.7741 F   0  0  0  0  0  0
  -30.0368  -13.3070   20.4414 N   0  0  0  0  0  0
  -26.3028  -12.9324   20.3349 N   0  0  0  0  0  0
  -25.9322  -11.6491   20.5767 N   0  0  0  0  0  0
  -22.0485  -12.8276   22.0390 N   0  0  0  0  0  0
  -25.4305  -15.1882   20.4045 N   0  0  0  0  0  0
  -31.8293  -14.6714   20.0931 O   0  0  0  0  0  0
  -21.6635   -6.8883   21.4247 O   0  0  0  0  0  0
  -22.3562  -14.5556   20.6655 O   0  0  0  0  0  0
  -24.6148  -31.8678   23.2100 C   0  0  0  0  0  0
  -25.9047  -32.4820   23.8394 C   0  0  1  0  0  0
  -27.2379  -27.4267   20.0926 C   0  0  0  0  0  0
  -25.5903  -33.8621   24.2331 N   0  0  0  0  0  0
  -23.4036  -30.4914   21.5497 C   0  0  2  0  0  0
  -24.8494  -28.9555   20.1130 C   0  0  0  0  0  0
  -22.7416  -29.4655   22.4984 C   0  0  0  0  0  0
  -18.0277  -28.1378   22.8487 C   0  0  0  0  0  0
  -24.1485  -36.7316   23.2638 C   0  0  0  0  0  0
  -25.9334  -30.8287   21.3648 C   0  0  0  0  0  0
  -26.0087  -29.4630   20.7105 C   0  0  0  0  0  0
  -27.2026  -28.7060   20.6976 C   0  0  0  0  0  0
  -26.0585  -26.9409   19.4799 C   0  0  0  0  0  0
  -24.8687  -27.6931   19.4951 C   0  0  0  0  0  0
  -23.6129  -29.8242   20.1633 C   0  0  0  0  0  0
  -25.4106  -36.3113   24.0337 C   0  0  1  0  0  0
  -20.5862  -28.3662   23.1321 C   0  0  2  0  0  0
  -20.6757  -26.9400   22.5416 C   0  0  0  0  0  0
  -19.5737  -26.6380   21.5212 C   0  0  0  0  0  0
  -18.1918  -26.7924   22.1620 C   0  0  0  0  0  0
  -19.1526  -28.8840   23.2899 C   0  0  0  0  0  0
  -18.9451  -30.1446   23.8909 C   0  0  0  0  0  0
  -17.6452  -30.6580   24.0572 C   0  0  0  0  0  0
  -25.9030  -34.9475   23.5128 C   0  0  0  0  0  0
  -16.5344  -29.9084   23.6323 C   0  0  0  0  0  0
  -16.7266  -28.6504   23.0340 C   0  0  0  0  0  0
  -26.4471  -31.6606   25.0728 C   0  0  0  0  0  0
  -25.3746  -31.3724   26.1488 C   0  0  0  0  0  0
  -27.0294  -30.3047   24.6103 C   0  0  0  0  0  0
  -27.6039  -32.4333   25.7493 C   0  0  0  0  0  0
  -27.5578  -37.1815   24.8463 C   0  0  0  0  0  0
  -21.4144  -29.3030   22.3734 N   0  0  0  0  0  0
  -26.4295  -37.3796   23.9407 N   0  0  0  0  0  0
  -24.6690  -31.0774   22.0999 N   0  0  0  0  0  0
  -23.4195  -28.8201   23.3025 O   0  0  0  0  0  0
  -28.4184  -26.7050   20.1220 O   0  0  0  0  0  0
  -26.5592  -34.8925   22.4687 O   0  0  0  0  0  0
  -23.5341  -32.1440   23.7487 O   0  0  0  0  0  0
  -28.9113  -21.7155   21.0065 C   0  0  0  0  0  0
  -28.8930  -20.3670   21.4266 C   0  0  0  0  0  0
  -29.9443  -22.1580   20.1482 C   0  0  0  0  0  0
  -29.9064  -19.4846   20.9953 C   0  0  0  0  0  0
  -30.9081  -21.1960   19.7642 C   0  0  0  0  0  0
  -32.0470  -21.5837   18.8422 C   0  0  0  0  0  0
  -29.9700  -18.0278   21.4957 C   0  0  0  0  0  0
  -30.0898  -16.9479   20.3863 C   0  0  0  0  0  0
  -28.3854  -25.2976   19.8164 C   0  0  0  0  0  0
  -29.6036  -24.5655   20.4285 C   0  0  0  0  0  0
  -30.9052  -19.9079   20.1885 N   0  0  0  0  0  0
  -29.9048  -15.5511   20.8506 N   0  0  0  0  0  0
  -30.0469  -23.4460   19.6446 O   0  0  0  0  0  0
  -31.4741  -12.3991   19.1406 H   0  0  0  0  0  0
  -30.3231  -11.3018   19.8477 H   0  0  0  0  0  0
  -29.7447  -11.7602   17.4436 H   0  0  0  0  0  0
  -29.6667  -13.4738   17.7649 H   0  0  0  0  0  0
  -27.8452  -11.2965   18.8428 H   0  0  0  0  0  0
  -27.3711  -12.6039   17.7921 H   0  0  0  0  0  0
  -27.6988  -14.2478   19.5522 H   0  0  0  0  0  0
  -28.6826  -11.9843   21.3647 H   0  0  0  0  0  0
  -28.4758  -13.6381   21.8605 H   0  0  0  0  0  0
  -25.2758   -9.5681   22.4753 H   0  0  0  0  0  0
  -23.9986   -7.4644   22.7471 H   0  0  0  0  0  0
  -21.0832   -8.8800   19.8964 H   0  0  0  0  0  0
  -22.3705  -10.9680   19.6170 H   0  0  0  0  0  0
  -21.2027   -7.6144   23.9733 H   0  0  0  0  0  0
  -21.1464   -6.0506   25.9085 H   0  0  0  0  0  0
  -22.0602   -2.7601   23.2851 H   0  0  0  0  0  0
  -22.4065  -11.9946   22.4827 H   0  0  0  0  0  0
  -21.1109  -13.1340   22.2574 H   0  0  0  0  0  0
  -24.6610  -15.8414   20.5082 H   0  0  0  0  0  0
  -26.2772  -15.6269   20.0652 H   0  0  0  0  0  0
  -26.7120  -32.5537   23.1158 H   0  0  0  0  0  0
  -25.0089  -33.9783   25.0499 H   0  0  0  0  0  0
  -22.6917  -31.3078   21.4106 H   0  0  0  0  0  0
  -23.3740  -35.9656   23.3317 H   0  0  0  0  0  0
  -24.3581  -36.8914   22.2048 H   0  0  0  0  0  0
  -23.7236  -37.6526   23.6643 H   0  0  0  0  0  0
  -26.0474  -31.5949   20.5965 H   0  0  0  0  0  0
  -26.8200  -30.8812   21.9854 H   0  0  0  0  0  0
  -28.0970  -29.0958   21.1631 H   0  0  0  0  0  0
  -26.0372  -25.9845   18.9789 H   0  0  0  0  0  0
  -23.9777  -27.2984   19.0261 H   0  0  0  0  0  0
  -23.7269  -30.5999   19.4057 H   0  0  0  0  0  0
  -22.7368  -29.2467   19.8638 H   0  0  0  0  0  0
  -25.1282  -36.1976   25.0829 H   0  0  0  0  0  0
  -20.9951  -28.3217   24.1444 H   0  0  0  0  0  0
  -20.5645  -26.2279   23.3604 H   0  0  0  0  0  0
  -21.6635  -26.7428   22.1229 H   0  0  0  0  0  0
  -19.6897  -25.6294   21.1236 H   0  0  0  0  0  0
  -19.6676  -27.3196   20.6748 H   0  0  0  0  0  0
  -17.4190  -26.6680   21.4015 H   0  0  0  0  0  0
  -18.0318  -26.0062   22.9012 H   0  0  0  0  0  0
  -19.7931  -30.7260   24.2276 H   0  0  0  0  0  0
  -17.5010  -31.6259   24.5177 H   0  0  0  0  0  0
  -15.5347  -30.2991   23.7636 H   0  0  0  0  0  0
  -15.8669  -28.0831   22.7033 H   0  0  0  0  0  0
  -24.5912  -30.7064   25.7859 H   0  0  0  0  0  0
  -24.8947  -32.2882   26.4947 H   0  0  0  0  0  0
  -25.8118  -30.8907   27.0242 H   0  0  0  0  0  0
  -26.2834  -29.6821   24.1146 H   0  0  0  0  0  0
  -27.4053  -29.7268   25.4558 H   0  0  0  0  0  0
  -27.8680  -30.4373   23.9263 H   0  0  0  0  0  0
  -27.2644  -33.3617   26.2100 H   0  0  0  0  0  0
  -28.3834  -32.6918   25.0316 H   0  0  0  0  0  0
  -28.0723  -31.8443   26.5389 H   0  0  0  0  0  0
  -28.2610  -38.0099   24.7506 H   0  0  0  0  0  0
  -28.1061  -36.2632   24.6297 H   0  0  0  0  0  0
  -27.2308  -37.1484   25.8872 H   0  0  0  0  0  0
  -20.9310  -29.8797   21.6989 H   0  0  0  0  0  0
  -26.0182  -38.2876   24.1401 H   0  0  0  0  0  0
  -28.1315  -22.3876   21.3343 H   0  0  0  0  0  0
  -28.1075  -20.0267   22.0877 H   0  0  0  0  0  0
  -31.6582  -22.0188   17.9214 H   0  0  0  0  0  0
  -32.6635  -20.7250   18.5777 H   0  0  0  0  0  0
  -32.6855  -22.3232   19.3243 H   0  0  0  0  0  0
  -29.0710  -17.8318   22.0804 H   0  0  0  0  0  0
  -30.8072  -17.9361   22.1886 H   0  0  0  0  0  0
  -31.0466  -17.0727   19.8755 H   0  0  0  0  0  0
  -29.3256  -17.1375   19.6311 H   0  0  0  0  0  0
  -27.4792  -24.8139   20.1819 H   0  0  0  0  0  0
  -28.3982  -25.1915   18.7309 H   0  0  0  0  0  0
  -29.4329  -24.3232   21.4773 H   0  0  0  0  0  0
  -30.4436  -25.2618   20.4317 H   0  0  0  0  0  0
  -28.9855  -15.3106   21.1902 H   0  0  0  0  0  0
  1 25  1  0  0  0
  1 30  2  0  0  0
  1 82  1  0  0  0
  2  3  1  0  0  0
  2 25  1  0  0  0
  2 84  1  0  0  0
  2 85  1  0  0  0
  3  4  1  0  0  0
  3 86  1  0  0  0
  3 87  1  0  0  0
  4  5  1  0  0  0
  4 88  1  0  0  0
  4 89  1  0  0  0
  5  6  1  0  0  0
  5 26  1  0  0  0
  5 90  1  0  0  0
  6 25  1  0  0  0
  6 91  1  0  0  0
  6 92  1  0  0  0
  7  8  2  0  0  0
  7 26  1  0  0  0
  7 29  1  0  0  0
  8  9  1  0  0  0
  8 22  1  0  0  0
  9 10  1  0  0  0
  9 27  2  0  0  0
 10 11  2  0  0  0
 10 15  1  0  0  0
 11 12  1  0  0  0
 11 93  1  0  0  0
 12 13  2  0  0  0
 12 94  1  0  0  0
 13 14  1  0  0  0
 13 31  1  0  0  0
 14 15  2  0  0  0
 14 95  1  0  0  0
 15 96  1  0  0  0
 16 17  2  0  0  0
 16 21  1  0  0  0
 16 31  1  0  0  0
 17 18  1  0  0  0
 17 97  1  0  0  0
 18 19  2  0  0  0
 18 98  1  0  0  0
 19 20  1  0  0  0
 19 24  1  0  0  0
 20 21  2  0  0  0
 20 99  1  0  0  0
 21 23  1  0  0  0
 22 28  1  0  0  0
 22 32  2  0  0  0
 26 27  1  0  0  0
 28100  1  0  0  0
 28101  1  0  0  0
 29102  1  0  0  0
 29103  1  0  0  0
 33 34  1  0  0  0
 33 66  1  0  0  0
 33 70  2  0  0  0
 34 36  1  0  0  0
 34 59  1  0  0  0
 34104  1  0  0  0
 35 44  2  0  0  0
 35 45  1  0  0  0
 35 68  1  0  0  0
 36 56  1  0  0  0
 36105  1  0  0  0
 37 39  1  0  0  0
 37 47  1  0  0  0
 37 66  1  0  0  0
 37106  1  0  0  0
 38 43  2  0  0  0
 38 46  1  0  0  0
 38 47  1  0  0  0
 39 64  1  0  0  0
 39 67  2  0  0  0
 40 52  1  0  0  0
 40 53  2  0  0  0
 40 58  1  0  0  0
 41107  1  0  0  0
 41108  1  0  0  0
 41109  1  0  0  0
 41 48  1  0  0  0
 42 43  1  0  0  0
 42 66  1  0  0  0
 42110  1  0  0  0
 42111  1  0  0  0
 43 44  1  0  0  0
 44112  1  0  0  0
 45 46  2  0  0  0
 45113  1  0  0  0
 46114  1  0  0  0
 47115  1  0  0  0
 47116  1  0  0  0
 48 56  1  0  0  0
 48 65  1  0  0  0
 48117  1  0  0  0
 49 50  1  0  0  0
 49 53  1  0  0  0
 49 64  1  0  0  0
 49118  1  0  0  0
 50 51  1  0  0  0
 50119  1  0  0  0
 50120  1  0  0  0
 51 52  1  0  0  0
 51121  1  0  0  0
 51122  1  0  0  0
 52123  1  0  0  0
 52124  1  0  0  0
 53 54  1  0  0  0
 54 55  2  0  0  0
 54125  1  0  0  0
 55 57  1  0  0  0
 55126  1  0  0  0
 56 69  2  0  0  0
 57 58  2  0  0  0
 57127  1  0  0  0
 58128  1  0  0  0
 59 60  1  0  0  0
 59 61  1  0  0  0
 59 62  1  0  0  0
 60129  1  0  0  0
 60130  1  0  0  0
 60131  1  0  0  0
 61132  1  0  0  0
 61133  1  0  0  0
 61134  1  0  0  0
 62135  1  0  0  0
 62136  1  0  0  0
 62137  1  0  0  0
 63 65  1  0  0  0
 63138  1  0  0  0
 63139  1  0  0  0
 63140  1  0  0  0
 64141  1  0  0  0
 65142  1  0  0  0
 68 79  1  0  0  0
 71 72  2  0  0  0
 71 73  1  0  0  0
 71143  1  0  0  0
 72 74  1  0  0  0
 72144  1  0  0  0
 73 75  2  0  0  0
 73 83  1  0  0  0
 74 77  1  0  0  0
 74 81  2  0  0  0
 75 76  1  0  0  0
 75 81  1  0  0  0
 76145  1  0  0  0
 76146  1  0  0  0
 76147  1  0  0  0
 77 78  1  0  0  0
 77148  1  0  0  0
 77149  1  0  0  0
 78 82  1  0  0  0
 78150  1  0  0  0
 78151  1  0  0  0
 79 80  1  0  0  0
 79152  1  0  0  0
 79153  1  0  0  0
 80 83  1  0  0  0
 80154  1  0  0  0
 80155  1  0  0  0
 82156  1  0  0  0
M  ISO  4   1 100  68 101  79 101  82 100
M  END
> <chiral flag>
0

> <version>
0

> <s_m_source_file>
/data/baiqing/PycharmProjects/Reinvent-master-3.2/result/LINK_invent/BTK/process_docking_weight1_custom_sum_contain_oxygen_bond_distance_aromatic_linkinvent_7_9_3/rearranged_h_0142.sdf

> <i_m_source_file_index>
64

> <r_mmod_Potential_Energy-OPLS-2005>
-158.351898193359

> <r_mmod_Stretch_Energy-OPLS-2005>
40.3337554931641

> <r_mmod_Bend_Energy-OPLS-2005>
106.279434204102

> <r_mmod_Torsional_Energy-OPLS-2005>
205.776870727539

> <r_mmod_Improper_Torsional_Energy-OPLS-2005>
7.08509254455566

> <r_mmod_Van_der_Waal_Energy-OPLS-2005>
156.394134521484

> <r_mmod_Electrostatic_Energy-OPLS-2005>
-462.382415771484

> <r_mmod_Solvation_Energy-OPLS-2005>
-228.404739379883

> <b_mmod_Minimization_Converged-OPLS-2005>
0

> <r_mmod_RMS_Derivative-OPLS-2005>
1.51257967948914

$$$$
65
                    3D
 Structure written by MMmdl.
170179  0  0  1  0            999 V2000
  -30.7005  -14.5057   20.5521 C   0  0  0  0  0  0
  -30.4192  -12.3309   19.4164 C   0  0  0  0  0  0
  -29.4893  -12.5155   18.1997 C   0  0  0  0  0  0
  -28.0077  -12.3850   18.6124 C   0  0  0  0  0  0
  -27.6589  -13.2105   19.8822 C   0  0  2  0  0  0
  -28.7097  -12.9631   20.9868 C   0  0  0  0  0  0
  -25.2574  -13.8166   20.5712 C   0  0  0  0  0  0
  -24.1825  -13.0435   20.9186 C   0  0  0  0  0  0
  -24.6388  -11.6907   20.8748 C   0  0  0  0  0  0
  -23.9066  -10.4290   21.0413 C   0  0  0  0  0  0
  -24.3622   -9.4206   21.9190 C   0  0  0  0  0  0
  -23.6301   -8.2237   22.0753 C   0  0  0  0  0  0
  -22.4281   -8.0280   21.3549 C   0  0  0  0  0  0
  -21.9918   -9.0253   20.4647 C   0  0  0  0  0  0
  -22.7240  -10.2132   20.3061 C   0  0  0  0  0  0
  -21.6854   -6.0743   22.5284 C   0  0  0  0  0  0
  -21.4009   -6.5644   23.8218 C   0  0  0  0  0  0
  -21.3657   -5.6794   24.9180 C   0  0  0  0  0  0
  -21.6048   -4.3059   24.7229 C   0  0  0  0  0  0
  -21.8817   -3.8151   23.4347 C   0  0  0  0  0  0
  -21.9187   -4.6969   22.3404 C   0  0  0  0  0  0
  -22.7847  -13.5235   21.1843 C   0  0  0  0  0  0
  -22.1657   -4.2156   21.0981 F   0  0  0  0  0  0
  -21.5635   -3.4538   25.7739 F   0  0  0  0  0  0
  -30.0161  -13.3281   20.4262 N   0  0  0  0  0  0
  -26.3016  -12.9341   20.3435 N   0  0  0  0  0  0
  -25.9318  -11.6493   20.5798 N   0  0  0  0  0  0
  -22.0484  -12.8233   22.0402 N   0  0  0  0  0  0
  -25.4296  -15.1885   20.4123 N   0  0  0  0  0  0
  -31.8747  -14.5765   20.1709 O   0  0  0  0  0  0
  -21.6637   -6.8883   21.4247 O   0  0  0  0  0  0
  -22.3535  -14.5544   20.6694 O   0  0  0  0  0  0
  -24.6151  -31.8685   23.2115 C   0  0  0  0  0  0
  -25.9044  -32.4826   23.8402 C   0  0  1  0  0  0
  -27.2228  -27.4199   20.0997 C   0  0  0  0  0  0
  -25.5896  -33.8628   24.2337 N   0  0  0  0  0  0
  -23.4034  -30.4930   21.5527 C   0  0  2  0  0  0
  -24.8481  -28.9569   20.1189 C   0  0  0  0  0  0
  -22.7411  -29.4666   22.5004 C   0  0  0  0  0  0
  -18.0276  -28.1385   22.8494 C   0  0  0  0  0  0
  -24.1488  -36.7313   23.2638 C   0  0  0  0  0  0
  -25.9344  -30.8258   21.3710 C   0  0  0  0  0  0
  -26.0085  -29.4570   20.7248 C   0  0  0  0  0  0
  -27.2001  -28.6926   20.7195 C   0  0  0  0  0  0
  -26.0534  -26.9501   19.4682 C   0  0  0  0  0  0
  -24.8647  -27.7009   19.4907 C   0  0  0  0  0  0
  -23.6123  -29.8268   20.1671 C   0  0  0  0  0  0
  -25.4110  -36.3119   24.0335 C   0  0  1  0  0  0
  -20.5867  -28.3663   23.1329 C   0  0  2  0  0  0
  -20.6778  -26.9403   22.5425 C   0  0  0  0  0  0
  -19.5753  -26.6390   21.5227 C   0  0  0  0  0  0
  -18.1928  -26.7935   22.1626 C   0  0  0  0  0  0
  -19.1528  -28.8839   23.2911 C   0  0  0  0  0  0
  -18.9451  -30.1451   23.8915 C   0  0  0  0  0  0
  -17.6454  -30.6589   24.0564 C   0  0  0  0  0  0
  -25.9028  -34.9482   23.5131 C   0  0  0  0  0  0
  -16.5342  -29.9090   23.6326 C   0  0  0  0  0  0
  -16.7265  -28.6511   23.0343 C   0  0  0  0  0  0
  -26.4471  -31.6603   25.0729 C   0  0  0  0  0  0
  -25.3724  -31.3715   26.1465 C   0  0  0  0  0  0
  -27.0302  -30.3046   24.6106 C   0  0  0  0  0  0
  -27.6055  -32.4313   25.7480 C   0  0  0  0  0  0
  -27.5586  -37.1813   24.8463 C   0  0  0  0  0  0
  -21.4144  -29.3034   22.3733 N   0  0  0  0  0  0
  -26.4303  -37.3800   23.9402 N   0  0  0  0  0  0
  -24.6693  -31.0774   22.1029 N   0  0  0  0  0  0
  -23.4181  -28.8220   23.3057 O   0  0  0  0  0  0
  -28.3733  -26.6632   20.0434 O   0  0  0  0  0  0
  -26.5596  -34.8931   22.4699 O   0  0  0  0  0  0
  -23.5346  -32.1444   23.7505 O   0  0  0  0  0  0
  -29.1567  -20.9295   21.0276 C   0  0  0  0  0  0
  -29.3035  -22.7306   22.6399 C   0  0  0  0  0  0
  -29.6520  -19.9876   21.9741 C   0  0  0  0  0  0
  -29.8183  -21.8373   23.5969 C   0  0  0  0  0  0
  -29.9811  -20.4556   23.2868 C   0  0  0  0  0  0
  -28.9728  -22.2960   21.3438 C   0  0  0  0  0  0
  -28.9002  -17.5063   22.1761 C   0  0  0  0  0  0
  -29.8316  -18.1970   20.0624 C   0  0  0  0  0  0
  -29.2683  -16.0171   21.9333 C   0  0  0  0  0  0
  -30.3717  -16.7821   19.7601 C   0  0  0  0  0  0
  -29.8870  -18.5068   21.5613 C   0  0  0  0  0  0
  -30.1925  -22.4335   24.9486 C   0  0  0  0  0  0
  -29.5381  -19.2453   25.5140 C   0  0  0  0  0  0
  -30.5287  -19.5098   24.3670 C   0  0  0  0  0  0
  -28.5000  -25.6214   21.0308 C   0  0  0  0  0  0
  -27.7229  -24.2973   20.7606 C   0  0  0  0  0  0
  -29.9752  -15.6680   20.6720 N   0  0  0  0  0  0
  -28.5155  -23.1623   20.3658 O   0  0  0  0  0  0
  -31.4605  -12.4299   19.1064 H   0  0  0  0  0  0
  -30.3318  -11.3200   19.8161 H   0  0  0  0  0  0
  -29.7279  -11.7852   17.4259 H   0  0  0  0  0  0
  -29.6603  -13.4969   17.7544 H   0  0  0  0  0  0
  -27.8068  -11.3278   18.7914 H   0  0  0  0  0  0
  -27.3609  -12.6797   17.7847 H   0  0  0  0  0  0
  -27.7043  -14.2636   19.6034 H   0  0  0  0  0  0
  -28.7112  -11.9057   21.2552 H   0  0  0  0  0  0
  -28.4849  -13.4631   21.9225 H   0  0  0  0  0  0
  -25.2770   -9.5678   22.4766 H   0  0  0  0  0  0
  -24.0013   -7.4622   22.7466 H   0  0  0  0  0  0
  -21.0851   -8.8774   19.8950 H   0  0  0  0  0  0
  -22.3709  -10.9677   19.6169 H   0  0  0  0  0  0
  -21.1999   -7.6149   23.9730 H   0  0  0  0  0  0
  -21.1484   -6.0519   25.9087 H   0  0  0  0  0  0
  -22.0598   -2.7613   23.2842 H   0  0  0  0  0  0
  -22.4097  -11.9897   22.4797 H   0  0  0  0  0  0
  -21.1094  -13.1256   22.2596 H   0  0  0  0  0  0
  -24.6673  -15.8466   20.5277 H   0  0  0  0  0  0
  -26.2937  -15.6288   20.1226 H   0  0  0  0  0  0
  -26.7108  -32.5529   23.1160 H   0  0  0  0  0  0
  -25.0055  -33.9794   25.0486 H   0  0  0  0  0  0
  -22.6932  -31.3105   21.4153 H   0  0  0  0  0  0
  -23.3753  -35.9644   23.3316 H   0  0  0  0  0  0
  -24.3585  -36.8911   22.2050 H   0  0  0  0  0  0
  -23.7238  -37.6524   23.6637 H   0  0  0  0  0  0
  -26.0495  -31.5878   20.5990 H   0  0  0  0  0  0
  -26.8228  -30.8815   21.9883 H   0  0  0  0  0  0
  -28.0965  -29.0745   21.1879 H   0  0  0  0  0  0
  -26.0539  -26.0128   18.9334 H   0  0  0  0  0  0
  -23.9771  -27.3179   19.0059 H   0  0  0  0  0  0
  -23.7231  -30.6018   19.4081 H   0  0  0  0  0  0
  -22.7343  -29.2499   19.8694 H   0  0  0  0  0  0
  -25.1299  -36.1987   25.0830 H   0  0  0  0  0  0
  -20.9959  -28.3226   24.1449 H   0  0  0  0  0  0
  -20.5712  -26.2266   23.3609 H   0  0  0  0  0  0
  -21.6645  -26.7471   22.1199 H   0  0  0  0  0  0
  -19.6909  -25.6312   21.1235 H   0  0  0  0  0  0
  -19.6693  -27.3222   20.6774 H   0  0  0  0  0  0
  -17.4208  -26.6691   21.4014 H   0  0  0  0  0  0
  -18.0308  -26.0084   22.9024 H   0  0  0  0  0  0
  -19.7928  -30.7264   24.2295 H   0  0  0  0  0  0
  -17.5007  -31.6270   24.5167 H   0  0  0  0  0  0
  -15.5348  -30.2993   23.7651 H   0  0  0  0  0  0
  -15.8665  -28.0834   22.7044 H   0  0  0  0  0  0
  -24.5889  -30.7077   25.7788 H   0  0  0  0  0  0
  -24.8918  -32.2875   26.4910 H   0  0  0  0  0  0
  -25.8056  -30.8869   27.0220 H   0  0  0  0  0  0
  -26.2851  -29.6809   24.1150 H   0  0  0  0  0  0
  -27.4075  -29.7283   25.4562 H   0  0  0  0  0  0
  -27.8684  -30.4390   23.9265 H   0  0  0  0  0  0
  -27.2691  -33.3608   26.2093 H   0  0  0  0  0  0
  -28.3839  -32.6878   25.0277 H   0  0  0  0  0  0
  -28.0749  -31.8404   26.5360 H   0  0  0  0  0  0
  -28.2619  -38.0099   24.7517 H   0  0  0  0  0  0
  -28.1073  -36.2634   24.6291 H   0  0  0  0  0  0
  -27.2300  -37.1465   25.8867 H   0  0  0  0  0  0
  -20.9306  -29.8736   21.6935 H   0  0  0  0  0  0
  -26.0193  -38.2881   24.1400 H   0  0  0  0  0  0
  -28.9050  -20.6156   20.0263 H   0  0  0  0  0  0
  -29.1918  -23.7697   22.9118 H   0  0  0  0  0  0
  -28.7997  -17.6576   23.2471 H   0  0  0  0  0  0
  -27.9043  -17.7012   21.7738 H   0  0  0  0  0  0
  -28.8122  -18.2953   19.6845 H   0  0  0  0  0  0
  -30.4346  -18.9168   19.5069 H   0  0  0  0  0  0
  -28.3203  -15.4896   21.9842 H   0  0  0  0  0  0
  -29.8714  -15.6645   22.7726 H   0  0  0  0  0  0
  -31.4581  -16.8884   19.7570 H   0  0  0  0  0  0
  -30.0993  -16.5067   18.7398 H   0  0  0  0  0  0
  -30.9009  -18.2600   21.8777 H   0  0  0  0  0  0
  -30.4550  -23.4872   24.8460 H   0  0  0  0  0  0
  -31.0524  -21.9490   25.4070 H   0  0  0  0  0  0
  -29.3496  -22.3789   25.6373 H   0  0  0  0  0  0
  -29.9637  -18.5454   26.2329 H   0  0  0  0  0  0
  -28.6050  -18.8179   25.1502 H   0  0  0  0  0  0
  -29.2843  -20.1494   26.0630 H   0  0  0  0  0  0
  -31.4596  -19.9156   24.7625 H   0  0  0  0  0  0
  -30.8295  -18.5473   23.9651 H   0  0  0  0  0  0
  -29.5607  -25.3955   21.1368 H   0  0  0  0  0  0
  -28.1927  -26.0230   21.9980 H   0  0  0  0  0  0
  -26.9969  -24.4380   19.9667 H   0  0  0  0  0  0
  -27.1217  -24.0418   21.6347 H   0  0  0  0  0  0
  1 25  1  0  0  0
  1 30  2  0  0  0
  1 87  1  0  0  0
  2  3  1  0  0  0
  2 25  1  0  0  0
  2 89  1  0  0  0
  2 90  1  0  0  0
  3  4  1  0  0  0
  3 91  1  0  0  0
  3 92  1  0  0  0
  4  5  1  0  0  0
  4 93  1  0  0  0
  4 94  1  0  0  0
  5  6  1  0  0  0
  5 26  1  0  0  0
  5 95  1  0  0  0
  6 25  1  0  0  0
  6 96  1  0  0  0
  6 97  1  0  0  0
  7  8  2  0  0  0
  7 26  1  0  0  0
  7 29  1  0  0  0
  8  9  1  0  0  0
  8 22  1  0  0  0
  9 10  1  0  0  0
  9 27  2  0  0  0
 10 11  2  0  0  0
 10 15  1  0  0  0
 11 12  1  0  0  0
 11 98  1  0  0  0
 12 13  2  0  0  0
 12 99  1  0  0  0
 13 14  1  0  0  0
 13 31  1  0  0  0
 14 15  2  0  0  0
 14100  1  0  0  0
 15101  1  0  0  0
 16 17  2  0  0  0
 16 21  1  0  0  0
 16 31  1  0  0  0
 17 18  1  0  0  0
 17102  1  0  0  0
 18 19  2  0  0  0
 18103  1  0  0  0
 19 20  1  0  0  0
 19 24  1  0  0  0
 20 21  2  0  0  0
 20104  1  0  0  0
 21 23  1  0  0  0
 22 28  1  0  0  0
 22 32  2  0  0  0
 26 27  1  0  0  0
 28105  1  0  0  0
 28106  1  0  0  0
 29107  1  0  0  0
 29108  1  0  0  0
 33 34  1  0  0  0
 33 66  1  0  0  0
 33 70  2  0  0  0
 34 36  1  0  0  0
 34 59  1  0  0  0
 34109  1  0  0  0
 35 44  2  0  0  0
 35 45  1  0  0  0
 35 68  1  0  0  0
 36 56  1  0  0  0
 36110  1  0  0  0
 37 39  1  0  0  0
 37 47  1  0  0  0
 37 66  1  0  0  0
 37111  1  0  0  0
 38 43  2  0  0  0
 38 46  1  0  0  0
 38 47  1  0  0  0
 39 64  1  0  0  0
 39 67  2  0  0  0
 40 52  1  0  0  0
 40 53  2  0  0  0
 40 58  1  0  0  0
 41112  1  0  0  0
 41113  1  0  0  0
 41114  1  0  0  0
 41 48  1  0  0  0
 42 43  1  0  0  0
 42 66  1  0  0  0
 42115  1  0  0  0
 42116  1  0  0  0
 43 44  1  0  0  0
 44117  1  0  0  0
 45 46  2  0  0  0
 45118  1  0  0  0
 46119  1  0  0  0
 47120  1  0  0  0
 47121  1  0  0  0
 48 56  1  0  0  0
 48 65  1  0  0  0
 48122  1  0  0  0
 49 50  1  0  0  0
 49 53  1  0  0  0
 49 64  1  0  0  0
 49123  1  0  0  0
 50 51  1  0  0  0
 50124  1  0  0  0
 50125  1  0  0  0
 51 52  1  0  0  0
 51126  1  0  0  0
 51127  1  0  0  0
 52128  1  0  0  0
 52129  1  0  0  0
 53 54  1  0  0  0
 54 55  2  0  0  0
 54130  1  0  0  0
 55 57  1  0  0  0
 55131  1  0  0  0
 56 69  2  0  0  0
 57 58  2  0  0  0
 57132  1  0  0  0
 58133  1  0  0  0
 59 60  1  0  0  0
 59 61  1  0  0  0
 59 62  1  0  0  0
 60134  1  0  0  0
 60135  1  0  0  0
 60136  1  0  0  0
 61137  1  0  0  0
 61138  1  0  0  0
 61139  1  0  0  0
 62140  1  0  0  0
 62141  1  0  0  0
 62142  1  0  0  0
 63 65  1  0  0  0
 63143  1  0  0  0
 63144  1  0  0  0
 63145  1  0  0  0
 64146  1  0  0  0
 65147  1  0  0  0
 68 85  1  0  0  0
 71 73  2  0  0  0
 71 76  1  0  0  0
 71148  1  0  0  0
 72 74  1  0  0  0
 72 76  2  0  0  0
 72149  1  0  0  0
 73 75  1  0  0  0
 73 81  1  0  0  0
 74 75  2  0  0  0
 74 82  1  0  0  0
 75 84  1  0  0  0
 76 88  1  0  0  0
 77 79  1  0  0  0
 77 81  1  0  0  0
 77150  1  0  0  0
 77151  1  0  0  0
 78 80  1  0  0  0
 78 81  1  0  0  0
 78152  1  0  0  0
 78153  1  0  0  0
 79 87  1  0  0  0
 79154  1  0  0  0
 79155  1  0  0  0
 80 87  1  0  0  0
 80156  1  0  0  0
 80157  1  0  0  0
 81158  1  0  0  0
 82159  1  0  0  0
 82160  1  0  0  0
 82161  1  0  0  0
 83 84  1  0  0  0
 83162  1  0  0  0
 83163  1  0  0  0
 83164  1  0  0  0
 84165  1  0  0  0
 84166  1  0  0  0
 85 86  1  0  0  0
 85167  1  0  0  0
 85168  1  0  0  0
 86 88  1  0  0  0
 86169  1  0  0  0
 86170  1  0  0  0
M  ISO  4   1 100  68 101  85 101  87 100
M  END
> <chiral flag>
0

> <version>
0

> <s_m_source_file>
/data/baiqing/PycharmProjects/Reinvent-master-3.2/result/LINK_invent/BTK/process_docking_weight1_custom_sum_contain_oxygen_bond_distance_aromatic_linkinvent_7_9_3/rearranged_h_0142.sdf

> <i_m_source_file_index>
65

> <r_mmod_Potential_Energy-OPLS-2005>
247.063903808594

> <r_mmod_Stretch_Energy-OPLS-2005>
52.8842887878418

> <r_mmod_Bend_Energy-OPLS-2005>
139.760299682617

> <r_mmod_Torsional_Energy-OPLS-2005>
345.819000244141

> <r_mmod_Improper_Torsional_Energy-OPLS-2005>
14.6192607879639

> <r_mmod_Van_der_Waal_Energy-OPLS-2005>
175.631332397461

> <r_mmod_Electrostatic_Energy-OPLS-2005>
-304.289276123047

> <r_mmod_Solvation_Energy-OPLS-2005>
-195.306594848633

> <b_mmod_Minimization_Converged-OPLS-2005>
0

> <r_mmod_RMS_Derivative-OPLS-2005>
1.30467414855957

$$$$
66
                    3D
 Structure written by MMmdl.
169178  0  0  1  0            999 V2000
  -30.6879  -14.5061   20.5590 C   0  0  0  0  0  0
  -30.4240  -12.3268   19.4292 C   0  0  0  0  0  0
  -29.4950  -12.5048   18.2101 C   0  0  0  0  0  0
  -28.0167  -12.3629   18.6228 C   0  0  0  0  0  0
  -27.6583  -13.2109   19.8727 C   0  0  2  0  0  0
  -28.7003  -13.0139   20.9968 C   0  0  0  0  0  0
  -25.2574  -13.8169   20.5684 C   0  0  0  0  0  0
  -24.1831  -13.0440   20.9181 C   0  0  0  0  0  0
  -24.6392  -11.6911   20.8738 C   0  0  0  0  0  0
  -23.9061  -10.4295   21.0407 C   0  0  0  0  0  0
  -24.3615   -9.4209   21.9184 C   0  0  0  0  0  0
  -23.6292   -8.2245   22.0755 C   0  0  0  0  0  0
  -22.4276   -8.0281   21.3545 C   0  0  0  0  0  0
  -21.9908   -9.0256   20.4645 C   0  0  0  0  0  0
  -22.7236  -10.2135   20.3057 C   0  0  0  0  0  0
  -21.6852   -6.0735   22.5277 C   0  0  0  0  0  0
  -21.4013   -6.5639   23.8212 C   0  0  0  0  0  0
  -21.3659   -5.6793   24.9174 C   0  0  0  0  0  0
  -21.6045   -4.3056   24.7224 C   0  0  0  0  0  0
  -21.8820   -3.8148   23.4346 C   0  0  0  0  0  0
  -21.9193   -4.6963   22.3402 C   0  0  0  0  0  0
  -22.7854  -13.5236   21.1846 C   0  0  0  0  0  0
  -22.1662   -4.2149   21.0979 F   0  0  0  0  0  0
  -21.5629   -3.4541   25.7738 F   0  0  0  0  0  0
  -30.0260  -13.3225   20.4385 N   0  0  0  0  0  0
  -26.3006  -12.9344   20.3358 N   0  0  0  0  0  0
  -25.9319  -11.6500   20.5770 N   0  0  0  0  0  0
  -22.0496  -12.8224   22.0403 N   0  0  0  0  0  0
  -25.4292  -15.1888   20.4092 N   0  0  0  0  0  0
  -31.8306  -14.6723   20.1238 O   0  0  0  0  0  0
  -21.6640   -6.8879   21.4241 O   0  0  0  0  0  0
  -22.3539  -14.5546   20.6704 O   0  0  0  0  0  0
  -24.6183  -31.8664   23.2100 C   0  0  0  0  0  0
  -25.9076  -32.4805   23.8393 C   0  0  1  0  0  0
  -27.2235  -27.3968   20.1113 C   0  0  0  0  0  0
  -25.5934  -33.8603   24.2322 N   0  0  0  0  0  0
  -23.4072  -30.4916   21.5507 C   0  0  2  0  0  0
  -24.8533  -28.9556   20.1161 C   0  0  0  0  0  0
  -22.7425  -29.4655   22.4976 C   0  0  0  0  0  0
  -18.0274  -28.1377   22.8481 C   0  0  0  0  0  0
  -24.1494  -36.7309   23.2634 C   0  0  0  0  0  0
  -25.9404  -30.8192   21.3722 C   0  0  0  0  0  0
  -26.0157  -29.4504   20.7219 C   0  0  0  0  0  0
  -27.2051  -28.6776   20.7191 C   0  0  0  0  0  0
  -26.0535  -26.9471   19.4640 C   0  0  0  0  0  0
  -24.8677  -27.7023   19.4841 C   0  0  0  0  0  0
  -23.6188  -29.8284   20.1645 C   0  0  0  0  0  0
  -25.4113  -36.3095   24.0331 C   0  0  1  0  0  0
  -20.5868  -28.3676   23.1302 C   0  0  2  0  0  0
  -20.6769  -26.9407   22.5416 C   0  0  0  0  0  0
  -19.5753  -26.6384   21.5208 C   0  0  0  0  0  0
  -18.1924  -26.7924   22.1612 C   0  0  0  0  0  0
  -19.1524  -28.8841   23.2889 C   0  0  0  0  0  0
  -18.9453  -30.1441   23.8908 C   0  0  0  0  0  0
  -17.6459  -30.6585   24.0563 C   0  0  0  0  0  0
  -25.9043  -34.9462   23.5120 C   0  0  0  0  0  0
  -16.5348  -29.9091   23.6320 C   0  0  0  0  0  0
  -16.7264  -28.6507   23.0341 C   0  0  0  0  0  0
  -26.4501  -31.6586   25.0726 C   0  0  0  0  0  0
  -25.3761  -31.3701   26.1469 C   0  0  0  0  0  0
  -27.0343  -30.3023   24.6130 C   0  0  0  0  0  0
  -27.6069  -32.4313   25.7497 C   0  0  0  0  0  0
  -27.5584  -37.1797   24.8456 C   0  0  0  0  0  0
  -21.4151  -29.3044   22.3714 N   0  0  0  0  0  0
  -26.4292  -37.3785   23.9408 N   0  0  0  0  0  0
  -24.6730  -31.0743   22.1018 N   0  0  0  0  0  0
  -23.4179  -28.8184   23.3025 O   0  0  0  0  0  0
  -28.3700  -26.6193   20.0848 O   0  0  0  0  0  0
  -26.5596  -34.8920   22.4672 O   0  0  0  0  0  0
  -23.5373  -32.1439   23.7479 O   0  0  0  0  0  0
  -30.9584  -19.0645   19.7551 C   0  0  0  0  0  0
  -30.1638  -19.2703   22.1598 C   0  0  0  0  0  0
  -29.9814  -23.3573   20.3248 C   0  0  0  0  0  0
  -27.5914  -22.9093   21.0760 C   0  0  0  0  0  0
  -30.3176  -17.6594   19.6892 C   0  0  0  0  0  0
  -29.5796  -17.8343   22.0492 C   0  0  0  0  0  0
  -29.8163  -24.7984   20.8884 C   0  0  0  0  0  0
  -27.3894  -24.2681   20.3587 C   0  0  0  0  0  0
  -30.3315  -20.0269   20.8087 C   0  0  2  0  0  0
  -29.0281  -22.3217   20.9895 C   0  0  1  0  0  0
  -30.3939  -16.9650   21.0643 C   0  0  1  0  0  0
  -28.3710  -25.3726   20.8364 C   0  0  2  0  0  0
  -28.7934  -20.8874   18.8680 C   0  0  0  0  0  0
  -29.0654  -20.8633   20.3866 C   0  0  1  0  0  0
  -29.9635  -15.5491   21.0274 N   0  0  0  0  0  0
  -31.4672  -12.4326   19.1261 H   0  0  0  0  0  0
  -30.3342  -11.3200   19.8395 H   0  0  0  0  0  0
  -29.7390  -11.7712   17.4403 H   0  0  0  0  0  0
  -29.6581  -13.4854   17.7605 H   0  0  0  0  0  0
  -27.8307  -11.3074   18.8257 H   0  0  0  0  0  0
  -27.3663  -12.6303   17.7892 H   0  0  0  0  0  0
  -27.6959  -14.2558   19.5639 H   0  0  0  0  0  0
  -28.6838  -11.9840   21.3565 H   0  0  0  0  0  0
  -28.4624  -13.6323   21.8637 H   0  0  0  0  0  0
  -25.2760   -9.5683   22.4758 H   0  0  0  0  0  0
  -24.0001   -7.4635   22.7476 H   0  0  0  0  0  0
  -21.0840   -8.8775   19.8951 H   0  0  0  0  0  0
  -22.3697  -10.9676   19.6167 H   0  0  0  0  0  0
  -21.2008   -7.6148   23.9714 H   0  0  0  0  0  0
  -21.1480   -6.0524   25.9075 H   0  0  0  0  0  0
  -22.0601   -2.7611   23.2847 H   0  0  0  0  0  0
  -22.4113  -11.9879   22.4776 H   0  0  0  0  0  0
  -21.1120  -13.1253   22.2625 H   0  0  0  0  0  0
  -24.6636  -15.8447   20.5193 H   0  0  0  0  0  0
  -26.2817  -15.6275   20.0839 H   0  0  0  0  0  0
  -26.7144  -32.5514   23.1151 H   0  0  0  0  0  0
  -25.0107  -33.9758   25.0486 H   0  0  0  0  0  0
  -22.6985  -31.3101   21.4115 H   0  0  0  0  0  0
  -23.3750  -35.9645   23.3285 H   0  0  0  0  0  0
  -24.3597  -36.8937   22.2051 H   0  0  0  0  0  0
  -23.7252  -37.6509   23.6665 H   0  0  0  0  0  0
  -26.0604  -31.5834   20.6027 H   0  0  0  0  0  0
  -26.8244  -30.8704   21.9950 H   0  0  0  0  0  0
  -28.1017  -29.0536   21.1923 H   0  0  0  0  0  0
  -26.0503  -26.0124   18.9243 H   0  0  0  0  0  0
  -23.9812  -27.3224   18.9948 H   0  0  0  0  0  0
  -23.7351  -30.6065   19.4091 H   0  0  0  0  0  0
  -22.7409  -29.2538   19.8630 H   0  0  0  0  0  0
  -25.1285  -36.1951   25.0823 H   0  0  0  0  0  0
  -20.9950  -28.3254   24.1428 H   0  0  0  0  0  0
  -20.5679  -26.2286   23.3608 H   0  0  0  0  0  0
  -21.6640  -26.7458   22.1203 H   0  0  0  0  0  0
  -19.6922  -25.6295   21.1242 H   0  0  0  0  0  0
  -19.6699  -27.3190   20.6733 H   0  0  0  0  0  0
  -17.4198  -26.6668   21.4009 H   0  0  0  0  0  0
  -18.0316  -26.0063   22.9006 H   0  0  0  0  0  0
  -19.7934  -30.7238   24.2299 H   0  0  0  0  0  0
  -17.5020  -31.6267   24.5162 H   0  0  0  0  0  0
  -15.5352  -30.2998   23.7642 H   0  0  0  0  0  0
  -15.8660  -28.0838   22.7047 H   0  0  0  0  0  0
  -24.5948  -30.7031   25.7808 H   0  0  0  0  0  0
  -24.8941  -32.2859   26.4902 H   0  0  0  0  0  0
  -25.8111  -30.8889   27.0239 H   0  0  0  0  0  0
  -26.2897  -29.6759   24.1205 H   0  0  0  0  0  0
  -27.4120  -29.7286   25.4603 H   0  0  0  0  0  0
  -27.8730  -30.4316   23.9284 H   0  0  0  0  0  0
  -27.2681  -33.3611   26.2082 H   0  0  0  0  0  0
  -28.3882  -32.6874   25.0327 H   0  0  0  0  0  0
  -28.0735  -31.8433   26.5410 H   0  0  0  0  0  0
  -28.2576  -38.0117   24.7532 H   0  0  0  0  0  0
  -28.1102  -36.2651   24.6241 H   0  0  0  0  0  0
  -27.2309  -37.1395   25.8858 H   0  0  0  0  0  0
  -20.9313  -29.8792   21.6955 H   0  0  0  0  0  0
  -26.0177  -38.2856   24.1428 H   0  0  0  0  0  0
  -30.9933  -19.5143   18.7644 H   0  0  0  0  0  0
  -32.0078  -18.9249   20.0194 H   0  0  0  0  0  0
  -31.1466  -19.1887   22.6266 H   0  0  0  0  0  0
  -29.5658  -19.8632   22.8531 H   0  0  0  0  0  0
  -31.0182  -23.0412   20.4440 H   0  0  0  0  0  0
  -29.8067  -23.3978   19.2501 H   0  0  0  0  0  0
  -26.8589  -22.1989   20.6924 H   0  0  0  0  0  0
  -27.3311  -23.0362   22.1279 H   0  0  0  0  0  0
  -30.8389  -17.0673   18.9364 H   0  0  0  0  0  0
  -29.2814  -17.7346   19.3575 H   0  0  0  0  0  0
  -28.5362  -17.8874   21.7341 H   0  0  0  0  0  0
  -29.5757  -17.3733   23.0383 H   0  0  0  0  0  0
  -30.4974  -25.4660   20.3595 H   0  0  0  0  0  0
  -30.1569  -24.8051   21.9243 H   0  0  0  0  0  0
  -26.3610  -24.5735   20.5440 H   0  0  0  0  0  0
  -27.4875  -24.1265   19.2820 H   0  0  0  0  0  0
  -31.1061  -20.7748   20.9811 H   0  0  0  0  0  0
  -29.3640  -22.2247   22.0238 H   0  0  0  0  0  0
  -31.4334  -16.9675   21.3991 H   0  0  0  0  0  0
  -28.0921  -25.6331   21.8590 H   0  0  0  0  0  0
  -28.6205  -19.8840   18.4786 H   0  0  0  0  0  0
  -29.6255  -21.3190   18.3118 H   0  0  0  0  0  0
  -27.9039  -21.4703   18.6319 H   0  0  0  0  0  0
  -28.2161  -20.3263   20.8133 H   0  0  0  0  0  0
  -29.0250  -15.3408   21.3335 H   0  0  0  0  0  0
  1 25  1  0  0  0
  1 30  2  0  0  0
  1 85  1  0  0  0
  2  3  1  0  0  0
  2 25  1  0  0  0
  2 86  1  0  0  0
  2 87  1  0  0  0
  3  4  1  0  0  0
  3 88  1  0  0  0
  3 89  1  0  0  0
  4  5  1  0  0  0
  4 90  1  0  0  0
  4 91  1  0  0  0
  5  6  1  0  0  0
  5 26  1  0  0  0
  5 92  1  0  0  0
  6 25  1  0  0  0
  6 93  1  0  0  0
  6 94  1  0  0  0
  7  8  2  0  0  0
  7 26  1  0  0  0
  7 29  1  0  0  0
  8  9  1  0  0  0
  8 22  1  0  0  0
  9 10  1  0  0  0
  9 27  2  0  0  0
 10 11  2  0  0  0
 10 15  1  0  0  0
 11 12  1  0  0  0
 11 95  1  0  0  0
 12 13  2  0  0  0
 12 96  1  0  0  0
 13 14  1  0  0  0
 13 31  1  0  0  0
 14 15  2  0  0  0
 14 97  1  0  0  0
 15 98  1  0  0  0
 16 17  2  0  0  0
 16 21  1  0  0  0
 16 31  1  0  0  0
 17 18  1  0  0  0
 17 99  1  0  0  0
 18 19  2  0  0  0
 18100  1  0  0  0
 19 20  1  0  0  0
 19 24  1  0  0  0
 20 21  2  0  0  0
 20101  1  0  0  0
 21 23  1  0  0  0
 22 28  1  0  0  0
 22 32  2  0  0  0
 26 27  1  0  0  0
 28102  1  0  0  0
 28103  1  0  0  0
 29104  1  0  0  0
 29105  1  0  0  0
 33 34  1  0  0  0
 33 66  1  0  0  0
 33 70  2  0  0  0
 34 36  1  0  0  0
 34 59  1  0  0  0
 34106  1  0  0  0
 35 44  2  0  0  0
 35 45  1  0  0  0
 35 68  1  0  0  0
 36 56  1  0  0  0
 36107  1  0  0  0
 37 39  1  0  0  0
 37 47  1  0  0  0
 37 66  1  0  0  0
 37108  1  0  0  0
 38 43  2  0  0  0
 38 46  1  0  0  0
 38 47  1  0  0  0
 39 64  1  0  0  0
 39 67  2  0  0  0
 40 52  1  0  0  0
 40 53  2  0  0  0
 40 58  1  0  0  0
 41109  1  0  0  0
 41110  1  0  0  0
 41111  1  0  0  0
 41 48  1  0  0  0
 42 43  1  0  0  0
 42 66  1  0  0  0
 42112  1  0  0  0
 42113  1  0  0  0
 43 44  1  0  0  0
 44114  1  0  0  0
 45 46  2  0  0  0
 45115  1  0  0  0
 46116  1  0  0  0
 47117  1  0  0  0
 47118  1  0  0  0
 48 56  1  0  0  0
 48 65  1  0  0  0
 48119  1  0  0  0
 49 50  1  0  0  0
 49 53  1  0  0  0
 49 64  1  0  0  0
 49120  1  0  0  0
 50 51  1  0  0  0
 50121  1  0  0  0
 50122  1  0  0  0
 51 52  1  0  0  0
 51123  1  0  0  0
 51124  1  0  0  0
 52125  1  0  0  0
 52126  1  0  0  0
 53 54  1  0  0  0
 54 55  2  0  0  0
 54127  1  0  0  0
 55 57  1  0  0  0
 55128  1  0  0  0
 56 69  2  0  0  0
 57 58  2  0  0  0
 57129  1  0  0  0
 58130  1  0  0  0
 59 60  1  0  0  0
 59 61  1  0  0  0
 59 62  1  0  0  0
 60131  1  0  0  0
 60132  1  0  0  0
 60133  1  0  0  0
 61134  1  0  0  0
 61135  1  0  0  0
 61136  1  0  0  0
 62137  1  0  0  0
 62138  1  0  0  0
 62139  1  0  0  0
 63 65  1  0  0  0
 63140  1  0  0  0
 63141  1  0  0  0
 63142  1  0  0  0
 64143  1  0  0  0
 65144  1  0  0  0
 68 82  1  0  0  0
 71 75  1  0  0  0
 71145  1  0  0  0
 71146  1  0  0  0
 71 79  1  0  0  0
 72 76  1  0  0  0
 72 79  1  0  0  0
 72147  1  0  0  0
 72148  1  0  0  0
 73 77  1  0  0  0
 73149  1  0  0  0
 73150  1  0  0  0
 73 80  1  0  0  0
 74 78  1  0  0  0
 74 80  1  0  0  0
 74151  1  0  0  0
 74152  1  0  0  0
 75 81  1  0  0  0
 75153  1  0  0  0
 75154  1  0  0  0
 76 81  1  0  0  0
 76155  1  0  0  0
 76156  1  0  0  0
 77 82  1  0  0  0
 77157  1  0  0  0
 77158  1  0  0  0
 78 82  1  0  0  0
 78159  1  0  0  0
 78160  1  0  0  0
 79 84  1  0  0  0
 79161  1  0  0  0
 80 84  1  0  0  0
 80162  1  0  0  0
 81 85  1  0  0  0
 81163  1  0  0  0
 82164  1  0  0  0
 83165  1  0  0  0
 83166  1  0  0  0
 83167  1  0  0  0
 83 84  1  0  0  0
 84168  1  0  0  0
 85169  1  0  0  0
M  ISO  4   1 100  68 101  82 101  85 100
M  END
> <chiral flag>
0

> <version>
0

> <s_m_source_file>
/data/baiqing/PycharmProjects/Reinvent-master-3.2/result/LINK_invent/BTK/process_docking_weight1_custom_sum_contain_oxygen_bond_distance_aromatic_linkinvent_7_9_3/rearranged_h_0142.sdf

> <i_m_source_file_index>
66

> <r_mmod_Potential_Energy-OPLS-2005>
73.0170440673828

> <r_mmod_Stretch_Energy-OPLS-2005>
48.5802116394043

> <r_mmod_Bend_Energy-OPLS-2005>
121.790313720703

> <r_mmod_Torsional_Energy-OPLS-2005>
315.099243164062

> <r_mmod_Improper_Torsional_Energy-OPLS-2005>
3.76610612869263

> <r_mmod_Van_der_Waal_Energy-OPLS-2005>
145.259414672852

> <r_mmod_Electrostatic_Energy-OPLS-2005>
-392.156219482422

> <r_mmod_Solvation_Energy-OPLS-2005>
-187.552612304688

> <b_mmod_Minimization_Converged-OPLS-2005>
0

> <r_mmod_RMS_Derivative-OPLS-2005>
0.968186914920807

$$$$
67
                    3D
 Structure written by MMmdl.
166174  0  0  1  0            999 V2000
  -30.5344  -14.9725   20.3952 C   0  0  0  0  0  0
  -30.4362  -12.5985   19.5086 C   0  0  0  0  0  0
  -29.5248  -12.5350   18.2612 C   0  0  0  0  0  0
  -28.0548  -12.3275   18.6715 C   0  0  0  0  0  0
  -27.6275  -13.2559   19.8382 C   0  0  2  0  0  0
  -28.6681  -13.2944   20.9771 C   0  0  0  0  0  0
  -25.2452  -13.8225   20.5728 C   0  0  0  0  0  0
  -24.1769  -13.0440   20.9214 C   0  0  0  0  0  0
  -24.6402  -11.6930   20.8746 C   0  0  0  0  0  0
  -23.9089  -10.4297   21.0394 C   0  0  0  0  0  0
  -24.3637   -9.4212   21.9170 C   0  0  0  0  0  0
  -23.6308   -8.2251   22.0745 C   0  0  0  0  0  0
  -22.4287   -8.0282   21.3539 C   0  0  0  0  0  0
  -21.9925   -9.0254   20.4640 C   0  0  0  0  0  0
  -22.7259  -10.2132   20.3046 C   0  0  0  0  0  0
  -21.6857   -6.0735   22.5277 C   0  0  0  0  0  0
  -21.4018   -6.5638   23.8211 C   0  0  0  0  0  0
  -21.3668   -5.6791   24.9172 C   0  0  0  0  0  0
  -21.6051   -4.3053   24.7221 C   0  0  0  0  0  0
  -21.8816   -3.8142   23.4343 C   0  0  0  0  0  0
  -21.9195   -4.6960   22.3403 C   0  0  0  0  0  0
  -22.7791  -13.5207   21.1874 C   0  0  0  0  0  0
  -22.1661   -4.2147   21.0977 F   0  0  0  0  0  0
  -21.5635   -3.4539   25.7736 F   0  0  0  0  0  0
  -29.9435  -13.7073   20.3792 N   0  0  0  0  0  0
  -26.2877  -12.9476   20.3247 N   0  0  0  0  0  0
  -25.9337  -11.6602   20.5735 N   0  0  0  0  0  0
  -22.0452  -12.8198   22.0438 N   0  0  0  0  0  0
  -25.4122  -15.1958   20.4195 N   0  0  0  0  0  0
  -31.7442  -15.0060   20.1471 O   0  0  0  0  0  0
  -21.6650   -6.8875   21.4239 O   0  0  0  0  0  0
  -22.3478  -14.5509   20.6715 O   0  0  0  0  0  0
  -24.6447  -31.8438   23.1878 C   0  0  0  0  0  0
  -25.9214  -32.4694   23.8277 C   0  0  1  0  0  0
  -27.2088  -27.1186   20.1618 C   0  0  0  0  0  0
  -25.5967  -33.8501   24.2194 N   0  0  0  0  0  0
  -23.4486  -30.4636   21.5332 C   0  0  2  0  0  0
  -24.8978  -28.8882   20.1118 C   0  0  0  0  0  0
  -22.7574  -29.4546   22.4854 C   0  0  0  0  0  0
  -18.0307  -28.1395   22.8476 C   0  0  0  0  0  0
  -24.1495  -36.7254   23.2639 C   0  0  0  0  0  0
  -26.0062  -30.7117   21.3904 C   0  0  0  0  0  0
  -26.0755  -29.3209   20.7343 C   0  0  0  0  0  0
  -27.2340  -28.4531   20.7398 C   0  0  0  0  0  0
  -26.0095  -26.7971   19.4895 C   0  0  0  0  0  0
  -24.8792  -27.6408   19.4715 C   0  0  0  0  0  0
  -23.6759  -29.7930   20.1532 C   0  0  0  0  0  0
  -25.4129  -36.3031   24.0313 C   0  0  1  0  0  0
  -20.5920  -28.3721   23.1233 C   0  0  2  0  0  0
  -20.6795  -26.9425   22.5400 C   0  0  0  0  0  0
  -19.5770  -26.6378   21.5212 C   0  0  0  0  0  0
  -18.1951  -26.7931   22.1622 C   0  0  0  0  0  0
  -19.1563  -28.8876   23.2846 C   0  0  0  0  0  0
  -18.9480  -30.1471   23.8873 C   0  0  0  0  0  0
  -17.6475  -30.6590   24.0555 C   0  0  0  0  0  0
  -25.9080  -34.9408   23.5064 C   0  0  0  0  0  0
  -16.5365  -29.9083   23.6333 C   0  0  0  0  0  0
  -16.7288  -28.6499   23.0357 C   0  0  0  0  0  0
  -26.4530  -31.6558   25.0717 C   0  0  0  0  0  0
  -25.3705  -31.3751   26.1404 C   0  0  0  0  0  0
  -27.0392  -30.2950   24.6305 C   0  0  0  0  0  0
  -27.6060  -32.4322   25.7504 C   0  0  0  0  0  0
  -27.5580  -37.1788   24.8463 C   0  0  0  0  0  0
  -21.4265  -29.3044   22.3600 N   0  0  0  0  0  0
  -26.4292  -37.3746   23.9402 N   0  0  0  0  0  0
  -24.7196  -31.0281   22.0918 N   0  0  0  0  0  0
  -23.4206  -28.8097   23.3013 O   0  0  0  0  0  0
  -28.2560  -26.1224   20.2006 O   0  0  0  0  0  0
  -26.5660  -34.8903   22.4637 O   0  0  0  0  0  0
  -23.5562  -32.1324   23.7085 O   0  0  0  0  0  0
  -30.2666  -20.3852   19.0645 C   0  0  0  0  0  0
  -29.2177  -18.8565   20.6224 C   0  0  0  0  0  0
  -29.3546  -20.2589   20.1235 C   0  0  0  0  0  0
  -30.9230  -19.2730   18.4885 C   0  0  0  0  0  0
  -29.9090  -17.6442   20.0843 C   0  0  0  0  0  0
  -30.7014  -17.9345   18.9345 C   0  0  0  0  0  0
  -31.8960  -19.5740   17.3580 C   0  0  0  0  0  0
  -26.8709  -17.2073   16.8874 C   0  0  0  0  0  0
  -28.5684  -21.6378   20.6010 C   0  0  0  0  0  0
  -28.9114  -23.2377   20.1343 C   0  0  0  0  0  0
  -29.1744  -16.2844   16.9558 C   0  0  0  0  0  0
  -27.9578  -24.6036   20.4519 C   0  0  0  0  0  0
  -30.6824  -16.6205   16.9318 C   0  0  0  0  0  0
  -29.7525  -16.1676   20.5358 N   0  0  0  0  0  0
  -28.3152  -17.4758   16.7469 N   0  3  0  0  0  0
  -31.2387  -16.8893   18.2246 O   0  0  0  0  0  0
  -31.4729  -12.7466   19.2035 H   0  0  0  0  0  0
  -30.4191  -11.6499   20.0476 H   0  0  0  0  0  0
  -29.8453  -11.7332   17.5953 H   0  0  0  0  0  0
  -29.6222  -13.4582   17.6907 H   0  0  0  0  0  0
  -27.9449  -11.2852   18.9720 H   0  0  0  0  0  0
  -27.3975  -12.4699   17.8125 H   0  0  0  0  0  0
  -27.5850  -14.2580   19.4107 H   0  0  0  0  0  0
  -28.7580  -12.3231   21.4649 H   0  0  0  0  0  0
  -28.3645  -14.0001   21.7518 H   0  0  0  0  0  0
  -25.2773   -9.5701   22.4758 H   0  0  0  0  0  0
  -24.0015   -7.4648   22.7468 H   0  0  0  0  0  0
  -21.0851   -8.8778   19.8953 H   0  0  0  0  0  0
  -22.3700  -10.9677   19.6169 H   0  0  0  0  0  0
  -21.2007   -7.6145   23.9717 H   0  0  0  0  0  0
  -21.1499   -6.0517   25.9079 H   0  0  0  0  0  0
  -22.0587   -2.7607   23.2845 H   0  0  0  0  0  0
  -22.4070  -11.9872   22.4844 H   0  0  0  0  0  0
  -21.1064  -13.1208   22.2627 H   0  0  0  0  0  0
  -24.6488  -15.8476   20.5597 H   0  0  0  0  0  0
  -26.2725  -15.6498   20.1470 H   0  0  0  0  0  0
  -26.7275  -32.5295   23.1001 H   0  0  0  0  0  0
  -25.0097  -33.9618   25.0331 H   0  0  0  0  0  0
  -22.7509  -31.2896   21.3791 H   0  0  0  0  0  0
  -23.3767  -35.9575   23.3286 H   0  0  0  0  0  0
  -24.3577  -36.8902   22.2055 H   0  0  0  0  0  0
  -23.7241  -37.6442   23.6687 H   0  0  0  0  0  0
  -26.1649  -31.4646   20.6171 H   0  0  0  0  0  0
  -26.8750  -30.7617   22.0350 H   0  0  0  0  0  0
  -28.1329  -28.7816   21.2424 H   0  0  0  0  0  0
  -25.9169  -25.8559   18.9697 H   0  0  0  0  0  0
  -23.9853  -27.3088   18.9617 H   0  0  0  0  0  0
  -23.8141  -30.5677   19.3985 H   0  0  0  0  0  0
  -22.7895  -29.2374   19.8416 H   0  0  0  0  0  0
  -25.1319  -36.1863   25.0808 H   0  0  0  0  0  0
  -21.0011  -28.3318   24.1356 H   0  0  0  0  0  0
  -20.5702  -26.2338   23.3622 H   0  0  0  0  0  0
  -21.6662  -26.7439   22.1196 H   0  0  0  0  0  0
  -19.6935  -25.6283   21.1265 H   0  0  0  0  0  0
  -19.6712  -27.3169   20.6730 H   0  0  0  0  0  0
  -17.4220  -26.6668   21.4022 H   0  0  0  0  0  0
  -18.0352  -26.0079   22.9027 H   0  0  0  0  0  0
  -19.7953  -30.7295   24.2236 H   0  0  0  0  0  0
  -17.5024  -31.6272   24.5159 H   0  0  0  0  0  0
  -15.5363  -30.2976   23.7672 H   0  0  0  0  0  0
  -15.8689  -28.0808   22.7091 H   0  0  0  0  0  0
  -24.5885  -30.7106   25.7712 H   0  0  0  0  0  0
  -24.8895  -32.2933   26.4783 H   0  0  0  0  0  0
  -25.7979  -30.8943   27.0212 H   0  0  0  0  0  0
  -26.3008  -29.6667   24.1310 H   0  0  0  0  0  0
  -27.3990  -29.7258   25.4885 H   0  0  0  0  0  0
  -27.8928  -30.4172   23.9635 H   0  0  0  0  0  0
  -27.2658  -33.3644   26.2028 H   0  0  0  0  0  0
  -28.3907  -32.6846   25.0360 H   0  0  0  0  0  0
  -28.0687  -31.8478   26.5466 H   0  0  0  0  0  0
  -28.2587  -38.0093   24.7517 H   0  0  0  0  0  0
  -28.1091  -36.2626   24.6292 H   0  0  0  0  0  0
  -27.2296  -37.1429   25.8864 H   0  0  0  0  0  0
  -20.9478  -29.8749   21.6774 H   0  0  0  0  0  0
  -26.0161  -38.2816   24.1403 H   0  0  0  0  0  0
  -30.4540  -21.3689   18.6550 H   0  0  0  0  0  0
  -28.5386  -18.7048   21.4491 H   0  0  0  0  0  0
  -32.4347  -20.5020   17.5535 H   0  0  0  0  0  0
  -31.3638  -19.6965   16.4148 H   0  0  0  0  0  0
  -32.6440  -18.7894   17.2413 H   0  0  0  0  0  0
  -26.2960  -18.1090   16.6740 H   0  0  0  0  0  0
  -26.6270  -16.8860   17.9008 H   0  0  0  0  0  0
  -26.5472  -16.4322   16.1920 H   0  0  0  0  0  0
  -28.5678  -21.6196   21.6912 H   0  0  0  0  0  0
  -27.5263  -21.4640   20.3296 H   0  0  0  0  0  0
  -29.0297  -23.2192   19.0515 H   0  0  0  0  0  0
  -29.9080  -23.4604   20.5153 H   0  0  0  0  0  0
  -28.9118  -15.7741   17.8814 H   0  0  0  0  0  0
  -28.9629  -15.5810   16.1490 H   0  0  0  0  0  0
  -27.7470  -24.5608   21.5206 H   0  0  0  0  0  0
  -26.9992  -24.3706   19.9946 H   0  0  0  0  0  0
  -30.9019  -17.4042   16.2092 H   0  0  0  0  0  0
  -31.2164  -15.7436   16.5653 H   0  0  0  0  0  0
  -28.8534  -15.9734   20.9484 H   0  0  0  0  0  0
  -28.5615  -18.2042   17.4000 H   0  0  0  0  0  0
  -28.4691  -17.8398   15.8176 H   0  0  0  0  0  0
  1 25  1  0  0  0
  1 30  2  0  0  0
  1 84  1  0  0  0
  2  3  1  0  0  0
  2 25  1  0  0  0
  2 87  1  0  0  0
  2 88  1  0  0  0
  3  4  1  0  0  0
  3 89  1  0  0  0
  3 90  1  0  0  0
  4  5  1  0  0  0
  4 91  1  0  0  0
  4 92  1  0  0  0
  5  6  1  0  0  0
  5 26  1  0  0  0
  5 93  1  0  0  0
  6 25  1  0  0  0
  6 94  1  0  0  0
  6 95  1  0  0  0
  7  8  2  0  0  0
  7 26  1  0  0  0
  7 29  1  0  0  0
  8  9  1  0  0  0
  8 22  1  0  0  0
  9 10  1  0  0  0
  9 27  2  0  0  0
 10 11  2  0  0  0
 10 15  1  0  0  0
 11 12  1  0  0  0
 11 96  1  0  0  0
 12 13  2  0  0  0
 12 97  1  0  0  0
 13 14  1  0  0  0
 13 31  1  0  0  0
 14 15  2  0  0  0
 14 98  1  0  0  0
 15 99  1  0  0  0
 16 17  2  0  0  0
 16 21  1  0  0  0
 16 31  1  0  0  0
 17 18  1  0  0  0
 17100  1  0  0  0
 18 19  2  0  0  0
 18101  1  0  0  0
 19 20  1  0  0  0
 19 24  1  0  0  0
 20 21  2  0  0  0
 20102  1  0  0  0
 21 23  1  0  0  0
 22 28  1  0  0  0
 22 32  2  0  0  0
 26 27  1  0  0  0
 28103  1  0  0  0
 28104  1  0  0  0
 29105  1  0  0  0
 29106  1  0  0  0
 33 34  1  0  0  0
 33 66  1  0  0  0
 33 70  2  0  0  0
 34 36  1  0  0  0
 34 59  1  0  0  0
 34107  1  0  0  0
 35 44  2  0  0  0
 35 45  1  0  0  0
 35 68  1  0  0  0
 36 56  1  0  0  0
 36108  1  0  0  0
 37 39  1  0  0  0
 37 47  1  0  0  0
 37 66  1  0  0  0
 37109  1  0  0  0
 38 43  2  0  0  0
 38 46  1  0  0  0
 38 47  1  0  0  0
 39 64  1  0  0  0
 39 67  2  0  0  0
 40 52  1  0  0  0
 40 53  2  0  0  0
 40 58  1  0  0  0
 41110  1  0  0  0
 41111  1  0  0  0
 41112  1  0  0  0
 41 48  1  0  0  0
 42 43  1  0  0  0
 42 66  1  0  0  0
 42113  1  0  0  0
 42114  1  0  0  0
 43 44  1  0  0  0
 44115  1  0  0  0
 45 46  2  0  0  0
 45116  1  0  0  0
 46117  1  0  0  0
 47118  1  0  0  0
 47119  1  0  0  0
 48 56  1  0  0  0
 48 65  1  0  0  0
 48120  1  0  0  0
 49 50  1  0  0  0
 49 53  1  0  0  0
 49 64  1  0  0  0
 49121  1  0  0  0
 50 51  1  0  0  0
 50122  1  0  0  0
 50123  1  0  0  0
 51 52  1  0  0  0
 51124  1  0  0  0
 51125  1  0  0  0
 52126  1  0  0  0
 52127  1  0  0  0
 53 54  1  0  0  0
 54 55  2  0  0  0
 54128  1  0  0  0
 55 57  1  0  0  0
 55129  1  0  0  0
 56 69  2  0  0  0
 57 58  2  0  0  0
 57130  1  0  0  0
 58131  1  0  0  0
 59 60  1  0  0  0
 59 61  1  0  0  0
 59 62  1  0  0  0
 60132  1  0  0  0
 60133  1  0  0  0
 60134  1  0  0  0
 61135  1  0  0  0
 61136  1  0  0  0
 61137  1  0  0  0
 62138  1  0  0  0
 62139  1  0  0  0
 62140  1  0  0  0
 63 65  1  0  0  0
 63141  1  0  0  0
 63142  1  0  0  0
 63143  1  0  0  0
 64144  1  0  0  0
 65145  1  0  0  0
 68 82  1  0  0  0
 71 73  2  0  0  0
 71 74  1  0  0  0
 71146  1  0  0  0
 72 73  1  0  0  0
 72 75  2  0  0  0
 72147  1  0  0  0
 73 79  1  0  0  0
 74 76  2  0  0  0
 74 77  1  0  0  0
 75 76  1  0  0  0
 75 84  1  0  0  0
 76 86  1  0  0  0
 77148  1  0  0  0
 77149  1  0  0  0
 77150  1  0  0  0
 78 85  1  0  0  0
 78151  1  0  0  0
 78152  1  0  0  0
 78153  1  0  0  0
 79 80  1  0  0  0
 79154  1  0  0  0
 79155  1  0  0  0
 80 82  1  0  0  0
 80156  1  0  0  0
 80157  1  0  0  0
 81 83  1  0  0  0
 81 85  1  0  0  0
 81158  1  0  0  0
 81159  1  0  0  0
 82160  1  0  0  0
 82161  1  0  0  0
 83 86  1  0  0  0
 83162  1  0  0  0
 83163  1  0  0  0
 84164  1  0  0  0
 85165  1  0  0  0
 85166  1  0  0  0
M  CHG  1  85   1
M  ISO  4   1 100  68 101  82 101  84 100
M  END
> <chiral flag>
0

> <version>
0

> <s_m_source_file>
/data/baiqing/PycharmProjects/Reinvent-master-3.2/result/LINK_invent/BTK/process_docking_weight1_custom_sum_contain_oxygen_bond_distance_aromatic_linkinvent_7_9_3/rearranged_h_0142.sdf

> <i_m_source_file_index>
67

> <r_mmod_Potential_Energy-OPLS-2005>
374.464477539062

> <r_mmod_Stretch_Energy-OPLS-2005>
284.798309326172

> <r_mmod_Bend_Energy-OPLS-2005>
257.591918945312

> <r_mmod_Torsional_Energy-OPLS-2005>
270.345428466797

> <r_mmod_Improper_Torsional_Energy-OPLS-2005>
3.56682395935059

> <r_mmod_Van_der_Waal_Energy-OPLS-2005>
120.546783447266

> <r_mmod_Electrostatic_Energy-OPLS-2005>
-305.249420166016

> <r_mmod_Solvation_Energy-OPLS-2005>
-464.341705322266

> <b_mmod_Minimization_Converged-OPLS-2005>
0

> <r_mmod_RMS_Derivative-OPLS-2005>
1.29583191871643

$$$$
68
                    3D
 Structure written by MMmdl.
159169  0  0  1  0            999 V2000
  -30.6390  -14.6490   20.4849 C   0  0  0  0  0  0
  -30.4276  -12.3950   19.4655 C   0  0  0  0  0  0
  -29.5069  -12.5026   18.2302 C   0  0  0  0  0  0
  -28.0298  -12.3434   18.6399 C   0  0  0  0  0  0
  -27.6488  -13.2236   19.8607 C   0  0  2  0  0  0
  -28.6912  -13.1074   20.9958 C   0  0  0  0  0  0
  -25.2531  -13.8187   20.5688 C   0  0  0  0  0  0
  -24.1812  -13.0441   20.9201 C   0  0  0  0  0  0
  -24.6390  -11.6915   20.8742 C   0  0  0  0  0  0
  -23.9064  -10.4293   21.0405 C   0  0  0  0  0  0
  -24.3617   -9.4208   21.9181 C   0  0  0  0  0  0
  -23.6294   -8.2243   22.0752 C   0  0  0  0  0  0
  -22.4274   -8.0280   21.3544 C   0  0  0  0  0  0
  -21.9909   -9.0253   20.4646 C   0  0  0  0  0  0
  -22.7236  -10.2132   20.3054 C   0  0  0  0  0  0
  -21.6852   -6.0735   22.5279 C   0  0  0  0  0  0
  -21.4017   -6.5639   23.8213 C   0  0  0  0  0  0
  -21.3660   -5.6790   24.9176 C   0  0  0  0  0  0
  -21.6044   -4.3053   24.7224 C   0  0  0  0  0  0
  -21.8818   -3.8145   23.4346 C   0  0  0  0  0  0
  -21.9193   -4.6963   22.3402 C   0  0  0  0  0  0
  -22.7832  -13.5227   21.1860 C   0  0  0  0  0  0
  -22.1660   -4.2149   21.0981 F   0  0  0  0  0  0
  -21.5628   -3.4537   25.7738 F   0  0  0  0  0  0
  -30.0051  -13.4350   20.4270 N   0  0  0  0  0  0
  -26.2962  -12.9384   20.3309 N   0  0  0  0  0  0
  -25.9321  -11.6531   20.5755 N   0  0  0  0  0  0
  -22.0475  -12.8219   22.0417 N   0  0  0  0  0  0
  -25.4224  -15.1910   20.4094 N   0  0  0  0  0  0
  -31.8033  -14.7728   20.0970 O   0  0  0  0  0  0
  -21.6638   -6.8877   21.4240 O   0  0  0  0  0  0
  -22.3516  -14.5532   20.6706 O   0  0  0  0  0  0
  -24.6249  -31.8589   23.2012 C   0  0  0  0  0  0
  -25.9100  -32.4773   23.8342 C   0  0  1  0  0  0
  -27.2273  -27.3179   20.1182 C   0  0  0  0  0  0
  -25.5917  -33.8574   24.2270 N   0  0  0  0  0  0
  -23.4185  -30.4808   21.5433 C   0  0  2  0  0  0
  -24.8650  -28.9316   20.1100 C   0  0  0  0  0  0
  -22.7467  -29.4615   22.4935 C   0  0  0  0  0  0
  -18.0285  -28.1383   22.8488 C   0  0  0  0  0  0
  -24.1490  -36.7292   23.2640 C   0  0  0  0  0  0
  -25.9577  -30.7891   21.3715 C   0  0  0  0  0  0
  -26.0307  -29.4153   20.7153 C   0  0  0  0  0  0
  -27.2112  -28.6182   20.7107 C   0  0  0  0  0  0
  -26.0385  -26.8816   19.4917 C   0  0  0  0  0  0
  -24.8705  -27.6709   19.4906 C   0  0  0  0  0  0
  -23.6328  -29.8121   20.1588 C   0  0  0  0  0  0
  -25.4116  -36.3080   24.0329 C   0  0  1  0  0  0
  -20.5884  -28.3684   23.1288 C   0  0  2  0  0  0
  -20.6773  -26.9408   22.5414 C   0  0  0  0  0  0
  -19.5750  -26.6382   21.5213 C   0  0  0  0  0  0
  -18.1929  -26.7926   22.1625 C   0  0  0  0  0  0
  -19.1537  -28.8850   23.2884 C   0  0  0  0  0  0
  -18.9460  -30.1453   23.8898 C   0  0  0  0  0  0
  -17.6460  -30.6586   24.0562 C   0  0  0  0  0  0
  -25.9050  -34.9449   23.5102 C   0  0  0  0  0  0
  -16.5351  -29.9084   23.6328 C   0  0  0  0  0  0
  -16.7272  -28.6502   23.0350 C   0  0  0  0  0  0
  -26.4491  -31.6586   25.0713 C   0  0  0  0  0  0
  -25.3727  -31.3723   26.1441 C   0  0  0  0  0  0
  -27.0337  -30.3012   24.6165 C   0  0  0  0  0  0
  -27.6049  -32.4323   25.7485 C   0  0  0  0  0  0
  -27.5579  -37.1805   24.8467 C   0  0  0  0  0  0
  -21.4182  -29.3035   22.3681 N   0  0  0  0  0  0
  -26.4295  -37.3774   23.9404 N   0  0  0  0  0  0
  -24.6858  -31.0602   22.0959 N   0  0  0  0  0  0
  -23.4193  -28.8161   23.3018 O   0  0  0  0  0  0
  -28.3721  -26.5107   20.1854 O   0  0  0  0  0  0
  -26.5620  -34.8918   22.4670 O   0  0  0  0  0  0
  -23.5415  -32.1388   23.7343 O   0  0  0  0  0  0
  -27.6551  -20.1184   20.7641 C   0  0  0  0  0  0
  -27.1861  -21.4555   20.6315 C   0  0  0  0  0  0
  -29.9304  -20.9175   20.7290 C   0  0  0  0  0  0
  -29.0360  -19.8073   20.8607 C   0  0  0  0  0  0
  -28.0783  -22.5543   20.5713 C   0  0  0  0  0  0
  -29.4580  -22.2669   20.5806 C   0  0  0  0  0  0
  -27.5838  -24.0346   20.6016 C   0  0  0  0  0  0
  -30.3957  -23.4696   20.5036 C   0  0  0  0  0  0
  -29.8783  -24.6175   19.5798 C   0  0  0  0  0  0
  -31.4449  -17.6805   21.2084 C   0  0  0  0  0  0
  -29.4838  -18.3443   21.2699 C   0  0  1  0  0  0
  -30.2087  -17.2032   20.4426 C   0  0  2  0  0  0
  -28.4001  -25.0898   19.7600 C   0  0  2  0  0  0
  -29.8802  -15.7569   20.7648 N   0  0  0  0  0  0
  -30.6353  -18.4297   22.1532 O   0  0  0  0  0  0
  -31.4722  -12.5023   19.1678 H   0  0  0  0  0  0
  -30.3494  -11.4061   19.9199 H   0  0  0  0  0  0
  -29.7745  -11.7447   17.4928 H   0  0  0  0  0  0
  -29.6519  -13.4681   17.7428 H   0  0  0  0  0  0
  -27.8678  -11.2918   18.8789 H   0  0  0  0  0  0
  -27.3772  -12.5661   17.7948 H   0  0  0  0  0  0
  -27.6597  -14.2546   19.5067 H   0  0  0  0  0  0
  -28.7009  -12.0974   21.4084 H   0  0  0  0  0  0
  -28.4392  -13.7698   21.8253 H   0  0  0  0  0  0
  -25.2764   -9.5686   22.4753 H   0  0  0  0  0  0
  -24.0006   -7.4634   22.7468 H   0  0  0  0  0  0
  -21.0841   -8.8772   19.8949 H   0  0  0  0  0  0
  -22.3696  -10.9673   19.6161 H   0  0  0  0  0  0
  -21.2011   -7.6147   23.9717 H   0  0  0  0  0  0
  -21.1483   -6.0521   25.9079 H   0  0  0  0  0  0
  -22.0597   -2.7608   23.2844 H   0  0  0  0  0  0
  -22.4093  -11.9889   22.4823 H   0  0  0  0  0  0
  -21.1090  -13.1240   22.2613 H   0  0  0  0  0  0
  -24.6498  -15.8406   20.5095 H   0  0  0  0  0  0
  -26.2617  -15.6283   20.0516 H   0  0  0  0  0  0
  -26.7165  -32.5443   23.1087 H   0  0  0  0  0  0
  -25.0062  -33.9719   25.0413 H   0  0  0  0  0  0
  -22.7120  -31.3008   21.3988 H   0  0  0  0  0  0
  -23.3748  -35.9630   23.3313 H   0  0  0  0  0  0
  -24.3576  -36.8902   22.2053 H   0  0  0  0  0  0
  -23.7251  -37.6501   23.6656 H   0  0  0  0  0  0
  -26.0880  -31.5522   20.6029 H   0  0  0  0  0  0
  -26.8387  -30.8389   22.0000 H   0  0  0  0  0  0
  -28.1069  -28.9846   21.1925 H   0  0  0  0  0  0
  -25.9829  -25.9179   19.0096 H   0  0  0  0  0  0
  -23.9752  -27.2951   19.0143 H   0  0  0  0  0  0
  -23.7514  -30.5869   19.4004 H   0  0  0  0  0  0
  -22.7532  -29.2401   19.8581 H   0  0  0  0  0  0
  -25.1299  -36.1933   25.0822 H   0  0  0  0  0  0
  -20.9977  -28.3258   24.1409 H   0  0  0  0  0  0
  -20.5673  -26.2292   23.3612 H   0  0  0  0  0  0
  -21.6642  -26.7438   22.1208 H   0  0  0  0  0  0
  -19.6911  -25.6293   21.1243 H   0  0  0  0  0  0
  -19.6689  -27.3193   20.6744 H   0  0  0  0  0  0
  -17.4200  -26.6674   21.4026 H   0  0  0  0  0  0
  -18.0330  -26.0068   22.9021 H   0  0  0  0  0  0
  -19.7936  -30.7268   24.2269 H   0  0  0  0  0  0
  -17.5015  -31.6266   24.5163 H   0  0  0  0  0  0
  -15.5352  -30.2986   23.7651 H   0  0  0  0  0  0
  -15.8673  -28.0821   22.7062 H   0  0  0  0  0  0
  -24.5901  -30.7073   25.7770 H   0  0  0  0  0  0
  -24.8918  -32.2889   26.4867 H   0  0  0  0  0  0
  -25.8052  -30.8900   27.0215 H   0  0  0  0  0  0
  -26.2910  -29.6759   24.1195 H   0  0  0  0  0  0
  -27.4046  -29.7270   25.4666 H   0  0  0  0  0  0
  -27.8773  -30.4302   23.9380 H   0  0  0  0  0  0
  -27.2657  -33.3621   26.2063 H   0  0  0  0  0  0
  -28.3859  -32.6886   25.0315 H   0  0  0  0  0  0
  -28.0718  -31.8449   26.5401 H   0  0  0  0  0  0
  -28.2606  -38.0091   24.7496 H   0  0  0  0  0  0
  -28.1063  -36.2621   24.6316 H   0  0  0  0  0  0
  -27.2292  -37.1484   25.8869 H   0  0  0  0  0  0
  -20.9358  -29.8754   21.6890 H   0  0  0  0  0  0
  -26.0176  -38.2852   24.1389 H   0  0  0  0  0  0
  -26.9275  -19.3245   20.8634 H   0  0  0  0  0  0
  -26.1197  -21.6359   20.6265 H   0  0  0  0  0  0
  -30.9943  -20.7405   20.8065 H   0  0  0  0  0  0
  -27.6212  -24.3408   21.6474 H   0  0  0  0  0  0
  -26.5301  -24.0709   20.3257 H   0  0  0  0  0  0
  -31.3802  -23.1433   20.1666 H   0  0  0  0  0  0
  -30.5306  -23.8539   21.5153 H   0  0  0  0  0  0
  -29.9805  -24.2615   18.5537 H   0  0  0  0  0  0
  -30.5527  -25.4715   19.6474 H   0  0  0  0  0  0
  -32.0899  -18.3332   20.6167 H   0  0  0  0  0  0
  -32.0335  -16.9000   21.6919 H   0  0  0  0  0  0
  -28.6447  -17.8999   21.8081 H   0  0  0  0  0  0
  -30.2586  -17.4212   19.3752 H   0  0  0  0  0  0
  -27.9904  -25.0666   18.7496 H   0  0  0  0  0  0
  -28.9379  -15.5739   21.0737 H   0  0  0  0  0  0
  1 25  1  0  0  0
  1 30  2  0  0  0
  1 84  1  0  0  0
  2  3  1  0  0  0
  2 25  1  0  0  0
  2 86  1  0  0  0
  2 87  1  0  0  0
  3  4  1  0  0  0
  3 88  1  0  0  0
  3 89  1  0  0  0
  4  5  1  0  0  0
  4 90  1  0  0  0
  4 91  1  0  0  0
  5  6  1  0  0  0
  5 26  1  0  0  0
  5 92  1  0  0  0
  6 25  1  0  0  0
  6 93  1  0  0  0
  6 94  1  0  0  0
  7  8  2  0  0  0
  7 26  1  0  0  0
  7 29  1  0  0  0
  8  9  1  0  0  0
  8 22  1  0  0  0
  9 10  1  0  0  0
  9 27  2  0  0  0
 10 11  2  0  0  0
 10 15  1  0  0  0
 11 12  1  0  0  0
 11 95  1  0  0  0
 12 13  2  0  0  0
 12 96  1  0  0  0
 13 14  1  0  0  0
 13 31  1  0  0  0
 14 15  2  0  0  0
 14 97  1  0  0  0
 15 98  1  0  0  0
 16 17  2  0  0  0
 16 21  1  0  0  0
 16 31  1  0  0  0
 17 18  1  0  0  0
 17 99  1  0  0  0
 18 19  2  0  0  0
 18100  1  0  0  0
 19 20  1  0  0  0
 19 24  1  0  0  0
 20 21  2  0  0  0
 20101  1  0  0  0
 21 23  1  0  0  0
 22 28  1  0  0  0
 22 32  2  0  0  0
 26 27  1  0  0  0
 28102  1  0  0  0
 28103  1  0  0  0
 29104  1  0  0  0
 29105  1  0  0  0
 33 34  1  0  0  0
 33 66  1  0  0  0
 33 70  2  0  0  0
 34 36  1  0  0  0
 34 59  1  0  0  0
 34106  1  0  0  0
 35 44  2  0  0  0
 35 45  1  0  0  0
 35 68  1  0  0  0
 36 56  1  0  0  0
 36107  1  0  0  0
 37 39  1  0  0  0
 37 47  1  0  0  0
 37 66  1  0  0  0
 37108  1  0  0  0
 38 43  2  0  0  0
 38 46  1  0  0  0
 38 47  1  0  0  0
 39 64  1  0  0  0
 39 67  2  0  0  0
 40 52  1  0  0  0
 40 53  2  0  0  0
 40 58  1  0  0  0
 41109  1  0  0  0
 41110  1  0  0  0
 41111  1  0  0  0
 41 48  1  0  0  0
 42 43  1  0  0  0
 42 66  1  0  0  0
 42112  1  0  0  0
 42113  1  0  0  0
 43 44  1  0  0  0
 44114  1  0  0  0
 45 46  2  0  0  0
 45115  1  0  0  0
 46116  1  0  0  0
 47117  1  0  0  0
 47118  1  0  0  0
 48 56  1  0  0  0
 48 65  1  0  0  0
 48119  1  0  0  0
 49 50  1  0  0  0
 49 53  1  0  0  0
 49 64  1  0  0  0
 49120  1  0  0  0
 50 51  1  0  0  0
 50121  1  0  0  0
 50122  1  0  0  0
 51 52  1  0  0  0
 51123  1  0  0  0
 51124  1  0  0  0
 52125  1  0  0  0
 52126  1  0  0  0
 53 54  1  0  0  0
 54 55  2  0  0  0
 54127  1  0  0  0
 55 57  1  0  0  0
 55128  1  0  0  0
 56 69  2  0  0  0
 57 58  2  0  0  0
 57129  1  0  0  0
 58130  1  0  0  0
 59 60  1  0  0  0
 59 61  1  0  0  0
 59 62  1  0  0  0
 60131  1  0  0  0
 60132  1  0  0  0
 60133  1  0  0  0
 61134  1  0  0  0
 61135  1  0  0  0
 61136  1  0  0  0
 62137  1  0  0  0
 62138  1  0  0  0
 62139  1  0  0  0
 63 65  1  0  0  0
 63140  1  0  0  0
 63141  1  0  0  0
 63142  1  0  0  0
 64143  1  0  0  0
 65144  1  0  0  0
 68 83  1  0  0  0
 71 72  2  0  0  0
 71 74  1  0  0  0
 71145  1  0  0  0
 72 75  1  0  0  0
 72146  1  0  0  0
 73 74  2  0  0  0
 73 76  1  0  0  0
 73147  1  0  0  0
 74 81  1  0  0  0
 75 76  2  0  0  0
 75 77  1  0  0  0
 76 78  1  0  0  0
 77 83  1  0  0  0
 77148  1  0  0  0
 77149  1  0  0  0
 78 79  1  0  0  0
 78150  1  0  0  0
 78151  1  0  0  0
 79 83  1  0  0  0
 79152  1  0  0  0
 79153  1  0  0  0
 80 82  1  0  0  0
 80 85  1  0  0  0
 80154  1  0  0  0
 80155  1  0  0  0
 81 82  1  0  0  0
 81 85  1  0  0  0
 81156  1  0  0  0
 82 84  1  0  0  0
 82157  1  0  0  0
 83158  1  0  0  0
 84159  1  0  0  0
M  ISO  4   1 100  68 101  83 101  84 100
M  END
> <chiral flag>
0

> <version>
0

> <s_m_source_file>
/data/baiqing/PycharmProjects/Reinvent-master-3.2/result/LINK_invent/BTK/process_docking_weight1_custom_sum_contain_oxygen_bond_distance_aromatic_linkinvent_7_9_3/rearranged_h_0142.sdf

> <i_m_source_file_index>
68

> <r_mmod_Potential_Energy-OPLS-2005>
52.0394744873047

> <r_mmod_Stretch_Energy-OPLS-2005>
80.8270721435547

> <r_mmod_Bend_Energy-OPLS-2005>
155.734268188477

> <r_mmod_Torsional_Energy-OPLS-2005>
245.926788330078

> <r_mmod_Improper_Torsional_Energy-OPLS-2005>
6.6112265586853

> <r_mmod_Van_der_Waal_Energy-OPLS-2005>
142.915878295898

> <r_mmod_Electrostatic_Energy-OPLS-2005>
-409.934600830078

> <r_mmod_Solvation_Energy-OPLS-2005>
-219.305725097656

> <b_mmod_Minimization_Converged-OPLS-2005>
0

> <r_mmod_RMS_Derivative-OPLS-2005>
0.454262137413025

$$$$
69
                    3D
 Structure written by MMmdl.
176186  0  0  1  0            999 V2000
  -30.6586  -14.5878   20.5266 C   0  0  0  0  0  0
  -30.4273  -12.3689   19.4470 C   0  0  0  0  0  0
  -29.5012  -12.5050   18.2188 C   0  0  0  0  0  0
  -28.0217  -12.3527   18.6267 C   0  0  0  0  0  0
  -27.6511  -13.2118   19.8651 C   0  0  2  0  0  0
  -28.6934  -13.0375   20.9904 C   0  0  0  0  0  0
  -25.2550  -13.8167   20.5668 C   0  0  0  0  0  0
  -24.1821  -13.0437   20.9189 C   0  0  0  0  0  0
  -24.6384  -11.6907   20.8748 C   0  0  0  0  0  0
  -23.9055  -10.4296   21.0414 C   0  0  0  0  0  0
  -24.3609   -9.4213   21.9191 C   0  0  0  0  0  0
  -23.6286   -8.2246   22.0757 C   0  0  0  0  0  0
  -22.4272   -8.0284   21.3543 C   0  0  0  0  0  0
  -21.9905   -9.0260   20.4646 C   0  0  0  0  0  0
  -22.7230  -10.2142   20.3061 C   0  0  0  0  0  0
  -21.6850   -6.0738   22.5278 C   0  0  0  0  0  0
  -21.4011   -6.5638   23.8212 C   0  0  0  0  0  0
  -21.3661   -5.6791   24.9174 C   0  0  0  0  0  0
  -21.6041   -4.3054   24.7227 C   0  0  0  0  0  0
  -21.8818   -3.8153   23.4344 C   0  0  0  0  0  0
  -21.9192   -4.6970   22.3400 C   0  0  0  0  0  0
  -22.7849  -13.5237   21.1858 C   0  0  0  0  0  0
  -22.1657   -4.2157   21.0975 F   0  0  0  0  0  0
  -21.5635   -3.4535   25.7738 F   0  0  0  0  0  0
  -30.0060  -13.3872   20.4298 N   0  0  0  0  0  0
  -26.2970  -12.9336   20.3315 N   0  0  0  0  0  0
  -25.9309  -11.6497   20.5762 N   0  0  0  0  0  0
  -22.0488  -12.8228   22.0413 N   0  0  0  0  0  0
  -25.4276  -15.1886   20.4049 N   0  0  0  0  0  0
  -31.8298  -14.6992   20.1535 O   0  0  0  0  0  0
  -21.6632   -6.8882   21.4237 O   0  0  0  0  0  0
  -22.3546  -14.5558   20.6722 O   0  0  0  0  0  0
  -24.6217  -31.8627   23.2051 C   0  0  0  0  0  0
  -25.9082  -32.4796   23.8365 C   0  0  1  0  0  0
  -27.2333  -27.3638   20.0977 C   0  0  0  0  0  0
  -25.5917  -33.8599   24.2293 N   0  0  0  0  0  0
  -23.4127  -30.4862   21.5471 C   0  0  2  0  0  0
  -24.8583  -28.9454   20.1113 C   0  0  0  0  0  0
  -22.7444  -29.4635   22.4957 C   0  0  0  0  0  0
  -18.0278  -28.1377   22.8490 C   0  0  0  0  0  0
  -24.1489  -36.7302   23.2639 C   0  0  0  0  0  0
  -25.9491  -30.8061   21.3692 C   0  0  0  0  0  0
  -26.0228  -29.4365   20.7123 C   0  0  0  0  0  0
  -27.2082  -28.6533   20.7030 C   0  0  0  0  0  0
  -26.0346  -26.9005   19.5055 C   0  0  0  0  0  0
  -24.8628  -27.6796   19.5058 C   0  0  0  0  0  0
  -23.6240  -29.8198   20.1616 C   0  0  0  0  0  0
  -25.4113  -36.3097   24.0329 C   0  0  1  0  0  0
  -20.5875  -28.3677   23.1300 C   0  0  2  0  0  0
  -20.6770  -26.9404   22.5417 C   0  0  0  0  0  0
  -19.5749  -26.6378   21.5215 C   0  0  0  0  0  0
  -18.1926  -26.7925   22.1618 C   0  0  0  0  0  0
  -19.1530  -28.8843   23.2893 C   0  0  0  0  0  0
  -18.9457  -30.1446   23.8905 C   0  0  0  0  0  0
  -17.6458  -30.6584   24.0562 C   0  0  0  0  0  0
  -25.9043  -34.9464   23.5106 C   0  0  0  0  0  0
  -16.5350  -29.9084   23.6330 C   0  0  0  0  0  0
  -16.7267  -28.6500   23.0355 C   0  0  0  0  0  0
  -26.4480  -31.6606   25.0727 C   0  0  0  0  0  0
  -25.3727  -31.3754   26.1470 C   0  0  0  0  0  0
  -27.0305  -30.3031   24.6160 C   0  0  0  0  0  0
  -27.6048  -32.4338   25.7491 C   0  0  0  0  0  0
  -27.5584  -37.1803   24.8459 C   0  0  0  0  0  0
  -21.4164  -29.3040   22.3705 N   0  0  0  0  0  0
  -26.4293  -37.3788   23.9406 N   0  0  0  0  0  0
  -24.6799  -31.0678   22.0977 N   0  0  0  0  0  0
  -23.4194  -28.8174   23.3017 O   0  0  0  0  0  0
  -28.3899  -26.5836   20.1581 O   0  0  0  0  0  0
  -26.5608  -34.8921   22.4673 O   0  0  0  0  0  0
  -23.5391  -32.1406   23.7406 O   0  0  0  0  0  0
  -30.1338  -23.3974   19.5826 C   0  0  0  0  0  0
  -28.0106  -23.3250   20.7063 C   0  0  0  0  0  0
  -28.9229  -24.0504   19.9066 C   0  0  0  0  0  0
  -30.4549  -22.0963   20.0575 C   0  0  0  0  0  0
  -28.3091  -22.0157   21.1911 C   0  0  0  0  0  0
  -29.5494  -21.3693   20.8882 C   0  0  0  0  0  0
  -31.2397  -15.2090   24.2872 C   0  0  0  0  0  0
  -32.1343  -16.2318   24.9425 C   0  0  0  0  0  0
  -29.9342  -16.7366   19.4850 C   0  0  0  0  0  0
  -29.1077  -16.2222   21.7104 C   0  0  0  0  0  0
  -30.3584  -18.1671   19.9472 C   0  0  0  0  0  0
  -30.8673  -16.6762   24.2477 C   0  0  0  0  0  0
  -29.5857  -17.6246   22.2183 C   0  0  1  0  0  0
  -31.8212  -21.5383   19.6860 C   0  0  0  0  0  0
  -27.2786  -21.3458   22.0866 C   0  0  0  0  0  0
  -29.9942  -20.0492   21.6182 C   0  0  0  0  0  0
  -28.5922  -25.4379   19.2775 C   0  0  0  0  0  0
  -30.9445  -17.5023   22.9720 C   0  0  0  0  0  0
  -29.8723  -15.7160   20.5559 N   0  0  0  0  0  0
  -29.5985  -18.6682   21.1272 N   0  3  1  0  0  0
  -31.4704  -12.4807   19.1454 H   0  0  0  0  0  0
  -30.3503  -11.3697   19.8781 H   0  0  0  0  0  0
  -29.7594  -11.7590   17.4658 H   0  0  0  0  0  0
  -29.6525  -13.4787   17.7497 H   0  0  0  0  0  0
  -27.8466  -11.2978   18.8432 H   0  0  0  0  0  0
  -27.3720  -12.6015   17.7867 H   0  0  0  0  0  0
  -27.6764  -14.2519   19.5410 H   0  0  0  0  0  0
  -28.7021  -12.0052   21.3441 H   0  0  0  0  0  0
  -28.4314  -13.6323   21.8611 H   0  0  0  0  0  0
  -25.2758   -9.5691   22.4757 H   0  0  0  0  0  0
  -23.9998   -7.4641   22.7476 H   0  0  0  0  0  0
  -21.0841   -8.8784   19.8949 H   0  0  0  0  0  0
  -22.3696  -10.9684   19.6167 H   0  0  0  0  0  0
  -21.1994   -7.6143   23.9716 H   0  0  0  0  0  0
  -21.1480   -6.0523   25.9078 H   0  0  0  0  0  0
  -22.0595   -2.7615   23.2846 H   0  0  0  0  0  0
  -22.4072  -11.9856   22.4759 H   0  0  0  0  0  0
  -21.1117  -13.1279   22.2632 H   0  0  0  0  0  0
  -24.6574  -15.8417   20.4989 H   0  0  0  0  0  0
  -26.2667  -15.6155   20.0355 H   0  0  0  0  0  0
  -26.7150  -32.5475   23.1116 H   0  0  0  0  0  0
  -25.0086  -33.9756   25.0454 H   0  0  0  0  0  0
  -22.7047  -31.3058   21.4058 H   0  0  0  0  0  0
  -23.3753  -35.9631   23.3294 H   0  0  0  0  0  0
  -24.3583  -36.8931   22.2052 H   0  0  0  0  0  0
  -23.7236  -37.6500   23.6665 H   0  0  0  0  0  0
  -26.0743  -31.5712   20.6019 H   0  0  0  0  0  0
  -26.8319  -30.8554   21.9951 H   0  0  0  0  0  0
  -28.1050  -29.0280   21.1772 H   0  0  0  0  0  0
  -25.9533  -25.9179   19.0692 H   0  0  0  0  0  0
  -23.9627  -27.2887   19.0521 H   0  0  0  0  0  0
  -23.7371  -30.5955   19.4034 H   0  0  0  0  0  0
  -22.7453  -29.2451   19.8635 H   0  0  0  0  0  0
  -25.1295  -36.1949   25.0822 H   0  0  0  0  0  0
  -20.9971  -28.3241   24.1419 H   0  0  0  0  0  0
  -20.5675  -26.2281   23.3610 H   0  0  0  0  0  0
  -21.6640  -26.7438   22.1208 H   0  0  0  0  0  0
  -19.6911  -25.6289   21.1248 H   0  0  0  0  0  0
  -19.6693  -27.3188   20.6746 H   0  0  0  0  0  0
  -17.4201  -26.6688   21.4012 H   0  0  0  0  0  0
  -18.0311  -26.0059   22.9003 H   0  0  0  0  0  0
  -19.7931  -30.7265   24.2280 H   0  0  0  0  0  0
  -17.5011  -31.6269   24.5151 H   0  0  0  0  0  0
  -15.5352  -30.2986   23.7653 H   0  0  0  0  0  0
  -15.8666  -28.0822   22.7068 H   0  0  0  0  0  0
  -24.5869  -30.7136   25.7813 H   0  0  0  0  0  0
  -24.8954  -32.2929   26.4924 H   0  0  0  0  0  0
  -25.8053  -30.8908   27.0232 H   0  0  0  0  0  0
  -26.2862  -29.6798   24.1186 H   0  0  0  0  0  0
  -27.4013  -29.7275   25.4653 H   0  0  0  0  0  0
  -27.8732  -30.4323   23.9362 H   0  0  0  0  0  0
  -27.2667  -33.3646   26.2059 H   0  0  0  0  0  0
  -28.3860  -32.6887   25.0320 H   0  0  0  0  0  0
  -28.0707  -31.8469   26.5417 H   0  0  0  0  0  0
  -28.2596  -38.0107   24.7518 H   0  0  0  0  0  0
  -28.1086  -36.2638   24.6270 H   0  0  0  0  0  0
  -27.2304  -37.1439   25.8864 H   0  0  0  0  0  0
  -20.9331  -29.8775   21.6933 H   0  0  0  0  0  0
  -26.0176  -38.2864   24.1414 H   0  0  0  0  0  0
  -30.8431  -23.9162   18.9524 H   0  0  0  0  0  0
  -27.0642  -23.7879   20.9513 H   0  0  0  0  0  0
  -30.6604  -14.5599   24.9417 H   0  0  0  0  0  0
  -31.6078  -14.7400   23.3776 H   0  0  0  0  0  0
  -33.0850  -16.4507   24.4598 H   0  0  0  0  0  0
  -32.1498  -16.2626   26.0308 H   0  0  0  0  0  0
  -30.5909  -16.4138   18.6745 H   0  0  0  0  0  0
  -28.9425  -16.7892   19.0341 H   0  0  0  0  0  0
  -28.0584  -16.2780   21.4192 H   0  0  0  0  0  0
  -29.1387  -15.5173   22.5386 H   0  0  0  0  0  0
  -30.2213  -18.8600   19.1170 H   0  0  0  0  0  0
  -31.4248  -18.1683   20.1769 H   0  0  0  0  0  0
  -30.0636  -16.9839   24.9149 H   0  0  0  0  0  0
  -28.8456  -17.9608   22.9477 H   0  0  0  0  0  0
  -32.3515  -22.2059   19.0064 H   0  0  0  0  0  0
  -31.7361  -20.5780   19.1816 H   0  0  0  0  0  0
  -32.4513  -21.4194   20.5671 H   0  0  0  0  0  0
  -26.3135  -21.8507   22.0275 H   0  0  0  0  0  0
  -27.5986  -21.3742   23.1286 H   0  0  0  0  0  0
  -27.1150  -20.3077   21.7998 H   0  0  0  0  0  0
  -29.6262  -20.1481   22.6393 H   0  0  0  0  0  0
  -31.0751  -20.0685   21.7416 H   0  0  0  0  0  0
  -27.8167  -25.2952   18.5303 H   0  0  0  0  0  0
  -29.4558  -25.7209   18.6749 H   0  0  0  0  0  0
  -31.7117  -17.0817   22.3208 H   0  0  0  0  0  0
  -31.3112  -18.4800   23.2800 H   0  0  0  0  0  0
  -28.6405  -18.7620   20.8237 H   0  0  0  0  0  0
  1 25  1  0  0  0
  1 30  2  0  0  0
  1 89  1  0  0  0
  2  3  1  0  0  0
  2 25  1  0  0  0
  2 91  1  0  0  0
  2 92  1  0  0  0
  3  4  1  0  0  0
  3 93  1  0  0  0
  3 94  1  0  0  0
  4  5  1  0  0  0
  4 95  1  0  0  0
  4 96  1  0  0  0
  5  6  1  0  0  0
  5 26  1  0  0  0
  5 97  1  0  0  0
  6 25  1  0  0  0
  6 98  1  0  0  0
  6 99  1  0  0  0
  7  8  2  0  0  0
  7 26  1  0  0  0
  7 29  1  0  0  0
  8  9  1  0  0  0
  8 22  1  0  0  0
  9 10  1  0  0  0
  9 27  2  0  0  0
 10 11  2  0  0  0
 10 15  1  0  0  0
 11 12  1  0  0  0
 11100  1  0  0  0
 12 13  2  0  0  0
 12101  1  0  0  0
 13 14  1  0  0  0
 13 31  1  0  0  0
 14 15  2  0  0  0
 14102  1  0  0  0
 15103  1  0  0  0
 16 17  2  0  0  0
 16 21  1  0  0  0
 16 31  1  0  0  0
 17 18  1  0  0  0
 17104  1  0  0  0
 18 19  2  0  0  0
 18105  1  0  0  0
 19 20  1  0  0  0
 19 24  1  0  0  0
 20 21  2  0  0  0
 20106  1  0  0  0
 21 23  1  0  0  0
 22 28  1  0  0  0
 22 32  2  0  0  0
 26 27  1  0  0  0
 28107  1  0  0  0
 28108  1  0  0  0
 29109  1  0  0  0
 29110  1  0  0  0
 33 34  1  0  0  0
 33 66  1  0  0  0
 33 70  2  0  0  0
 34 36  1  0  0  0
 34 59  1  0  0  0
 34111  1  0  0  0
 35 44  2  0  0  0
 35 45  1  0  0  0
 35 68  1  0  0  0
 36 56  1  0  0  0
 36112  1  0  0  0
 37 39  1  0  0  0
 37 47  1  0  0  0
 37 66  1  0  0  0
 37113  1  0  0  0
 38 43  2  0  0  0
 38 46  1  0  0  0
 38 47  1  0  0  0
 39 64  1  0  0  0
 39 67  2  0  0  0
 40 52  1  0  0  0
 40 53  2  0  0  0
 40 58  1  0  0  0
 41114  1  0  0  0
 41115  1  0  0  0
 41116  1  0  0  0
 41 48  1  0  0  0
 42 43  1  0  0  0
 42 66  1  0  0  0
 42117  1  0  0  0
 42118  1  0  0  0
 43 44  1  0  0  0
 44119  1  0  0  0
 45 46  2  0  0  0
 45120  1  0  0  0
 46121  1  0  0  0
 47122  1  0  0  0
 47123  1  0  0  0
 48 56  1  0  0  0
 48 65  1  0  0  0
 48124  1  0  0  0
 49 50  1  0  0  0
 49 53  1  0  0  0
 49 64  1  0  0  0
 49125  1  0  0  0
 50 51  1  0  0  0
 50126  1  0  0  0
 50127  1  0  0  0
 51 52  1  0  0  0
 51128  1  0  0  0
 51129  1  0  0  0
 52130  1  0  0  0
 52131  1  0  0  0
 53 54  1  0  0  0
 54 55  2  0  0  0
 54132  1  0  0  0
 55 57  1  0  0  0
 55133  1  0  0  0
 56 69  2  0  0  0
 57 58  2  0  0  0
 57134  1  0  0  0
 58135  1  0  0  0
 59 60  1  0  0  0
 59 61  1  0  0  0
 59 62  1  0  0  0
 60136  1  0  0  0
 60137  1  0  0  0
 60138  1  0  0  0
 61139  1  0  0  0
 61140  1  0  0  0
 61141  1  0  0  0
 62142  1  0  0  0
 62143  1  0  0  0
 62144  1  0  0  0
 63 65  1  0  0  0
 63145  1  0  0  0
 63146  1  0  0  0
 63147  1  0  0  0
 64148  1  0  0  0
 65149  1  0  0  0
 68 87  1  0  0  0
 71 73  2  0  0  0
 71 74  1  0  0  0
 71150  1  0  0  0
 72 73  1  0  0  0
 72 75  2  0  0  0
 72151  1  0  0  0
 73 87  1  0  0  0
 74 76  2  0  0  0
 74 84  1  0  0  0
 75 76  1  0  0  0
 75 85  1  0  0  0
 76 86  1  0  0  0
 77 78  1  0  0  0
 77 82  1  0  0  0
 77152  1  0  0  0
 77153  1  0  0  0
 78 82  1  0  0  0
 78154  1  0  0  0
 78155  1  0  0  0
 79 81  1  0  0  0
 79 89  1  0  0  0
 79156  1  0  0  0
 79157  1  0  0  0
 80 83  1  0  0  0
 80 89  1  0  0  0
 80158  1  0  0  0
 80159  1  0  0  0
 81 90  1  0  0  0
 81160  1  0  0  0
 81161  1  0  0  0
 82 88  1  0  0  0
 82162  1  0  0  0
 83 88  1  0  0  0
 83 90  1  0  0  0
 83163  1  0  0  0
 84164  1  0  0  0
 84165  1  0  0  0
 84166  1  0  0  0
 85167  1  0  0  0
 85168  1  0  0  0
 85169  1  0  0  0
 86170  1  0  0  0
 86171  1  0  0  0
 86 90  1  0  0  0
 87172  1  0  0  0
 87173  1  0  0  0
 88174  1  0  0  0
 88175  1  0  0  0
 90176  1  0  0  0
M  CHG  1  90   1
M  ISO  4   1 100  68 101  87 101  89 100
M  END
> <chiral flag>
0

> <version>
0

> <s_m_source_file>
/data/baiqing/PycharmProjects/Reinvent-master-3.2/result/LINK_invent/BTK/process_docking_weight1_custom_sum_contain_oxygen_bond_distance_aromatic_linkinvent_7_9_3/rearranged_h_0142.sdf

> <i_m_source_file_index>
69

> <r_mmod_Potential_Energy-OPLS-2005>
219.215713500977

> <r_mmod_Stretch_Energy-OPLS-2005>
68.9483108520508

> <r_mmod_Bend_Energy-OPLS-2005>
146.441696166992

> <r_mmod_Torsional_Energy-OPLS-2005>
435.878814697266

> <r_mmod_Improper_Torsional_Energy-OPLS-2005>
17.9007511138916

> <r_mmod_Van_der_Waal_Energy-OPLS-2005>
143.117630004883

> <r_mmod_Electrostatic_Energy-OPLS-2005>
-210.798141479492

> <r_mmod_Solvation_Energy-OPLS-2005>
-414.156616210938

> <b_mmod_Minimization_Converged-OPLS-2005>
0

> <r_mmod_RMS_Derivative-OPLS-2005>
1.13477754592896

$$$$
70
                    3D
 Structure written by MMmdl.
171180  0  0  1  0            999 V2000
  -30.6243  -14.5578   20.5552 C   0  0  0  0  0  0
  -30.4481  -12.3573   19.4184 C   0  0  0  0  0  0
  -29.5026  -12.5035   18.2055 C   0  0  0  0  0  0
  -28.0249  -12.3441   18.6228 C   0  0  0  0  0  0
  -27.6590  -13.1953   19.8670 C   0  0  2  0  0  0
  -28.7054  -12.9857   20.9843 C   0  0  0  0  0  0
  -25.2611  -13.8140   20.5670 C   0  0  0  0  0  0
  -24.1860  -13.0430   20.9185 C   0  0  0  0  0  0
  -24.6407  -11.6896   20.8756 C   0  0  0  0  0  0
  -23.9077  -10.4294   21.0440 C   0  0  0  0  0  0
  -24.3635   -9.4197   21.9201 C   0  0  0  0  0  0
  -23.6307   -8.2237   22.0768 C   0  0  0  0  0  0
  -22.4289   -8.0292   21.3554 C   0  0  0  0  0  0
  -21.9929   -9.0266   20.4652 C   0  0  0  0  0  0
  -22.7267  -10.2138   20.3071 C   0  0  0  0  0  0
  -21.6848   -6.0749   22.5290 C   0  0  0  0  0  0
  -21.4004   -6.5649   23.8223 C   0  0  0  0  0  0
  -21.3650   -5.6798   24.9184 C   0  0  0  0  0  0
  -21.6042   -4.3065   24.7233 C   0  0  0  0  0  0
  -21.8814   -3.8159   23.4353 C   0  0  0  0  0  0
  -21.9192   -4.6978   22.3407 C   0  0  0  0  0  0
  -22.7883  -13.5246   21.1851 C   0  0  0  0  0  0
  -22.1666   -4.2163   21.0986 F   0  0  0  0  0  0
  -21.5626   -3.4544   25.7744 F   0  0  0  0  0  0
  -30.0243  -13.3386   20.4287 N   0  0  0  0  0  0
  -26.3019  -12.9272   20.3332 N   0  0  0  0  0  0
  -25.9326  -11.6451   20.5776 N   0  0  0  0  0  0
  -22.0519  -12.8232   22.0403 N   0  0  0  0  0  0
  -25.4340  -15.1857   20.4055 N   0  0  0  0  0  0
  -31.7799  -14.7730   20.1681 O   0  0  0  0  0  0
  -21.6640   -6.8904   21.4259 O   0  0  0  0  0  0
  -22.3574  -14.5550   20.6701 O   0  0  0  0  0  0
  -24.6190  -31.8656   23.2081 C   0  0  0  0  0  0
  -25.9066  -32.4816   23.8386 C   0  0  1  0  0  0
  -27.2310  -27.3932   20.1104 C   0  0  0  0  0  0
  -25.5916  -33.8615   24.2314 N   0  0  0  0  0  0
  -23.4101  -30.4870   21.5496 C   0  0  2  0  0  0
  -24.8583  -28.9452   20.1225 C   0  0  0  0  0  0
  -22.7437  -29.4638   22.4979 C   0  0  0  0  0  0
  -18.0279  -28.1376   22.8478 C   0  0  0  0  0  0
  -24.1482  -36.7305   23.2641 C   0  0  0  0  0  0
  -25.9431  -30.8157   21.3706 C   0  0  0  0  0  0
  -26.0213  -29.4437   20.7256 C   0  0  0  0  0  0
  -27.2132  -28.6727   20.7228 C   0  0  0  0  0  0
  -26.0552  -26.9215   19.4951 C   0  0  0  0  0  0
  -24.8695  -27.6808   19.5087 C   0  0  0  0  0  0
  -23.6240  -29.8196   20.1658 C   0  0  0  0  0  0
  -25.4107  -36.3102   24.0335 C   0  0  1  0  0  0
  -20.5872  -28.3665   23.1303 C   0  0  2  0  0  0
  -20.6775  -26.9395   22.5414 C   0  0  0  0  0  0
  -19.5756  -26.6376   21.5212 C   0  0  0  0  0  0
  -18.1926  -26.7917   22.1611 C   0  0  0  0  0  0
  -19.1530  -28.8838   23.2883 C   0  0  0  0  0  0
  -18.9459  -30.1438   23.8896 C   0  0  0  0  0  0
  -17.6467  -30.6581   24.0565 C   0  0  0  0  0  0
  -25.9042  -34.9470   23.5121 C   0  0  0  0  0  0
  -16.5356  -29.9086   23.6331 C   0  0  0  0  0  0
  -16.7272  -28.6509   23.0344 C   0  0  0  0  0  0
  -26.4480  -31.6622   25.0737 C   0  0  0  0  0  0
  -25.3724  -31.3750   26.1471 C   0  0  0  0  0  0
  -27.0343  -30.3065   24.6148 C   0  0  0  0  0  0
  -27.6043  -32.4351   25.7512 C   0  0  0  0  0  0
  -27.5574  -37.1803   24.8465 C   0  0  0  0  0  0
  -21.4162  -29.3039   22.3718 N   0  0  0  0  0  0
  -26.4291  -37.3790   23.9410 N   0  0  0  0  0  0
  -24.6755  -31.0711   22.1010 N   0  0  0  0  0  0
  -23.4185  -28.8170   23.3030 O   0  0  0  0  0  0
  -28.3589  -26.5959   20.0267 O   0  0  0  0  0  0
  -26.5594  -34.8922   22.4672 O   0  0  0  0  0  0
  -23.5366  -32.1435   23.7434 O   0  0  0  0  0  0
  -29.7347  -18.2050   23.5007 C   0  0  0  0  0  0
  -29.9238  -19.3434   22.7102 C   0  0  0  0  0  0
  -29.7283  -16.9301   22.8959 C   0  0  0  0  0  0
  -30.1085  -19.1982   21.3288 C   0  0  0  0  0  0
  -29.9506  -16.8310   21.4951 C   0  0  0  0  0  0
  -30.0327  -23.7082   20.2248 C   0  0  0  0  0  0
  -27.6763  -23.3583   20.8868 C   0  0  0  0  0  0
  -30.0663  -25.0838   20.9532 C   0  0  0  0  0  0
  -27.6274  -24.7303   21.6121 C   0  0  0  0  0  0
  -29.0816  -22.7039   20.9273 C   0  0  1  0  0  0
  -28.6911  -25.7784   21.1674 C   0  0  2  0  0  0
  -29.3984  -15.8711   25.2605 C   0  0  0  0  0  0
  -30.9739  -20.2163   19.1239 C   0  0  0  0  0  0
  -29.4446  -15.6781   23.7367 C   0  0  0  0  0  0
  -30.3206  -20.4846   20.4915 C   0  0  1  0  0  0
  -30.1024  -17.9624   20.7382 N   0  0  0  0  0  0
  -29.7561  -15.5348   20.9212 N   0  0  0  0  0  0
  -29.0807  -21.3093   20.3581 N   0  3  0  0  0  0
  -31.4843  -12.5064   19.1095 H   0  0  0  0  0  0
  -30.3981  -11.3488   19.8310 H   0  0  0  0  0  0
  -29.7547  -11.7652   17.4428 H   0  0  0  0  0  0
  -29.6471  -13.4814   17.7440 H   0  0  0  0  0  0
  -27.8573  -11.2885   18.8385 H   0  0  0  0  0  0
  -27.3677  -12.5909   17.7882 H   0  0  0  0  0  0
  -27.6932  -14.2382   19.5514 H   0  0  0  0  0  0
  -28.7087  -11.9462   21.3120 H   0  0  0  0  0  0
  -28.4545  -13.5620   21.8741 H   0  0  0  0  0  0
  -25.2790   -9.5657   22.4763 H   0  0  0  0  0  0
  -24.0014   -7.4626   22.7487 H   0  0  0  0  0  0
  -21.0865   -8.8808   19.8953 H   0  0  0  0  0  0
  -22.3763  -10.9692   19.6174 H   0  0  0  0  0  0
  -21.1981   -7.6159   23.9735 H   0  0  0  0  0  0
  -21.1477   -6.0528   25.9089 H   0  0  0  0  0  0
  -22.0593   -2.7622   23.2854 H   0  0  0  0  0  0
  -22.4144  -11.9879   22.4746 H   0  0  0  0  0  0
  -21.1141  -13.1261   22.2629 H   0  0  0  0  0  0
  -24.6564  -15.8317   20.4915 H   0  0  0  0  0  0
  -26.2716  -15.6251   20.0463 H   0  0  0  0  0  0
  -26.7138  -32.5524   23.1148 H   0  0  0  0  0  0
  -25.0104  -33.9787   25.0483 H   0  0  0  0  0  0
  -22.7004  -31.3044   21.4066 H   0  0  0  0  0  0
  -23.3747  -35.9637   23.3314 H   0  0  0  0  0  0
  -24.3576  -36.8915   22.2052 H   0  0  0  0  0  0
  -23.7227  -37.6511   23.6649 H   0  0  0  0  0  0
  -26.0571  -31.5752   20.5950 H   0  0  0  0  0  0
  -26.8300  -30.8741   21.9910 H   0  0  0  0  0  0
  -28.1131  -29.0547   21.1847 H   0  0  0  0  0  0
  -26.0576  -25.9530   19.0143 H   0  0  0  0  0  0
  -23.9765  -27.2889   19.0416 H   0  0  0  0  0  0
  -23.7401  -30.5959   19.4084 H   0  0  0  0  0  0
  -22.7460  -29.2458   19.8651 H   0  0  0  0  0  0
  -25.1278  -36.1972   25.0827 H   0  0  0  0  0  0
  -20.9952  -28.3228   24.1429 H   0  0  0  0  0  0
  -20.5691  -26.2267   23.3602 H   0  0  0  0  0  0
  -21.6640  -26.7443   22.1196 H   0  0  0  0  0  0
  -19.6924  -25.6289   21.1240 H   0  0  0  0  0  0
  -19.6710  -27.3184   20.6736 H   0  0  0  0  0  0
  -17.4203  -26.6674   21.4005 H   0  0  0  0  0  0
  -18.0310  -26.0056   22.8999 H   0  0  0  0  0  0
  -19.7948  -30.7244   24.2268 H   0  0  0  0  0  0
  -17.5037  -31.6267   24.5153 H   0  0  0  0  0  0
  -15.5360  -30.2995   23.7665 H   0  0  0  0  0  0
  -15.8667  -28.0846   22.7045 H   0  0  0  0  0  0
  -24.5890  -30.7109   25.7802 H   0  0  0  0  0  0
  -24.8924  -32.2924   26.4891 H   0  0  0  0  0  0
  -25.8045  -30.8935   27.0255 H   0  0  0  0  0  0
  -26.2927  -29.6806   24.1174 H   0  0  0  0  0  0
  -27.4094  -29.7313   25.4632 H   0  0  0  0  0  0
  -27.8755  -30.4399   23.9338 H   0  0  0  0  0  0
  -27.2655  -33.3647   26.2100 H   0  0  0  0  0  0
  -28.3851  -32.6930   25.0341 H   0  0  0  0  0  0
  -28.0719  -31.8480   26.5428 H   0  0  0  0  0  0
  -28.2588  -38.0101   24.7510 H   0  0  0  0  0  0
  -28.1065  -36.2631   24.6289 H   0  0  0  0  0  0
  -27.2293  -37.1456   25.8870 H   0  0  0  0  0  0
  -20.9314  -29.8797   21.6980 H   0  0  0  0  0  0
  -26.0179  -38.2869   24.1421 H   0  0  0  0  0  0
  -29.5756  -18.3371   24.5604 H   0  0  0  0  0  0
  -29.9273  -20.3212   23.1741 H   0  0  0  0  0  0
  -31.0473  -23.3097   20.1881 H   0  0  0  0  0  0
  -29.7273  -23.8531   19.1875 H   0  0  0  0  0  0
  -27.3530  -23.4899   19.8527 H   0  0  0  0  0  0
  -26.9436  -22.6960   21.3505 H   0  0  0  0  0  0
  -30.7430  -25.7651   20.4346 H   0  0  0  0  0  0
  -30.5173  -24.9229   21.9338 H   0  0  0  0  0  0
  -27.7863  -24.5347   22.6735 H   0  0  0  0  0  0
  -26.6231  -25.1478   21.5586 H   0  0  0  0  0  0
  -29.3836  -22.6113   21.9723 H   0  0  0  0  0  0
  -28.8142  -26.4850   21.9904 H   0  0  0  0  0  0
  -29.2409  -14.9153   25.7611 H   0  0  0  0  0  0
  -28.5777  -16.5248   25.5577 H   0  0  0  0  0  0
  -30.3292  -16.2896   25.6435 H   0  0  0  0  0  0
  -31.9057  -19.6629   19.2451 H   0  0  0  0  0  0
  -31.2115  -21.1456   18.6073 H   0  0  0  0  0  0
  -30.3241  -19.6268   18.4760 H   0  0  0  0  0  0
  -30.1967  -14.9204   23.5116 H   0  0  0  0  0  0
  -28.4837  -15.2700   23.4192 H   0  0  0  0  0  0
  -31.0426  -21.0704   21.0611 H   0  0  0  0  0  0
  -28.8400  -15.1572   21.0955 H   0  0  0  0  0  0
  -28.8088  -21.3193   19.3893 H   0  0  0  0  0  0
  -28.3770  -20.7822   20.8501 H   0  0  0  0  0  0
  1 25  1  0  0  0
  1 30  2  0  0  0
  1 87  1  0  0  0
  2  3  1  0  0  0
  2 25  1  0  0  0
  2 89  1  0  0  0
  2 90  1  0  0  0
  3  4  1  0  0  0
  3 91  1  0  0  0
  3 92  1  0  0  0
  4  5  1  0  0  0
  4 93  1  0  0  0
  4 94  1  0  0  0
  5  6  1  0  0  0
  5 26  1  0  0  0
  5 95  1  0  0  0
  6 25  1  0  0  0
  6 96  1  0  0  0
  6 97  1  0  0  0
  7  8  2  0  0  0
  7 26  1  0  0  0
  7 29  1  0  0  0
  8  9  1  0  0  0
  8 22  1  0  0  0
  9 10  1  0  0  0
  9 27  2  0  0  0
 10 11  2  0  0  0
 10 15  1  0  0  0
 11 12  1  0  0  0
 11 98  1  0  0  0
 12 13  2  0  0  0
 12 99  1  0  0  0
 13 14  1  0  0  0
 13 31  1  0  0  0
 14 15  2  0  0  0
 14100  1  0  0  0
 15101  1  0  0  0
 16 17  2  0  0  0
 16 21  1  0  0  0
 16 31  1  0  0  0
 17 18  1  0  0  0
 17102  1  0  0  0
 18 19  2  0  0  0
 18103  1  0  0  0
 19 20  1  0  0  0
 19 24  1  0  0  0
 20 21  2  0  0  0
 20104  1  0  0  0
 21 23  1  0  0  0
 22 28  1  0  0  0
 22 32  2  0  0  0
 26 27  1  0  0  0
 28105  1  0  0  0
 28106  1  0  0  0
 29107  1  0  0  0
 29108  1  0  0  0
 33 34  1  0  0  0
 33 66  1  0  0  0
 33 70  2  0  0  0
 34 36  1  0  0  0
 34 59  1  0  0  0
 34109  1  0  0  0
 35 44  2  0  0  0
 35 45  1  0  0  0
 35 68  1  0  0  0
 36 56  1  0  0  0
 36110  1  0  0  0
 37 39  1  0  0  0
 37 47  1  0  0  0
 37 66  1  0  0  0
 37111  1  0  0  0
 38 43  2  0  0  0
 38 46  1  0  0  0
 38 47  1  0  0  0
 39 64  1  0  0  0
 39 67  2  0  0  0
 40 52  1  0  0  0
 40 53  2  0  0  0
 40 58  1  0  0  0
 41112  1  0  0  0
 41113  1  0  0  0
 41114  1  0  0  0
 41 48  1  0  0  0
 42 43  1  0  0  0
 42 66  1  0  0  0
 42115  1  0  0  0
 42116  1  0  0  0
 43 44  1  0  0  0
 44117  1  0  0  0
 45 46  2  0  0  0
 45118  1  0  0  0
 46119  1  0  0  0
 47120  1  0  0  0
 47121  1  0  0  0
 48 56  1  0  0  0
 48 65  1  0  0  0
 48122  1  0  0  0
 49 50  1  0  0  0
 49 53  1  0  0  0
 49 64  1  0  0  0
 49123  1  0  0  0
 50 51  1  0  0  0
 50124  1  0  0  0
 50125  1  0  0  0
 51 52  1  0  0  0
 51126  1  0  0  0
 51127  1  0  0  0
 52128  1  0  0  0
 52129  1  0  0  0
 53 54  1  0  0  0
 54 55  2  0  0  0
 54130  1  0  0  0
 55 57  1  0  0  0
 55131  1  0  0  0
 56 69  2  0  0  0
 57 58  2  0  0  0
 57132  1  0  0  0
 58133  1  0  0  0
 59 60  1  0  0  0
 59 61  1  0  0  0
 59 62  1  0  0  0
 60134  1  0  0  0
 60135  1  0  0  0
 60136  1  0  0  0
 61137  1  0  0  0
 61138  1  0  0  0
 61139  1  0  0  0
 62140  1  0  0  0
 62141  1  0  0  0
 62142  1  0  0  0
 63 65  1  0  0  0
 63143  1  0  0  0
 63144  1  0  0  0
 63145  1  0  0  0
 64146  1  0  0  0
 65147  1  0  0  0
 68 81  1  0  0  0
 71 72  2  0  0  0
 71 73  1  0  0  0
 71148  1  0  0  0
 72 74  1  0  0  0
 72149  1  0  0  0
 73 75  2  0  0  0
 73 84  1  0  0  0
 74 85  1  0  0  0
 74 86  2  0  0  0
 75 86  1  0  0  0
 75 87  1  0  0  0
 76 78  1  0  0  0
 76 80  1  0  0  0
 76150  1  0  0  0
 76151  1  0  0  0
 77 79  1  0  0  0
 77 80  1  0  0  0
 77152  1  0  0  0
 77153  1  0  0  0
 78 81  1  0  0  0
 78154  1  0  0  0
 78155  1  0  0  0
 79 81  1  0  0  0
 79156  1  0  0  0
 79157  1  0  0  0
 80 88  1  0  0  0
 80158  1  0  0  0
 81159  1  0  0  0
 82 84  1  0  0  0
 82160  1  0  0  0
 82161  1  0  0  0
 82162  1  0  0  0
 83163  1  0  0  0
 83164  1  0  0  0
 83165  1  0  0  0
 83 85  1  0  0  0
 84166  1  0  0  0
 84167  1  0  0  0
 85 88  1  0  0  0
 85168  1  0  0  0
 87169  1  0  0  0
 88170  1  0  0  0
 88171  1  0  0  0
M  CHG  1  88   1
M  ISO  4   1 100  68 101  81 101  87 100
M  END
> <chiral flag>
0

> <version>
0

> <s_m_source_file>
/data/baiqing/PycharmProjects/Reinvent-master-3.2/result/LINK_invent/BTK/process_docking_weight1_custom_sum_contain_oxygen_bond_distance_aromatic_linkinvent_7_9_3/rearranged_h_0142.sdf

> <i_m_source_file_index>
70

> <r_mmod_Potential_Energy-OPLS-2005>
-345.426086425781

> <r_mmod_Stretch_Energy-OPLS-2005>
49.9547500610352

> <r_mmod_Bend_Energy-OPLS-2005>
130.722015380859

> <r_mmod_Torsional_Energy-OPLS-2005>
296.968597412109

> <r_mmod_Improper_Torsional_Energy-OPLS-2005>
7.99479198455811

> <r_mmod_Van_der_Waal_Energy-OPLS-2005>
145.399002075195

> <r_mmod_Electrostatic_Energy-OPLS-2005>
-541.36328125

> <r_mmod_Solvation_Energy-OPLS-2005>
-459.694061279297

> <b_mmod_Minimization_Converged-OPLS-2005>
0

> <r_mmod_RMS_Derivative-OPLS-2005>
1.84934675693512

$$$$
71
                    3D
 Structure written by MMmdl.
169178  0  0  1  0            999 V2000
  -30.6131  -14.8574   20.4621 C   0  0  0  0  0  0
  -30.4279  -12.5333   19.4956 C   0  0  0  0  0  0
  -29.5146  -12.5317   18.2503 C   0  0  0  0  0  0
  -28.0458  -12.3328   18.6641 C   0  0  0  0  0  0
  -27.6350  -13.2500   19.8459 C   0  0  2  0  0  0
  -28.6770  -13.2478   20.9849 C   0  0  0  0  0  0
  -25.2484  -13.8231   20.5731 C   0  0  0  0  0  0
  -24.1792  -13.0447   20.9212 C   0  0  0  0  0  0
  -24.6409  -11.6935   20.8744 C   0  0  0  0  0  0
  -23.9092  -10.4299   21.0404 C   0  0  0  0  0  0
  -24.3639   -9.4212   21.9184 C   0  0  0  0  0  0
  -23.6306   -8.2251   22.0756 C   0  0  0  0  0  0
  -22.4286   -8.0289   21.3546 C   0  0  0  0  0  0
  -21.9931   -9.0264   20.4644 C   0  0  0  0  0  0
  -22.7265  -10.2139   20.3051 C   0  0  0  0  0  0
  -21.6859   -6.0739   22.5281 C   0  0  0  0  0  0
  -21.4018   -6.5644   23.8212 C   0  0  0  0  0  0
  -21.3659   -5.6797   24.9174 C   0  0  0  0  0  0
  -21.6047   -4.3058   24.7225 C   0  0  0  0  0  0
  -21.8821   -3.8148   23.4345 C   0  0  0  0  0  0
  -21.9197   -4.6965   22.3403 C   0  0  0  0  0  0
  -22.7808  -13.5211   21.1871 C   0  0  0  0  0  0
  -22.1664   -4.2150   21.0980 F   0  0  0  0  0  0
  -21.5626   -3.4539   25.7738 F   0  0  0  0  0  0
  -29.9675  -13.6275   20.3965 N   0  0  0  0  0  0
  -26.2916  -12.9471   20.3281 N   0  0  0  0  0  0
  -25.9344  -11.6595   20.5743 N   0  0  0  0  0  0
  -22.0468  -12.8183   22.0427 N   0  0  0  0  0  0
  -25.4182  -15.1953   20.4195 N   0  0  0  0  0  0
  -31.7946  -14.8896   20.1006 O   0  0  0  0  0  0
  -21.6645   -6.8887   21.4243 O   0  0  0  0  0  0
  -22.3483  -14.5512   20.6720 O   0  0  0  0  0  0
  -24.6408  -31.8491   23.1953 C   0  0  0  0  0  0
  -25.9196  -32.4722   23.8321 C   0  0  1  0  0  0
  -27.2073  -27.1675   20.1355 C   0  0  0  0  0  0
  -25.5963  -33.8528   24.2232 N   0  0  0  0  0  0
  -23.4422  -30.4738   21.5403 C   0  0  2  0  0  0
  -24.8913  -28.9202   20.1048 C   0  0  0  0  0  0
  -22.7557  -29.4573   22.4871 C   0  0  0  0  0  0
  -18.0303  -28.1393   22.8479 C   0  0  0  0  0  0
  -24.1494  -36.7264   23.2641 C   0  0  0  0  0  0
  -25.9990  -30.7303   21.3955 C   0  0  0  0  0  0
  -26.0682  -29.3475   20.7330 C   0  0  0  0  0  0
  -27.2260  -28.4837   20.7433 C   0  0  0  0  0  0
  -26.0126  -26.8643   19.4357 C   0  0  0  0  0  0
  -24.8754  -27.6900   19.4409 C   0  0  0  0  0  0
  -23.6664  -29.8154   20.1554 C   0  0  0  0  0  0
  -25.4124  -36.3047   24.0322 C   0  0  1  0  0  0
  -20.5917  -28.3720   23.1239 C   0  0  2  0  0  0
  -20.6791  -26.9427   22.5397 C   0  0  0  0  0  0
  -19.5762  -26.6383   21.5208 C   0  0  0  0  0  0
  -18.1943  -26.7933   22.1624 C   0  0  0  0  0  0
  -19.1560  -28.8875   23.2850 C   0  0  0  0  0  0
  -18.9476  -30.1471   23.8876 C   0  0  0  0  0  0
  -17.6473  -30.6591   24.0560 C   0  0  0  0  0  0
  -25.9073  -34.9421   23.5079 C   0  0  0  0  0  0
  -16.5363  -29.9083   23.6336 C   0  0  0  0  0  0
  -16.7289  -28.6500   23.0360 C   0  0  0  0  0  0
  -26.4533  -31.6569   25.0743 C   0  0  0  0  0  0
  -25.3721  -31.3734   26.1435 C   0  0  0  0  0  0
  -27.0404  -30.2971   24.6304 C   0  0  0  0  0  0
  -27.6067  -32.4332   25.7525 C   0  0  0  0  0  0
  -27.5578  -37.1791   24.8467 C   0  0  0  0  0  0
  -21.4252  -29.3054   22.3615 N   0  0  0  0  0  0
  -26.4291  -37.3754   23.9409 N   0  0  0  0  0  0
  -24.7134  -31.0377   22.0983 N   0  0  0  0  0  0
  -23.4215  -28.8104   23.2996 O   0  0  0  0  0  0
  -28.2262  -26.1509   20.2395 O   0  0  0  0  0  0
  -26.5645  -34.8904   22.4648 O   0  0  0  0  0  0
  -23.5534  -32.1361   23.7185 O   0  0  0  0  0  0
  -29.8045  -22.7944   20.3275 C   0  0  0  0  0  0
  -27.5600  -22.1178   20.2988 C   0  0  0  0  0  0
  -29.2860  -20.2659   20.5602 C   0  0  0  0  0  0
  -28.4502  -23.2360   20.2436 C   0  0  0  0  0  0
  -30.2015  -21.3972   20.4823 C   0  0  0  0  0  0
  -27.9223  -20.7245   20.4437 C   0  0  0  0  0  0
  -29.8522  -16.5488   22.1083 C   0  0  0  0  0  0
  -29.7943  -18.7075   20.8706 C   0  0  1  0  0  0
  -29.3288  -18.0196   22.1675 C   0  0  2  0  0  0
  -29.7964  -17.3933   19.8985 C   0  0  0  0  0  0
  -31.6993  -21.1467   20.5575 C   0  0  0  0  0  0
  -26.7443  -19.7641   20.4238 C   0  0  0  0  0  0
  -29.7420  -18.7604   23.4476 C   0  0  0  0  0  0
  -30.9638  -17.5441   18.8997 C   0  0  0  0  0  0
  -28.5013  -17.3063   19.0753 C   0  0  0  0  0  0
  -27.8243  -24.7074   19.8799 C   0  0  0  0  0  0
  -29.9084  -16.0677   20.7140 N   0  0  0  0  0  0
  -31.4682  -12.6516   19.1899 H   0  0  0  0  0  0
  -30.3815  -11.5715   20.0085 H   0  0  0  0  0  0
  -29.8183  -11.7480   17.5548 H   0  0  0  0  0  0
  -29.6202  -13.4765   17.7144 H   0  0  0  0  0  0
  -27.9250  -11.2873   18.9491 H   0  0  0  0  0  0
  -27.3856  -12.4931   17.8107 H   0  0  0  0  0  0
  -27.6094  -14.2606   19.4380 H   0  0  0  0  0  0
  -28.7381  -12.2688   21.4623 H   0  0  0  0  0  0
  -28.3837  -13.9518   21.7634 H   0  0  0  0  0  0
  -25.2787   -9.5682   22.4758 H   0  0  0  0  0  0
  -24.0012   -7.4644   22.7476 H   0  0  0  0  0  0
  -21.0867   -8.8789   19.8942 H   0  0  0  0  0  0
  -22.3737  -10.9679   19.6158 H   0  0  0  0  0  0
  -21.2013   -7.6153   23.9713 H   0  0  0  0  0  0
  -21.1478   -6.0527   25.9079 H   0  0  0  0  0  0
  -22.0600   -2.7609   23.2844 H   0  0  0  0  0  0
  -22.4106  -11.9849   22.4803 H   0  0  0  0  0  0
  -21.1077  -13.1182   22.2630 H   0  0  0  0  0  0
  -24.6561  -15.8532   20.5411 H   0  0  0  0  0  0
  -26.2804  -15.6333   20.1231 H   0  0  0  0  0  0
  -26.7259  -32.5342   23.1052 H   0  0  0  0  0  0
  -25.0112  -33.9653   25.0380 H   0  0  0  0  0  0
  -22.7426  -31.2994   21.3933 H   0  0  0  0  0  0
  -23.3762  -35.9589   23.3291 H   0  0  0  0  0  0
  -24.3579  -36.8907   22.2057 H   0  0  0  0  0  0
  -23.7241  -37.6456   23.6683 H   0  0  0  0  0  0
  -26.1559  -31.4885   20.6268 H   0  0  0  0  0  0
  -26.8691  -30.7753   22.0385 H   0  0  0  0  0  0
  -28.1139  -28.7978   21.2746 H   0  0  0  0  0  0
  -25.8971  -25.9455   18.8832 H   0  0  0  0  0  0
  -23.9836  -27.3657   18.9218 H   0  0  0  0  0  0
  -23.7990  -30.5952   19.4046 H   0  0  0  0  0  0
  -22.7819  -29.2569   19.8438 H   0  0  0  0  0  0
  -25.1306  -36.1885   25.0814 H   0  0  0  0  0  0
  -21.0012  -28.3308   24.1361 H   0  0  0  0  0  0
  -20.5694  -26.2332   23.3612 H   0  0  0  0  0  0
  -21.6657  -26.7442   22.1191 H   0  0  0  0  0  0
  -19.6923  -25.6288   21.1250 H   0  0  0  0  0  0
  -19.6692  -27.3179   20.6727 H   0  0  0  0  0  0
  -17.4212  -26.6681   21.4026 H   0  0  0  0  0  0
  -18.0342  -26.0075   22.9023 H   0  0  0  0  0  0
  -19.7950  -30.7292   24.2237 H   0  0  0  0  0  0
  -17.5025  -31.6268   24.5167 H   0  0  0  0  0  0
  -15.5361  -30.2979   23.7669 H   0  0  0  0  0  0
  -15.8691  -28.0805   22.7098 H   0  0  0  0  0  0
  -24.5920  -30.7062   25.7749 H   0  0  0  0  0  0
  -24.8887  -32.2905   26.4813 H   0  0  0  0  0  0
  -25.8018  -30.8941   27.0241 H   0  0  0  0  0  0
  -26.3022  -29.6690   24.1306 H   0  0  0  0  0  0
  -27.4022  -29.7271   25.4870 H   0  0  0  0  0  0
  -27.8929  -30.4217   23.9624 H   0  0  0  0  0  0
  -27.2665  -33.3655   26.2045 H   0  0  0  0  0  0
  -28.3910  -32.6853   25.0375 H   0  0  0  0  0  0
  -28.0697  -31.8492   26.5487 H   0  0  0  0  0  0
  -28.2588  -38.0096   24.7524 H   0  0  0  0  0  0
  -28.1084  -36.2627   24.6292 H   0  0  0  0  0  0
  -27.2292  -37.1433   25.8869 H   0  0  0  0  0  0
  -20.9452  -29.8787   21.6817 H   0  0  0  0  0  0
  -26.0162  -38.2825   24.1410 H   0  0  0  0  0  0
  -30.5718  -23.5522   20.2476 H   0  0  0  0  0  0
  -26.5083  -22.3429   20.1873 H   0  0  0  0  0  0
  -29.2291  -15.8950   22.7195 H   0  0  0  0  0  0
  -30.8603  -16.5027   22.5261 H   0  0  0  0  0  0
  -30.8537  -18.8405   21.0727 H   0  0  0  0  0  0
  -28.2484  -17.9397   22.1829 H   0  0  0  0  0  0
  -32.2738  -22.0493   20.3468 H   0  0  0  0  0  0
  -32.0044  -20.3966   19.8274 H   0  0  0  0  0  0
  -31.9825  -20.8046   21.5532 H   0  0  0  0  0  0
  -25.8370  -20.2553   20.7763 H   0  0  0  0  0  0
  -26.8714  -18.8953   21.0526 H   0  0  0  0  0  0
  -26.5519  -19.4272   19.4059 H   0  0  0  0  0  0
  -30.8262  -18.8497   23.5249 H   0  0  0  0  0  0
  -29.3871  -18.2367   24.3357 H   0  0  0  0  0  0
  -29.3253  -19.7680   23.4692 H   0  0  0  0  0  0
  -30.8845  -18.4803   18.3460 H   0  0  0  0  0  0
  -30.9836  -16.7366   18.1673 H   0  0  0  0  0  0
  -31.9287  -17.5513   19.4079 H   0  0  0  0  0  0
  -28.3435  -18.2113   18.4883 H   0  0  0  0  0  0
  -27.6330  -17.1627   19.7163 H   0  0  0  0  0  0
  -28.5262  -16.4680   18.3783 H   0  0  0  0  0  0
  -26.8180  -24.5967   20.2832 H   0  0  0  0  0  0
  -27.7239  -24.6898   18.7944 H   0  0  0  0  0  0
  1 25  1  0  0  0
  1 30  2  0  0  0
  1 87  1  0  0  0
  2  3  1  0  0  0
  2 25  1  0  0  0
  2 88  1  0  0  0
  2 89  1  0  0  0
  3  4  1  0  0  0
  3 90  1  0  0  0
  3 91  1  0  0  0
  4  5  1  0  0  0
  4 92  1  0  0  0
  4 93  1  0  0  0
  5  6  1  0  0  0
  5 26  1  0  0  0
  5 94  1  0  0  0
  6 25  1  0  0  0
  6 95  1  0  0  0
  6 96  1  0  0  0
  7  8  2  0  0  0
  7 26  1  0  0  0
  7 29  1  0  0  0
  8  9  1  0  0  0
  8 22  1  0  0  0
  9 10  1  0  0  0
  9 27  2  0  0  0
 10 11  2  0  0  0
 10 15  1  0  0  0
 11 12  1  0  0  0
 11 97  1  0  0  0
 12 13  2  0  0  0
 12 98  1  0  0  0
 13 14  1  0  0  0
 13 31  1  0  0  0
 14 15  2  0  0  0
 14 99  1  0  0  0
 15100  1  0  0  0
 16 17  2  0  0  0
 16 21  1  0  0  0
 16 31  1  0  0  0
 17 18  1  0  0  0
 17101  1  0  0  0
 18 19  2  0  0  0
 18102  1  0  0  0
 19 20  1  0  0  0
 19 24  1  0  0  0
 20 21  2  0  0  0
 20103  1  0  0  0
 21 23  1  0  0  0
 22 28  1  0  0  0
 22 32  2  0  0  0
 26 27  1  0  0  0
 28104  1  0  0  0
 28105  1  0  0  0
 29106  1  0  0  0
 29107  1  0  0  0
 33 34  1  0  0  0
 33 66  1  0  0  0
 33 70  2  0  0  0
 34 36  1  0  0  0
 34 59  1  0  0  0
 34108  1  0  0  0
 35 44  2  0  0  0
 35 45  1  0  0  0
 35 68  1  0  0  0
 36 56  1  0  0  0
 36109  1  0  0  0
 37 39  1  0  0  0
 37 47  1  0  0  0
 37 66  1  0  0  0
 37110  1  0  0  0
 38 43  2  0  0  0
 38 46  1  0  0  0
 38 47  1  0  0  0
 39 64  1  0  0  0
 39 67  2  0  0  0
 40 52  1  0  0  0
 40 53  2  0  0  0
 40 58  1  0  0  0
 41111  1  0  0  0
 41112  1  0  0  0
 41113  1  0  0  0
 41 48  1  0  0  0
 42 43  1  0  0  0
 42 66  1  0  0  0
 42114  1  0  0  0
 42115  1  0  0  0
 43 44  1  0  0  0
 44116  1  0  0  0
 45 46  2  0  0  0
 45117  1  0  0  0
 46118  1  0  0  0
 47119  1  0  0  0
 47120  1  0  0  0
 48 56  1  0  0  0
 48 65  1  0  0  0
 48121  1  0  0  0
 49 50  1  0  0  0
 49 53  1  0  0  0
 49 64  1  0  0  0
 49122  1  0  0  0
 50 51  1  0  0  0
 50123  1  0  0  0
 50124  1  0  0  0
 51 52  1  0  0  0
 51125  1  0  0  0
 51126  1  0  0  0
 52127  1  0  0  0
 52128  1  0  0  0
 53 54  1  0  0  0
 54 55  2  0  0  0
 54129  1  0  0  0
 55 57  1  0  0  0
 55130  1  0  0  0
 56 69  2  0  0  0
 57 58  2  0  0  0
 57131  1  0  0  0
 58132  1  0  0  0
 59 60  1  0  0  0
 59 61  1  0  0  0
 59 62  1  0  0  0
 60133  1  0  0  0
 60134  1  0  0  0
 60135  1  0  0  0
 61136  1  0  0  0
 61137  1  0  0  0
 61138  1  0  0  0
 62139  1  0  0  0
 62140  1  0  0  0
 62141  1  0  0  0
 63 65  1  0  0  0
 63142  1  0  0  0
 63143  1  0  0  0
 63144  1  0  0  0
 64145  1  0  0  0
 65146  1  0  0  0
 68 86  1  0  0  0
 71 74  2  0  0  0
 71 75  1  0  0  0
 71147  1  0  0  0
 72 74  1  0  0  0
 72 76  2  0  0  0
 72148  1  0  0  0
 73 75  2  0  0  0
 73 76  1  0  0  0
 73 78  1  0  0  0
 74 86  1  0  0  0
 75 81  1  0  0  0
 76 82  1  0  0  0
 77 79  1  0  0  0
 77 87  1  0  0  0
 77149  1  0  0  0
 77150  1  0  0  0
 78 79  1  0  0  0
 78 80  1  0  0  0
 78151  1  0  0  0
 79 83  1  0  0  0
 79152  1  0  0  0
 80 84  1  0  0  0
 80 85  1  0  0  0
 80 87  1  0  0  0
 81153  1  0  0  0
 81154  1  0  0  0
 81155  1  0  0  0
 82156  1  0  0  0
 82157  1  0  0  0
 82158  1  0  0  0
 83159  1  0  0  0
 83160  1  0  0  0
 83161  1  0  0  0
 84162  1  0  0  0
 84163  1  0  0  0
 84164  1  0  0  0
 85165  1  0  0  0
 85166  1  0  0  0
 85167  1  0  0  0
 86168  1  0  0  0
 86169  1  0  0  0
M  ISO  4   1 100  68 101  86 101  87 100
M  END
> <chiral flag>
0

> <version>
0

> <s_m_source_file>
/data/baiqing/PycharmProjects/Reinvent-master-3.2/result/LINK_invent/BTK/process_docking_weight1_custom_sum_contain_oxygen_bond_distance_aromatic_linkinvent_7_9_3/rearranged_h_0142.sdf

> <i_m_source_file_index>
71

> <r_mmod_Potential_Energy-OPLS-2005>
723.343078613281

> <r_mmod_Stretch_Energy-OPLS-2005>
211.433349609375

> <r_mmod_Bend_Energy-OPLS-2005>
307.642456054688

> <r_mmod_Torsional_Energy-OPLS-2005>
353.057434082031

> <r_mmod_Improper_Torsional_Energy-OPLS-2005>
9.28931617736816

> <r_mmod_Van_der_Waal_Energy-OPLS-2005>
138.767242431641

> <r_mmod_Electrostatic_Energy-OPLS-2005>
-267.355529785156

> <r_mmod_Solvation_Energy-OPLS-2005>
-183.658538818359

> <b_mmod_Minimization_Converged-OPLS-2005>
0

> <r_mmod_RMS_Derivative-OPLS-2005>
0.726674854755402

$$$$
72
                    3D
 Structure written by MMmdl.
163172  0  0  1  0            999 V2000
  -30.6930  -14.5380   20.5581 C   0  0  0  0  0  0
  -30.4206  -12.3475   19.4379 C   0  0  0  0  0  0
  -29.4980  -12.5078   18.2130 C   0  0  0  0  0  0
  -28.0197  -12.3608   18.6232 C   0  0  0  0  0  0
  -27.6538  -13.2169   19.8665 C   0  0  2  0  0  0
  -28.6961  -13.0479   20.9940 C   0  0  0  0  0  0
  -25.2550  -13.8174   20.5679 C   0  0  0  0  0  0
  -24.1819  -13.0439   20.9185 C   0  0  0  0  0  0
  -24.6383  -11.6910   20.8736 C   0  0  0  0  0  0
  -23.9051  -10.4291   21.0402 C   0  0  0  0  0  0
  -24.3603   -9.4210   21.9181 C   0  0  0  0  0  0
  -23.6285   -8.2241   22.0752 C   0  0  0  0  0  0
  -22.4273   -8.0275   21.3539 C   0  0  0  0  0  0
  -21.9901   -9.0248   20.4644 C   0  0  0  0  0  0
  -22.7222  -10.2130   20.3054 C   0  0  0  0  0  0
  -21.6853   -6.0725   22.5279 C   0  0  0  0  0  0
  -21.4013   -6.5630   23.8210 C   0  0  0  0  0  0
  -21.3663   -5.6784   24.9173 C   0  0  0  0  0  0
  -21.6052   -4.3047   24.7228 C   0  0  0  0  0  0
  -21.8818   -3.8135   23.4348 C   0  0  0  0  0  0
  -21.9191   -4.6951   22.3404 C   0  0  0  0  0  0
  -22.7842  -13.5238   21.1845 C   0  0  0  0  0  0
  -22.1663   -4.2135   21.0983 F   0  0  0  0  0  0
  -21.5633   -3.4534   25.7742 F   0  0  0  0  0  0
  -30.0181  -13.3590   20.4316 N   0  0  0  0  0  0
  -26.2983  -12.9362   20.3326 N   0  0  0  0  0  0
  -25.9313  -11.6516   20.5752 N   0  0  0  0  0  0
  -22.0477  -12.8242   22.0404 N   0  0  0  0  0  0
  -25.4249  -15.1895   20.4075 N   0  0  0  0  0  0
  -31.8375  -14.6807   20.1207 O   0  0  0  0  0  0
  -21.6641   -6.8873   21.4245 O   0  0  0  0  0  0
  -22.3543  -14.5551   20.6695 O   0  0  0  0  0  0
  -24.6204  -31.8653   23.2069 C   0  0  0  0  0  0
  -25.9080  -32.4811   23.8375 C   0  0  1  0  0  0
  -27.2277  -27.3861   20.1137 C   0  0  0  0  0  0
  -25.5924  -33.8604   24.2318 N   0  0  0  0  0  0
  -23.4104  -30.4884   21.5484 C   0  0  2  0  0  0
  -24.8591  -28.9474   20.1150 C   0  0  0  0  0  0
  -22.7448  -29.4654   22.4974 C   0  0  0  0  0  0
  -18.0293  -28.1373   22.8499 C   0  0  0  0  0  0
  -24.1487  -36.7306   23.2635 C   0  0  0  0  0  0
  -25.9435  -30.8140   21.3698 C   0  0  0  0  0  0
  -26.0212  -29.4419   20.7239 C   0  0  0  0  0  0
  -27.2106  -28.6662   20.7280 C   0  0  0  0  0  0
  -26.0573  -26.9273   19.4789 C   0  0  0  0  0  0
  -24.8739  -27.6898   19.4884 C   0  0  0  0  0  0
  -23.6230  -29.8203   20.1642 C   0  0  0  0  0  0
  -25.4108  -36.3104   24.0340 C   0  0  1  0  0  0
  -20.5886  -28.3687   23.1324 C   0  0  2  0  0  0
  -20.6789  -26.9412   22.5442 C   0  0  0  0  0  0
  -19.5771  -26.6370   21.5243 C   0  0  0  0  0  0
  -18.1945  -26.7910   22.1649 C   0  0  0  0  0  0
  -19.1536  -28.8843   23.2902 C   0  0  0  0  0  0
  -18.9451  -30.1444   23.8915 C   0  0  0  0  0  0
  -17.6450  -30.6574   24.0561 C   0  0  0  0  0  0
  -25.9039  -34.9472   23.5124 C   0  0  0  0  0  0
  -16.5347  -29.9071   23.6320 C   0  0  0  0  0  0
  -16.7277  -28.6484   23.0355 C   0  0  0  0  0  0
  -26.4485  -31.6592   25.0710 C   0  0  0  0  0  0
  -25.3728  -31.3708   26.1445 C   0  0  0  0  0  0
  -27.0318  -30.3028   24.6104 C   0  0  0  0  0  0
  -27.6063  -32.4307   25.7474 C   0  0  0  0  0  0
  -27.5582  -37.1813   24.8469 C   0  0  0  0  0  0
  -21.4169  -29.3046   22.3719 N   0  0  0  0  0  0
  -26.4297  -37.3789   23.9407 N   0  0  0  0  0  0
  -24.6762  -31.0714   22.1001 N   0  0  0  0  0  0
  -23.4207  -28.8202   23.3031 O   0  0  0  0  0  0
  -28.3315  -26.5493   20.1012 O   0  0  0  0  0  0
  -26.5593  -34.8935   22.4682 O   0  0  0  0  0  0
  -23.5385  -32.1437   23.7437 O   0  0  0  0  0  0
  -27.4877  -24.7908   21.6517 C   0  0  0  0  0  0
  -30.1580  -19.5548   21.5903 C   0  0  0  0  0  0
  -29.1359  -18.4839   19.7417 C   0  0  0  0  0  0
  -28.9000  -24.3058   21.3952 C   0  0  2  0  0  0
  -29.5880  -18.1700   21.1824 C   0  0  1  0  0  0
  -28.5410  -25.8221   21.3316 C   0  0  1  0  0  0
  -29.2638  -20.6188   20.9001 C   0  0  1  0  0  0
  -31.1590  -16.9139   22.7880 C   0  0  0  0  0  0
  -29.1145  -23.2760   20.2601 C   0  0  0  0  0  0
  -29.9683  -22.0044   20.6451 C   0  0  0  0  0  0
  -30.5739  -16.9463   21.3622 C   0  0  1  0  0  0
  -30.0095  -15.5961   21.0690 N   0  0  0  0  0  0
  -28.8131  -19.9361   19.6660 N   0  3  0  0  0  0
  -31.4652  -12.4469   19.1383 H   0  0  0  0  0  0
  -30.3280  -11.3471   19.8630 H   0  0  0  0  0  0
  -29.7501  -11.7683   17.4518 H   0  0  0  0  0  0
  -29.6586  -13.4861   17.7556 H   0  0  0  0  0  0
  -27.8418  -11.3065   18.8367 H   0  0  0  0  0  0
  -27.3692  -12.6148   17.7854 H   0  0  0  0  0  0
  -27.6831  -14.2585   19.5460 H   0  0  0  0  0  0
  -28.6869  -12.0264   21.3769 H   0  0  0  0  0  0
  -28.4518  -13.6841   21.8457 H   0  0  0  0  0  0
  -25.2750   -9.5695   22.4755 H   0  0  0  0  0  0
  -23.9997   -7.4639   22.7476 H   0  0  0  0  0  0
  -21.0832   -8.8767   19.8957 H   0  0  0  0  0  0
  -22.3676  -10.9669   19.6166 H   0  0  0  0  0  0
  -21.2000   -7.6137   23.9713 H   0  0  0  0  0  0
  -21.1494   -6.0512   25.9079 H   0  0  0  0  0  0
  -22.0593   -2.7597   23.2853 H   0  0  0  0  0  0
  -22.4071  -11.9905   22.4818 H   0  0  0  0  0  0
  -21.1095  -13.1281   22.2594 H   0  0  0  0  0  0
  -24.6506  -15.8387   20.4996 H   0  0  0  0  0  0
  -26.2670  -15.6252   20.0545 H   0  0  0  0  0  0
  -26.7150  -32.5518   23.1135 H   0  0  0  0  0  0
  -25.0091  -33.9740   25.0476 H   0  0  0  0  0  0
  -22.7006  -31.3066   21.4082 H   0  0  0  0  0  0
  -23.3752  -35.9639   23.3311 H   0  0  0  0  0  0
  -24.3576  -36.8896   22.2044 H   0  0  0  0  0  0
  -23.7239  -37.6517   23.6635 H   0  0  0  0  0  0
  -26.0587  -31.5734   20.5957 H   0  0  0  0  0  0
  -26.8306  -30.8723   21.9887 H   0  0  0  0  0  0
  -28.1048  -29.0384   21.2072 H   0  0  0  0  0  0
  -26.0571  -25.9612   18.9939 H   0  0  0  0  0  0
  -23.9840  -27.3044   19.0090 H   0  0  0  0  0  0
  -23.7349  -30.5966   19.4059 H   0  0  0  0  0  0
  -22.7453  -29.2436   19.8672 H   0  0  0  0  0  0
  -25.1286  -36.1966   25.0835 H   0  0  0  0  0  0
  -20.9982  -28.3261   24.1442 H   0  0  0  0  0  0
  -20.5703  -26.2289   23.3630 H   0  0  0  0  0  0
  -21.6666  -26.7458   22.1249 H   0  0  0  0  0  0
  -19.6944  -25.6279   21.1282 H   0  0  0  0  0  0
  -19.6710  -27.3169   20.6772 H   0  0  0  0  0  0
  -17.4213  -26.6650   21.4052 H   0  0  0  0  0  0
  -18.0325  -26.0055   22.9045 H   0  0  0  0  0  0
  -19.7925  -30.7261   24.2289 H   0  0  0  0  0  0
  -17.5005  -31.6260   24.5149 H   0  0  0  0  0  0
  -15.5343  -30.2975   23.7616 H   0  0  0  0  0  0
  -15.8684  -28.0797   22.7066 H   0  0  0  0  0  0
  -24.5915  -30.7042   25.7774 H   0  0  0  0  0  0
  -24.8900  -32.2861   26.4878 H   0  0  0  0  0  0
  -25.8058  -30.8885   27.0213 H   0  0  0  0  0  0
  -26.2870  -29.6787   24.1150 H   0  0  0  0  0  0
  -27.4072  -29.7271   25.4573 H   0  0  0  0  0  0
  -27.8715  -30.4345   23.9275 H   0  0  0  0  0  0
  -27.2697  -33.3611   26.2062 H   0  0  0  0  0  0
  -28.3865  -32.6849   25.0285 H   0  0  0  0  0  0
  -28.0734  -31.8407   26.5371 H   0  0  0  0  0  0
  -28.2620  -38.0095   24.7510 H   0  0  0  0  0  0
  -28.1061  -36.2626   24.6305 H   0  0  0  0  0  0
  -27.2297  -37.1473   25.8873 H   0  0  0  0  0  0
  -20.9328  -29.8763   21.6937 H   0  0  0  0  0  0
  -26.0190  -38.2872   24.1395 H   0  0  0  0  0  0
  -27.1288  -24.7342   22.6770 H   0  0  0  0  0  0
  -26.7376  -24.5712   20.8957 H   0  0  0  0  0  0
  -31.1837  -19.6458   21.2303 H   0  0  0  0  0  0
  -30.1833  -19.6926   22.6717 H   0  0  0  0  0  0
  -28.2867  -17.8711   19.4372 H   0  0  0  0  0  0
  -29.9483  -18.2798   19.0427 H   0  0  0  0  0  0
  -29.4792  -24.0630   22.2840 H   0  0  0  0  0  0
  -28.6948  -17.9921   21.7847 H   0  0  0  0  0  0
  -28.8795  -26.4672   22.1408 H   0  0  0  0  0  0
  -28.3853  -20.7735   21.5284 H   0  0  0  0  0  0
  -31.7141  -17.8237   23.0178 H   0  0  0  0  0  0
  -31.8567  -16.0846   22.9140 H   0  0  0  0  0  0
  -30.3763  -16.8044   23.5399 H   0  0  0  0  0  0
  -29.6313  -23.8032   19.4568 H   0  0  0  0  0  0
  -28.1531  -22.9758   19.8420 H   0  0  0  0  0  0
  -30.7158  -21.8520   19.8648 H   0  0  0  0  0  0
  -30.5639  -22.2447   21.5268 H   0  0  0  0  0  0
  -31.4094  -17.1183   20.6809 H   0  0  0  0  0  0
  -29.0583  -15.4163   21.3554 H   0  0  0  0  0  0
  -27.8205  -20.0662   19.5503 H   0  0  0  0  0  0
  -29.2715  -20.3267   18.8586 H   0  0  0  0  0  0
  1 25  1  0  0  0
  1 30  2  0  0  0
  1 82  1  0  0  0
  2  3  1  0  0  0
  2 25  1  0  0  0
  2 84  1  0  0  0
  2 85  1  0  0  0
  3  4  1  0  0  0
  3 86  1  0  0  0
  3 87  1  0  0  0
  4  5  1  0  0  0
  4 88  1  0  0  0
  4 89  1  0  0  0
  5  6  1  0  0  0
  5 26  1  0  0  0
  5 90  1  0  0  0
  6 25  1  0  0  0
  6 91  1  0  0  0
  6 92  1  0  0  0
  7  8  2  0  0  0
  7 26  1  0  0  0
  7 29  1  0  0  0
  8  9  1  0  0  0
  8 22  1  0  0  0
  9 10  1  0  0  0
  9 27  2  0  0  0
 10 11  2  0  0  0
 10 15  1  0  0  0
 11 12  1  0  0  0
 11 93  1  0  0  0
 12 13  2  0  0  0
 12 94  1  0  0  0
 13 14  1  0  0  0
 13 31  1  0  0  0
 14 15  2  0  0  0
 14 95  1  0  0  0
 15 96  1  0  0  0
 16 17  2  0  0  0
 16 21  1  0  0  0
 16 31  1  0  0  0
 17 18  1  0  0  0
 17 97  1  0  0  0
 18 19  2  0  0  0
 18 98  1  0  0  0
 19 20  1  0  0  0
 19 24  1  0  0  0
 20 21  2  0  0  0
 20 99  1  0  0  0
 21 23  1  0  0  0
 22 28  1  0  0  0
 22 32  2  0  0  0
 26 27  1  0  0  0
 28100  1  0  0  0
 28101  1  0  0  0
 29102  1  0  0  0
 29103  1  0  0  0
 33 34  1  0  0  0
 33 66  1  0  0  0
 33 70  2  0  0  0
 34 36  1  0  0  0
 34 59  1  0  0  0
 34104  1  0  0  0
 35 44  2  0  0  0
 35 45  1  0  0  0
 35 68  1  0  0  0
 36 56  1  0  0  0
 36105  1  0  0  0
 37 39  1  0  0  0
 37 47  1  0  0  0
 37 66  1  0  0  0
 37106  1  0  0  0
 38 43  2  0  0  0
 38 46  1  0  0  0
 38 47  1  0  0  0
 39 64  1  0  0  0
 39 67  2  0  0  0
 40 52  1  0  0  0
 40 53  2  0  0  0
 40 58  1  0  0  0
 41107  1  0  0  0
 41108  1  0  0  0
 41109  1  0  0  0
 41 48  1  0  0  0
 42 43  1  0  0  0
 42 66  1  0  0  0
 42110  1  0  0  0
 42111  1  0  0  0
 43 44  1  0  0  0
 44112  1  0  0  0
 45 46  2  0  0  0
 45113  1  0  0  0
 46114  1  0  0  0
 47115  1  0  0  0
 47116  1  0  0  0
 48 56  1  0  0  0
 48 65  1  0  0  0
 48117  1  0  0  0
 49 50  1  0  0  0
 49 53  1  0  0  0
 49 64  1  0  0  0
 49118  1  0  0  0
 50 51  1  0  0  0
 50119  1  0  0  0
 50120  1  0  0  0
 51 52  1  0  0  0
 51121  1  0  0  0
 51122  1  0  0  0
 52123  1  0  0  0
 52124  1  0  0  0
 53 54  1  0  0  0
 54 55  2  0  0  0
 54125  1  0  0  0
 55 57  1  0  0  0
 55126  1  0  0  0
 56 69  2  0  0  0
 57 58  2  0  0  0
 57127  1  0  0  0
 58128  1  0  0  0
 59 60  1  0  0  0
 59 61  1  0  0  0
 59 62  1  0  0  0
 60129  1  0  0  0
 60130  1  0  0  0
 60131  1  0  0  0
 61132  1  0  0  0
 61133  1  0  0  0
 61134  1  0  0  0
 62135  1  0  0  0
 62136  1  0  0  0
 62137  1  0  0  0
 63 65  1  0  0  0
 63138  1  0  0  0
 63139  1  0  0  0
 63140  1  0  0  0
 64141  1  0  0  0
 65142  1  0  0  0
 68 76  1  0  0  0
 71 74  1  0  0  0
 71 76  1  0  0  0
 71143  1  0  0  0
 71144  1  0  0  0
 72 77  1  0  0  0
 72145  1  0  0  0
 72146  1  0  0  0
 72 75  1  0  0  0
 73 75  1  0  0  0
 73 83  1  0  0  0
 73147  1  0  0  0
 73148  1  0  0  0
 74 76  1  0  0  0
 74 79  1  0  0  0
 74149  1  0  0  0
 75 81  1  0  0  0
 75150  1  0  0  0
 76151  1  0  0  0
 77 80  1  0  0  0
 77 83  1  0  0  0
 77152  1  0  0  0
 78153  1  0  0  0
 78154  1  0  0  0
 78155  1  0  0  0
 78 81  1  0  0  0
 79 80  1  0  0  0
 79156  1  0  0  0
 79157  1  0  0  0
 80158  1  0  0  0
 80159  1  0  0  0
 81 82  1  0  0  0
 81160  1  0  0  0
 82161  1  0  0  0
 83162  1  0  0  0
 83163  1  0  0  0
M  CHG  1  83   1
M  ISO  4   1 100  68 101  76 101  82 100
M  END
> <chiral flag>
0

> <version>
0

> <s_m_source_file>
/data/baiqing/PycharmProjects/Reinvent-master-3.2/result/LINK_invent/BTK/process_docking_weight1_custom_sum_contain_oxygen_bond_distance_aromatic_linkinvent_7_9_3/rearranged_h_0142.sdf

> <i_m_source_file_index>
72

> <r_mmod_Potential_Energy-OPLS-2005>
-24.0270977020264

> <r_mmod_Stretch_Energy-OPLS-2005>
51.7587738037109

> <r_mmod_Bend_Energy-OPLS-2005>
151.539581298828

> <r_mmod_Torsional_Energy-OPLS-2005>
356.175689697266

> <r_mmod_Improper_Torsional_Energy-OPLS-2005>
2.9971923828125

> <r_mmod_Van_der_Waal_Energy-OPLS-2005>
117.721450805664

> <r_mmod_Electrostatic_Energy-OPLS-2005>
-262.533081054688

> <r_mmod_Solvation_Energy-OPLS-2005>
-466.413269042969

> <b_mmod_Minimization_Converged-OPLS-2005>
0

> <r_mmod_RMS_Derivative-OPLS-2005>
1.40077352523804

$$$$
73
                    3D
 Structure written by MMmdl.
161170  0  0  1  0            999 V2000
  -30.6759  -14.6374   20.4501 C   0  0  0  0  0  0
  -30.4171  -12.3831   19.4674 C   0  0  0  0  0  0
  -29.5033  -12.4840   18.2285 C   0  0  0  0  0  0
  -28.0266  -12.3330   18.6405 C   0  0  0  0  0  0
  -27.6441  -13.2291   19.8499 C   0  0  2  0  0  0
  -28.6881  -13.1479   20.9858 C   0  0  0  0  0  0
  -25.2524  -13.8201   20.5691 C   0  0  0  0  0  0
  -24.1813  -13.0450   20.9210 C   0  0  0  0  0  0
  -24.6397  -11.6926   20.8754 C   0  0  0  0  0  0
  -23.9076  -10.4298   21.0409 C   0  0  0  0  0  0
  -24.3625   -9.4213   21.9183 C   0  0  0  0  0  0
  -23.6302   -8.2246   22.0752 C   0  0  0  0  0  0
  -22.4281   -8.0281   21.3546 C   0  0  0  0  0  0
  -21.9918   -9.0257   20.4646 C   0  0  0  0  0  0
  -22.7248  -10.2139   20.3057 C   0  0  0  0  0  0
  -21.6855   -6.0739   22.5281 C   0  0  0  0  0  0
  -21.4012   -6.5642   23.8214 C   0  0  0  0  0  0
  -21.3659   -5.6794   24.9176 C   0  0  0  0  0  0
  -21.6043   -4.3055   24.7227 C   0  0  0  0  0  0
  -21.8819   -3.8148   23.4346 C   0  0  0  0  0  0
  -21.9194   -4.6966   22.3404 C   0  0  0  0  0  0
  -22.7835  -13.5233   21.1865 C   0  0  0  0  0  0
  -22.1664   -4.2151   21.0982 F   0  0  0  0  0  0
  -21.5628   -3.4539   25.7738 F   0  0  0  0  0  0
  -30.0004  -13.4480   20.4030 N   0  0  0  0  0  0
  -26.2949  -12.9406   20.3280 N   0  0  0  0  0  0
  -25.9324  -11.6550   20.5756 N   0  0  0  0  0  0
  -22.0481  -12.8219   22.0419 N   0  0  0  0  0  0
  -25.4225  -15.1919   20.4086 N   0  0  0  0  0  0
  -31.8773  -14.6804   20.1773 O   0  0  0  0  0  0
  -21.6645   -6.8880   21.4239 O   0  0  0  0  0  0
  -22.3520  -14.5538   20.6710 O   0  0  0  0  0  0
  -24.6261  -31.8597   23.2039 C   0  0  0  0  0  0
  -25.9114  -32.4780   23.8360 C   0  0  1  0  0  0
  -27.2165  -27.3205   20.1234 C   0  0  0  0  0  0
  -25.5928  -33.8579   24.2292 N   0  0  0  0  0  0
  -23.4195  -30.4848   21.5460 C   0  0  2  0  0  0
  -24.8659  -28.9443   20.1088 C   0  0  0  0  0  0
  -22.7474  -29.4626   22.4937 C   0  0  0  0  0  0
  -18.0288  -28.1368   22.8487 C   0  0  0  0  0  0
  -24.1490  -36.7288   23.2639 C   0  0  0  0  0  0
  -25.9611  -30.7915   21.3759 C   0  0  0  0  0  0
  -26.0347  -29.4200   20.7179 C   0  0  0  0  0  0
  -27.2161  -28.6204   20.7161 C   0  0  0  0  0  0
  -26.0344  -26.9086   19.4697 C   0  0  0  0  0  0
  -24.8682  -27.6940   19.4735 C   0  0  0  0  0  0
  -23.6329  -29.8224   20.1605 C   0  0  0  0  0  0
  -25.4112  -36.3085   24.0339 C   0  0  1  0  0  0
  -20.5891  -28.3669   23.1281 C   0  0  2  0  0  0
  -20.6778  -26.9390   22.5405 C   0  0  0  0  0  0
  -19.5754  -26.6368   21.5209 C   0  0  0  0  0  0
  -18.1932  -26.7920   22.1614 C   0  0  0  0  0  0
  -19.1543  -28.8835   23.2885 C   0  0  0  0  0  0
  -18.9467  -30.1442   23.8894 C   0  0  0  0  0  0
  -17.6466  -30.6575   24.0560 C   0  0  0  0  0  0
  -25.9043  -34.9451   23.5110 C   0  0  0  0  0  0
  -16.5357  -29.9075   23.6329 C   0  0  0  0  0  0
  -16.7276  -28.6490   23.0354 C   0  0  0  0  0  0
  -26.4499  -31.6584   25.0724 C   0  0  0  0  0  0
  -25.3733  -31.3734   26.1452 C   0  0  0  0  0  0
  -27.0337  -30.3010   24.6167 C   0  0  0  0  0  0
  -27.6067  -32.4308   25.7489 C   0  0  0  0  0  0
  -27.5579  -37.1794   24.8468 C   0  0  0  0  0  0
  -21.4187  -29.3038   22.3679 N   0  0  0  0  0  0
  -26.4293  -37.3777   23.9411 N   0  0  0  0  0  0
  -24.6878  -31.0620   22.0984 N   0  0  0  0  0  0
  -23.4208  -28.8164   23.3008 O   0  0  0  0  0  0
  -28.3094  -26.4434   20.1658 O   0  0  0  0  0  0
  -26.5608  -34.8923   22.4679 O   0  0  0  0  0  0
  -23.5426  -32.1385   23.7369 O   0  0  0  0  0  0
  -30.6932  -19.6719   20.1892 C   0  0  0  0  0  0
  -30.1980  -21.0041   20.2947 C   0  0  0  0  0  0
  -28.4820  -18.7831   20.4857 C   0  0  0  0  0  0
  -27.9744  -20.1174   20.6044 C   0  0  0  0  0  0
  -29.8560  -18.5230   20.2658 C   0  0  0  0  0  0
  -28.8201  -21.2650   20.4932 C   0  0  0  0  0  0
  -25.9641  -20.9360   22.0690 C   0  0  0  0  0  0
  -25.6978  -19.4786   21.7734 C   0  0  0  0  0  0
  -26.4991  -20.3151   20.8001 C   0  0  0  0  0  0
  -30.5061  -16.9985   18.3828 C   0  0  0  0  0  0
  -28.0242  -25.0715   20.6627 C   0  0  0  0  0  0
  -28.9229  -23.8103   20.2848 C   0  0  0  0  0  0
  -30.4687  -17.1118   19.9219 C   0  0  2  0  0  0
  -29.9526  -15.8082   20.4878 N   0  0  0  0  0  0
  -28.2431  -22.5480   20.5989 O   0  0  0  0  0  0
  -31.4638  -12.4688   19.1694 H   0  0  0  0  0  0
  -30.3221  -11.4042   19.9400 H   0  0  0  0  0  0
  -29.7678  -11.7140   17.5024 H   0  0  0  0  0  0
  -29.6545  -13.4427   17.7294 H   0  0  0  0  0  0
  -27.8653  -11.2843   18.8925 H   0  0  0  0  0  0
  -27.3730  -12.5427   17.7927 H   0  0  0  0  0  0
  -27.6454  -14.2530   19.4760 H   0  0  0  0  0  0
  -28.6936  -12.1565   21.4406 H   0  0  0  0  0  0
  -28.4452  -13.8515   21.7837 H   0  0  0  0  0  0
  -25.2769   -9.5688   22.4759 H   0  0  0  0  0  0
  -24.0013   -7.4635   22.7465 H   0  0  0  0  0  0
  -21.0853   -8.8775   19.8948 H   0  0  0  0  0  0
  -22.3707  -10.9677   19.6166 H   0  0  0  0  0  0
  -21.2000   -7.6149   23.9718 H   0  0  0  0  0  0
  -21.1479   -6.0523   25.9080 H   0  0  0  0  0  0
  -22.0596   -2.7607   23.2846 H   0  0  0  0  0  0
  -22.4108  -11.9889   22.4814 H   0  0  0  0  0  0
  -21.1087  -13.1219   22.2600 H   0  0  0  0  0  0
  -24.6538  -15.8445   20.5162 H   0  0  0  0  0  0
  -26.2631  -15.6266   20.0525 H   0  0  0  0  0  0
  -26.7177  -32.5454   23.1103 H   0  0  0  0  0  0
  -25.0101  -33.9730   25.0456 H   0  0  0  0  0  0
  -22.7135  -31.3061   21.4055 H   0  0  0  0  0  0
  -23.3760  -35.9611   23.3303 H   0  0  0  0  0  0
  -24.3587  -36.8901   22.2053 H   0  0  0  0  0  0
  -23.7235  -37.6492   23.6648 H   0  0  0  0  0  0
  -26.0953  -31.5557   20.6087 H   0  0  0  0  0  0
  -26.8420  -30.8378   22.0048 H   0  0  0  0  0  0
  -28.1122  -28.9791   21.2034 H   0  0  0  0  0  0
  -25.9960  -25.9586   18.9566 H   0  0  0  0  0  0
  -23.9770  -27.3294   18.9811 H   0  0  0  0  0  0
  -23.7488  -30.5997   19.4047 H   0  0  0  0  0  0
  -22.7532  -29.2501   19.8584 H   0  0  0  0  0  0
  -25.1294  -36.1937   25.0834 H   0  0  0  0  0  0
  -20.9985  -28.3230   24.1401 H   0  0  0  0  0  0
  -20.5679  -26.2272   23.3603 H   0  0  0  0  0  0
  -21.6646  -26.7415   22.1194 H   0  0  0  0  0  0
  -19.6921  -25.6287   21.1224 H   0  0  0  0  0  0
  -19.6701  -27.3189   20.6752 H   0  0  0  0  0  0
  -17.4208  -26.6669   21.4017 H   0  0  0  0  0  0
  -18.0331  -26.0060   22.9008 H   0  0  0  0  0  0
  -19.7949  -30.7255   24.2256 H   0  0  0  0  0  0
  -17.5028  -31.6262   24.5147 H   0  0  0  0  0  0
  -15.5359  -30.2977   23.7664 H   0  0  0  0  0  0
  -15.8675  -28.0809   22.7077 H   0  0  0  0  0  0
  -24.5913  -30.7076   25.7786 H   0  0  0  0  0  0
  -24.8922  -32.2912   26.4844 H   0  0  0  0  0  0
  -25.8058  -30.8934   27.0240 H   0  0  0  0  0  0
  -26.2904  -29.6762   24.1199 H   0  0  0  0  0  0
  -27.4066  -29.7260   25.4653 H   0  0  0  0  0  0
  -27.8763  -30.4317   23.9374 H   0  0  0  0  0  0
  -27.2692  -33.3625   26.2041 H   0  0  0  0  0  0
  -28.3886  -32.6829   25.0313 H   0  0  0  0  0  0
  -28.0715  -31.8439   26.5422 H   0  0  0  0  0  0
  -28.2593  -38.0091   24.7510 H   0  0  0  0  0  0
  -28.1079  -36.2624   24.6294 H   0  0  0  0  0  0
  -27.2301  -37.1440   25.8872 H   0  0  0  0  0  0
  -20.9350  -29.8766   21.6906 H   0  0  0  0  0  0
  -26.0179  -38.2858   24.1408 H   0  0  0  0  0  0
  -31.7493  -19.5365   20.0005 H   0  0  0  0  0  0
  -30.8974  -21.8235   20.2085 H   0  0  0  0  0  0
  -27.7923  -17.9520   20.5202 H   0  0  0  0  0  0
  -26.6777  -21.1660   22.8580 H   0  0  0  0  0  0
  -25.1267  -21.6257   21.9786 H   0  0  0  0  0  0
  -24.6776  -19.2146   21.5011 H   0  0  0  0  0  0
  -26.2237  -18.7414   22.3773 H   0  0  0  0  0  0
  -26.0205  -20.5956   19.8631 H   0  0  0  0  0  0
  -31.0288  -17.8474   17.9401 H   0  0  0  0  0  0
  -29.5001  -16.9775   17.9625 H   0  0  0  0  0  0
  -31.0248  -16.1021   18.0415 H   0  0  0  0  0  0
  -28.0069  -25.1421   21.7510 H   0  0  0  0  0  0
  -27.0095  -24.7738   20.4071 H   0  0  0  0  0  0
  -29.8795  -23.8688   20.8048 H   0  0  0  0  0  0
  -29.1372  -23.8214   19.2161 H   0  0  0  0  0  0
  -31.5033  -17.1839   20.2630 H   0  0  0  0  0  0
  -28.9679  -15.7418   20.6907 H   0  0  0  0  0  0
  1 25  1  0  0  0
  1 30  2  0  0  0
  1 84  1  0  0  0
  2  3  1  0  0  0
  2 25  1  0  0  0
  2 86  1  0  0  0
  2 87  1  0  0  0
  3  4  1  0  0  0
  3 88  1  0  0  0
  3 89  1  0  0  0
  4  5  1  0  0  0
  4 90  1  0  0  0
  4 91  1  0  0  0
  5  6  1  0  0  0
  5 26  1  0  0  0
  5 92  1  0  0  0
  6 25  1  0  0  0
  6 93  1  0  0  0
  6 94  1  0  0  0
  7  8  2  0  0  0
  7 26  1  0  0  0
  7 29  1  0  0  0
  8  9  1  0  0  0
  8 22  1  0  0  0
  9 10  1  0  0  0
  9 27  2  0  0  0
 10 11  2  0  0  0
 10 15  1  0  0  0
 11 12  1  0  0  0
 11 95  1  0  0  0
 12 13  2  0  0  0
 12 96  1  0  0  0
 13 14  1  0  0  0
 13 31  1  0  0  0
 14 15  2  0  0  0
 14 97  1  0  0  0
 15 98  1  0  0  0
 16 17  2  0  0  0
 16 21  1  0  0  0
 16 31  1  0  0  0
 17 18  1  0  0  0
 17 99  1  0  0  0
 18 19  2  0  0  0
 18100  1  0  0  0
 19 20  1  0  0  0
 19 24  1  0  0  0
 20 21  2  0  0  0
 20101  1  0  0  0
 21 23  1  0  0  0
 22 28  1  0  0  0
 22 32  2  0  0  0
 26 27  1  0  0  0
 28102  1  0  0  0
 28103  1  0  0  0
 29104  1  0  0  0
 29105  1  0  0  0
 33 34  1  0  0  0
 33 66  1  0  0  0
 33 70  2  0  0  0
 34 36  1  0  0  0
 34 59  1  0  0  0
 34106  1  0  0  0
 35 44  2  0  0  0
 35 45  1  0  0  0
 35 68  1  0  0  0
 36 56  1  0  0  0
 36107  1  0  0  0
 37 39  1  0  0  0
 37 47  1  0  0  0
 37 66  1  0  0  0
 37108  1  0  0  0
 38 43  2  0  0  0
 38 46  1  0  0  0
 38 47  1  0  0  0
 39 64  1  0  0  0
 39 67  2  0  0  0
 40 52  1  0  0  0
 40 53  2  0  0  0
 40 58  1  0  0  0
 41109  1  0  0  0
 41110  1  0  0  0
 41111  1  0  0  0
 41 48  1  0  0  0
 42 43  1  0  0  0
 42 66  1  0  0  0
 42112  1  0  0  0
 42113  1  0  0  0
 43 44  1  0  0  0
 44114  1  0  0  0
 45 46  2  0  0  0
 45115  1  0  0  0
 46116  1  0  0  0
 47117  1  0  0  0
 47118  1  0  0  0
 48 56  1  0  0  0
 48 65  1  0  0  0
 48119  1  0  0  0
 49 50  1  0  0  0
 49 53  1  0  0  0
 49 64  1  0  0  0
 49120  1  0  0  0
 50 51  1  0  0  0
 50121  1  0  0  0
 50122  1  0  0  0
 51 52  1  0  0  0
 51123  1  0  0  0
 51124  1  0  0  0
 52125  1  0  0  0
 52126  1  0  0  0
 53 54  1  0  0  0
 54 55  2  0  0  0
 54127  1  0  0  0
 55 57  1  0  0  0
 55128  1  0  0  0
 56 69  2  0  0  0
 57 58  2  0  0  0
 57129  1  0  0  0
 58130  1  0  0  0
 59 60  1  0  0  0
 59 61  1  0  0  0
 59 62  1  0  0  0
 60131  1  0  0  0
 60132  1  0  0  0
 60133  1  0  0  0
 61134  1  0  0  0
 61135  1  0  0  0
 61136  1  0  0  0
 62137  1  0  0  0
 62138  1  0  0  0
 62139  1  0  0  0
 63 65  1  0  0  0
 63140  1  0  0  0
 63141  1  0  0  0
 63142  1  0  0  0
 64143  1  0  0  0
 65144  1  0  0  0
 68 81  1  0  0  0
 71 72  2  0  0  0
 71 75  1  0  0  0
 71145  1  0  0  0
 72 76  1  0  0  0
 72146  1  0  0  0
 73 74  1  0  0  0
 73 75  2  0  0  0
 73147  1  0  0  0
 74 76  2  0  0  0
 74 79  1  0  0  0
 75 83  1  0  0  0
 76 85  1  0  0  0
 77 78  1  0  0  0
 77 79  1  0  0  0
 77148  1  0  0  0
 77149  1  0  0  0
 78 79  1  0  0  0
 78150  1  0  0  0
 78151  1  0  0  0
 79152  1  0  0  0
 80153  1  0  0  0
 80154  1  0  0  0
 80155  1  0  0  0
 80 83  1  0  0  0
 81 82  1  0  0  0
 81156  1  0  0  0
 81157  1  0  0  0
 82 85  1  0  0  0
 82158  1  0  0  0
 82159  1  0  0  0
 83 84  1  0  0  0
 83160  1  0  0  0
 84161  1  0  0  0
M  ISO  4   1 100  68 101  81 101  84 100
M  END
> <chiral flag>
0

> <version>
0

> <s_m_source_file>
/data/baiqing/PycharmProjects/Reinvent-master-3.2/result/LINK_invent/BTK/process_docking_weight1_custom_sum_contain_oxygen_bond_distance_aromatic_linkinvent_7_9_3/rearranged_h_0142.sdf

> <i_m_source_file_index>
73

> <r_mmod_Potential_Energy-OPLS-2005>
84.8389358520508

> <r_mmod_Stretch_Energy-OPLS-2005>
79.9807586669922

> <r_mmod_Bend_Energy-OPLS-2005>
154.356796264648

> <r_mmod_Torsional_Energy-OPLS-2005>
255.270919799805

> <r_mmod_Improper_Torsional_Energy-OPLS-2005>
9.26488971710205

> <r_mmod_Van_der_Waal_Energy-OPLS-2005>
140.015182495117

> <r_mmod_Electrostatic_Energy-OPLS-2005>
-405.071807861328

> <r_mmod_Solvation_Energy-OPLS-2005>
-204.864288330078

> <b_mmod_Minimization_Converged-OPLS-2005>
0

> <r_mmod_RMS_Derivative-OPLS-2005>
1.15219497680664

$$$$
74
                    3D
 Structure written by MMmdl.
166175  0  0  1  0            999 V2000
  -30.6540  -14.5497   20.5256 C   0  0  0  0  0  0
  -30.4319  -12.3438   19.4238 C   0  0  0  0  0  0
  -29.4948  -12.5058   18.2061 C   0  0  0  0  0  0
  -28.0150  -12.3635   18.6224 C   0  0  0  0  0  0
  -27.6578  -13.2086   19.8747 C   0  0  2  0  0  0
  -28.7080  -13.0182   20.9937 C   0  0  0  0  0  0
  -25.2568  -13.8157   20.5691 C   0  0  0  0  0  0
  -24.1848  -13.0443   20.9222 C   0  0  0  0  0  0
  -24.6400  -11.6897   20.8775 C   0  0  0  0  0  0
  -23.9060  -10.4289   21.0407 C   0  0  0  0  0  0
  -24.3610   -9.4203   21.9182 C   0  0  0  0  0  0
  -23.6284   -8.2243   22.0750 C   0  0  0  0  0  0
  -22.4255   -8.0278   21.3544 C   0  0  0  0  0  0
  -21.9900   -9.0255   20.4646 C   0  0  0  0  0  0
  -22.7232  -10.2128   20.3054 C   0  0  0  0  0  0
  -21.6864   -6.0725   22.5273 C   0  0  0  0  0  0
  -21.4027   -6.5636   23.8207 C   0  0  0  0  0  0
  -21.3655   -5.6789   24.9174 C   0  0  0  0  0  0
  -21.6029   -4.3046   24.7235 C   0  0  0  0  0  0
  -21.8822   -3.8139   23.4355 C   0  0  0  0  0  0
  -21.9204   -4.6954   22.3402 C   0  0  0  0  0  0
  -22.7857  -13.5214   21.1892 C   0  0  0  0  0  0
  -22.1667   -4.2147   21.0976 F   0  0  0  0  0  0
  -21.5635   -3.4522   25.7747 F   0  0  0  0  0  0
  -30.0262  -13.3424   20.4256 N   0  0  0  0  0  0
  -26.3021  -12.9339   20.3410 N   0  0  0  0  0  0
  -25.9331  -11.6492   20.5815 N   0  0  0  0  0  0
  -22.0499  -12.8204   22.0442 N   0  0  0  0  0  0
  -25.4286  -15.1867   20.4043 N   0  0  0  0  0  0
  -31.8066  -14.7386   20.1308 O   0  0  0  0  0  0
  -21.6624   -6.8864   21.4229 O   0  0  0  0  0  0
  -22.3557  -14.5529   20.6736 O   0  0  0  0  0  0
  -24.6198  -31.8624   23.2047 C   0  0  0  0  0  0
  -25.9069  -32.4787   23.8369 C   0  0  1  0  0  0
  -27.2278  -27.3800   20.1051 C   0  0  0  0  0  0
  -25.5907  -33.8590   24.2297 N   0  0  0  0  0  0
  -23.4110  -30.4845   21.5448 C   0  0  2  0  0  0
  -24.8556  -28.9387   20.1203 C   0  0  0  0  0  0
  -22.7438  -29.4635   22.4952 C   0  0  0  0  0  0
  -18.0284  -28.1384   22.8467 C   0  0  0  0  0  0
  -24.1489  -36.7297   23.2645 C   0  0  0  0  0  0
  -25.9445  -30.8111   21.3639 C   0  0  0  0  0  0
  -26.0213  -29.4424   20.7110 C   0  0  0  0  0  0
  -27.2124  -28.6734   20.6936 C   0  0  0  0  0  0
  -26.0417  -26.8976   19.5144 C   0  0  0  0  0  0
  -24.8637  -27.6698   19.5171 C   0  0  0  0  0  0
  -23.6225  -29.8126   20.1643 C   0  0  0  0  0  0
  -25.4118  -36.3105   24.0338 C   0  0  1  0  0  0
  -20.5869  -28.3671   23.1291 C   0  0  2  0  0  0
  -20.6768  -26.9391   22.5424 C   0  0  0  0  0  0
  -19.5767  -26.6381   21.5208 C   0  0  0  0  0  0
  -18.1933  -26.7925   22.1599 C   0  0  0  0  0  0
  -19.1525  -28.8843   23.2878 C   0  0  0  0  0  0
  -18.9461  -30.1440   23.8897 C   0  0  0  0  0  0
  -17.6462  -30.6572   24.0550 C   0  0  0  0  0  0
  -25.9051  -34.9466   23.5119 C   0  0  0  0  0  0
  -16.5350  -29.9072   23.6323 C   0  0  0  0  0  0
  -16.7276  -28.6493   23.0347 C   0  0  0  0  0  0
  -26.4471  -31.6586   25.0718 C   0  0  0  0  0  0
  -25.3721  -31.3696   26.1451 C   0  0  0  0  0  0
  -27.0303  -30.3025   24.6116 C   0  0  0  0  0  0
  -27.6041  -32.4324   25.7471 C   0  0  0  0  0  0
  -27.5583  -37.1800   24.8466 C   0  0  0  0  0  0
  -21.4152  -29.3030   22.3692 N   0  0  0  0  0  0
  -26.4304  -37.3781   23.9404 N   0  0  0  0  0  0
  -24.6769  -31.0690   22.0954 N   0  0  0  0  0  0
  -23.4186  -28.8148   23.3000 O   0  0  0  0  0  0
  -28.3854  -26.6177   20.0740 O   0  0  0  0  0  0
  -26.5623  -34.8916   22.4686 O   0  0  0  0  0  0
  -23.5374  -32.1387   23.7398 O   0  0  0  0  0  0
  -27.8561  -21.8883   21.5791 C   0  0  0  0  0  0
  -29.0919  -20.5104   20.0144 C   0  0  0  0  0  0
  -27.4969  -20.7347   22.3113 C   0  0  0  0  0  0
  -28.7448  -19.3222   20.7297 C   0  0  0  0  0  0
  -27.9371  -19.4429   21.8964 C   0  0  0  0  0  0
  -28.6386  -21.8033   20.4128 C   0  0  0  0  0  0
  -26.4305  -17.9229   24.8402 C   0  0  0  0  0  0
  -27.4378  -16.8151   24.6778 C   0  0  0  0  0  0
  -27.6726  -18.1512   24.0008 C   0  0  0  0  0  0
  -26.5629  -20.9381   23.4951 C   0  0  0  0  0  0
  -29.1035  -17.9128   20.1736 C   0  0  0  0  0  0
  -30.1307  -17.0370   20.9733 C   0  0  0  0  0  0
  -28.3371  -25.2621   20.6099 C   0  0  0  0  0  0
  -28.0632  -24.0789   19.6174 C   0  0  0  0  0  0
  -27.5341  -18.2630   22.5529 N   0  0  0  0  0  0
  -29.8550  -15.5740   20.9100 N   0  0  0  0  0  0
  -28.9683  -22.9354   19.6687 O   0  0  0  0  0  0
  -31.4746  -12.4619   19.1237 H   0  0  0  0  0  0
  -30.3538  -11.3376   19.8358 H   0  0  0  0  0  0
  -29.7380  -11.7661   17.4405 H   0  0  0  0  0  0
  -29.6535  -13.4834   17.7481 H   0  0  0  0  0  0
  -27.8297  -11.3089   18.8275 H   0  0  0  0  0  0
  -27.3639  -12.6298   17.7867 H   0  0  0  0  0  0
  -27.6895  -14.2535   19.5661 H   0  0  0  0  0  0
  -28.7030  -11.9893   21.3563 H   0  0  0  0  0  0
  -28.4783  -13.6341   21.8664 H   0  0  0  0  0  0
  -25.2756   -9.5700   22.4758 H   0  0  0  0  0  0
  -24.0027   -7.4626   22.7428 H   0  0  0  0  0  0
  -21.0855   -8.8725   19.8925 H   0  0  0  0  0  0
  -22.3671  -10.9655   19.6161 H   0  0  0  0  0  0
  -21.2007   -7.6142   23.9719 H   0  0  0  0  0  0
  -21.1487   -6.0517   25.9079 H   0  0  0  0  0  0
  -22.0615   -2.7604   23.2858 H   0  0  0  0  0  0
  -22.4120  -11.9824   22.4777 H   0  0  0  0  0  0
  -21.1111  -13.1216   22.2648 H   0  0  0  0  0  0
  -24.6614  -15.8413   20.5017 H   0  0  0  0  0  0
  -26.2699  -15.6164   20.0497 H   0  0  0  0  0  0
  -26.7119  -32.5452   23.1119 H   0  0  0  0  0  0
  -25.0072  -33.9786   25.0445 H   0  0  0  0  0  0
  -22.7014  -31.3008   21.3978 H   0  0  0  0  0  0
  -23.3765  -35.9621   23.3317 H   0  0  0  0  0  0
  -24.3572  -36.8910   22.2058 H   0  0  0  0  0  0
  -23.7233  -37.6496   23.6654 H   0  0  0  0  0  0
  -26.0751  -31.5785   20.5984 H   0  0  0  0  0  0
  -26.8258  -30.8560   21.9928 H   0  0  0  0  0  0
  -28.1141  -29.0610   21.1455 H   0  0  0  0  0  0
  -26.0261  -25.9279   19.0373 H   0  0  0  0  0  0
  -23.9664  -27.2780   19.0592 H   0  0  0  0  0  0
  -23.7337  -30.5816   19.3983 H   0  0  0  0  0  0
  -22.7428  -29.2396   19.8658 H   0  0  0  0  0  0
  -25.1281  -36.1968   25.0834 H   0  0  0  0  0  0
  -20.9972  -28.3246   24.1409 H   0  0  0  0  0  0
  -20.5659  -26.2263   23.3611 H   0  0  0  0  0  0
  -21.6629  -26.7421   22.1205 H   0  0  0  0  0  0
  -19.6920  -25.6298   21.1235 H   0  0  0  0  0  0
  -19.6707  -27.3180   20.6731 H   0  0  0  0  0  0
  -17.4190  -26.6669   21.4007 H   0  0  0  0  0  0
  -18.0320  -26.0075   22.9004 H   0  0  0  0  0  0
  -19.7938  -30.7268   24.2241 H   0  0  0  0  0  0
  -17.5014  -31.6251   24.5169 H   0  0  0  0  0  0
  -15.5342  -30.2975   23.7672 H   0  0  0  0  0  0
  -15.8676  -28.0835   22.7056 H   0  0  0  0  0  0
  -24.5926  -30.7001   25.7788 H   0  0  0  0  0  0
  -24.8870  -32.2837   26.4884 H   0  0  0  0  0  0
  -25.8087  -30.8889   27.0216 H   0  0  0  0  0  0
  -26.2853  -29.6778   24.1174 H   0  0  0  0  0  0
  -27.4053  -29.7274   25.4585 H   0  0  0  0  0  0
  -27.8690  -30.4331   23.9280 H   0  0  0  0  0  0
  -27.2672  -33.3643   26.2035 H   0  0  0  0  0  0
  -28.3859  -32.6865   25.0296 H   0  0  0  0  0  0
  -28.0692  -31.8448   26.5402 H   0  0  0  0  0  0
  -28.2596  -38.0093   24.7518 H   0  0  0  0  0  0
  -28.1080  -36.2634   24.6288 H   0  0  0  0  0  0
  -27.2300  -37.1445   25.8864 H   0  0  0  0  0  0
  -20.9331  -29.8767   21.6913 H   0  0  0  0  0  0
  -26.0191  -38.2859   24.1411 H   0  0  0  0  0  0
  -27.5052  -22.8519   21.9154 H   0  0  0  0  0  0
  -29.6797  -20.4280   19.1118 H   0  0  0  0  0  0
  -26.3751  -18.4046   25.8151 H   0  0  0  0  0  0
  -25.4757  -17.8052   24.3284 H   0  0  0  0  0  0
  -27.1345  -15.9588   24.0764 H   0  0  0  0  0  0
  -28.0290  -16.5704   25.5615 H   0  0  0  0  0  0
  -28.4778  -18.7696   24.3985 H   0  0  0  0  0  0
  -26.1921  -21.9614   23.5469 H   0  0  0  0  0  0
  -27.0672  -20.7286   24.4369 H   0  0  0  0  0  0
  -25.6949  -20.2864   23.4061 H   0  0  0  0  0  0
  -29.4472  -18.0147   19.1432 H   0  0  0  0  0  0
  -28.1636  -17.3677   20.0829 H   0  0  0  0  0  0
  -30.1075  -17.3118   22.0288 H   0  0  0  0  0  0
  -31.1411  -17.2649   20.6333 H   0  0  0  0  0  0
  -29.3161  -25.0849   21.0570 H   0  0  0  0  0  0
  -27.6332  -25.2192   21.4413 H   0  0  0  0  0  0
  -28.1492  -24.4757   18.6044 H   0  0  0  0  0  0
  -27.0255  -23.7535   19.6970 H   0  0  0  0  0  0
  -27.7856  -17.4184   22.0548 H   0  0  0  0  0  0
  -28.9272  -15.2855   21.1782 H   0  0  0  0  0  0
  1 25  1  0  0  0
  1 30  2  0  0  0
  1 86  1  0  0  0
  2  3  1  0  0  0
  2 25  1  0  0  0
  2 88  1  0  0  0
  2 89  1  0  0  0
  3  4  1  0  0  0
  3 90  1  0  0  0
  3 91  1  0  0  0
  4  5  1  0  0  0
  4 92  1  0  0  0
  4 93  1  0  0  0
  5  6  1  0  0  0
  5 26  1  0  0  0
  5 94  1  0  0  0
  6 25  1  0  0  0
  6 95  1  0  0  0
  6 96  1  0  0  0
  7  8  2  0  0  0
  7 26  1  0  0  0
  7 29  1  0  0  0
  8  9  1  0  0  0
  8 22  1  0  0  0
  9 10  1  0  0  0
  9 27  2  0  0  0
 10 11  2  0  0  0
 10 15  1  0  0  0
 11 12  1  0  0  0
 11 97  1  0  0  0
 12 13  2  0  0  0
 12 98  1  0  0  0
 13 14  1  0  0  0
 13 31  1  0  0  0
 14 15  2  0  0  0
 14 99  1  0  0  0
 15100  1  0  0  0
 16 17  2  0  0  0
 16 21  1  0  0  0
 16 31  1  0  0  0
 17 18  1  0  0  0
 17101  1  0  0  0
 18 19  2  0  0  0
 18102  1  0  0  0
 19 20  1  0  0  0
 19 24  1  0  0  0
 20 21  2  0  0  0
 20103  1  0  0  0
 21 23  1  0  0  0
 22 28  1  0  0  0
 22 32  2  0  0  0
 26 27  1  0  0  0
 28104  1  0  0  0
 28105  1  0  0  0
 29106  1  0  0  0
 29107  1  0  0  0
 33 34  1  0  0  0
 33 66  1  0  0  0
 33 70  2  0  0  0
 34 36  1  0  0  0
 34 59  1  0  0  0
 34108  1  0  0  0
 35 44  2  0  0  0
 35 45  1  0  0  0
 35 68  1  0  0  0
 36 56  1  0  0  0
 36109  1  0  0  0
 37 39  1  0  0  0
 37 47  1  0  0  0
 37 66  1  0  0  0
 37110  1  0  0  0
 38 43  2  0  0  0
 38 46  1  0  0  0
 38 47  1  0  0  0
 39 64  1  0  0  0
 39 67  2  0  0  0
 40 52  1  0  0  0
 40 53  2  0  0  0
 40 58  1  0  0  0
 41111  1  0  0  0
 41112  1  0  0  0
 41113  1  0  0  0
 41 48  1  0  0  0
 42 43  1  0  0  0
 42 66  1  0  0  0
 42114  1  0  0  0
 42115  1  0  0  0
 43 44  1  0  0  0
 44116  1  0  0  0
 45 46  2  0  0  0
 45117  1  0  0  0
 46118  1  0  0  0
 47119  1  0  0  0
 47120  1  0  0  0
 48 56  1  0  0  0
 48 65  1  0  0  0
 48121  1  0  0  0
 49 50  1  0  0  0
 49 53  1  0  0  0
 49 64  1  0  0  0
 49122  1  0  0  0
 50 51  1  0  0  0
 50123  1  0  0  0
 50124  1  0  0  0
 51 52  1  0  0  0
 51125  1  0  0  0
 51126  1  0  0  0
 52127  1  0  0  0
 52128  1  0  0  0
 53 54  1  0  0  0
 54 55  2  0  0  0
 54129  1  0  0  0
 55 57  1  0  0  0
 55130  1  0  0  0
 56 69  2  0  0  0
 57 58  2  0  0  0
 57131  1  0  0  0
 58132  1  0  0  0
 59 60  1  0  0  0
 59 61  1  0  0  0
 59 62  1  0  0  0
 60133  1  0  0  0
 60134  1  0  0  0
 60135  1  0  0  0
 61136  1  0  0  0
 61137  1  0  0  0
 61138  1  0  0  0
 62139  1  0  0  0
 62140  1  0  0  0
 62141  1  0  0  0
 63 65  1  0  0  0
 63142  1  0  0  0
 63143  1  0  0  0
 63144  1  0  0  0
 64145  1  0  0  0
 65146  1  0  0  0
 68 83  1  0  0  0
 71 73  2  0  0  0
 71 76  1  0  0  0
 71147  1  0  0  0
 72 74  1  0  0  0
 72 76  2  0  0  0
 72148  1  0  0  0
 73 75  1  0  0  0
 73 80  1  0  0  0
 74 75  2  0  0  0
 74 81  1  0  0  0
 75 85  1  0  0  0
 76 87  1  0  0  0
 77 78  1  0  0  0
 77 79  1  0  0  0
 77149  1  0  0  0
 77150  1  0  0  0
 78 79  1  0  0  0
 78151  1  0  0  0
 78152  1  0  0  0
 79 85  1  0  0  0
 79153  1  0  0  0
 80154  1  0  0  0
 80155  1  0  0  0
 80156  1  0  0  0
 81 82  1  0  0  0
 81157  1  0  0  0
 81158  1  0  0  0
 82 86  1  0  0  0
 82159  1  0  0  0
 82160  1  0  0  0
 83 84  1  0  0  0
 83161  1  0  0  0
 83162  1  0  0  0
 84 87  1  0  0  0
 84163  1  0  0  0
 84164  1  0  0  0
 85165  1  0  0  0
 86166  1  0  0  0
M  ISO  4   1 100  68 101  83 101  86 100
M  END
> <chiral flag>
0

> <version>
0

> <s_m_source_file>
/data/baiqing/PycharmProjects/Reinvent-master-3.2/result/LINK_invent/BTK/process_docking_weight1_custom_sum_contain_oxygen_bond_distance_aromatic_linkinvent_7_9_3/rearranged_h_0142.sdf

> <i_m_source_file_index>
74

> <r_mmod_Potential_Energy-OPLS-2005>
-23.5963916778564

> <r_mmod_Stretch_Energy-OPLS-2005>
56.7187347412109

> <r_mmod_Bend_Energy-OPLS-2005>
126.524795532227

> <r_mmod_Torsional_Energy-OPLS-2005>
273.286499023438

> <r_mmod_Improper_Torsional_Energy-OPLS-2005>
8.710129737854

> <r_mmod_Van_der_Waal_Energy-OPLS-2005>
142.238998413086

> <r_mmod_Electrostatic_Energy-OPLS-2005>
-439.030883789062

> <r_mmod_Solvation_Energy-OPLS-2005>
-215.618286132812

> <b_mmod_Minimization_Converged-OPLS-2005>
0

> <r_mmod_RMS_Derivative-OPLS-2005>
3.94433784484863

$$$$
75
                    3D
 Structure written by MMmdl.
175184  0  0  1  0            999 V2000
  -30.5882  -14.6756   20.4954 C   0  0  0  0  0  0
  -30.4495  -12.4145   19.4530 C   0  0  0  0  0  0
  -29.5168  -12.5099   18.2245 C   0  0  0  0  0  0
  -28.0392  -12.3391   18.6323 C   0  0  0  0  0  0
  -27.6530  -13.2111   19.8564 C   0  0  2  0  0  0
  -28.6966  -13.0671   20.9871 C   0  0  0  0  0  0
  -25.2560  -13.8138   20.5637 C   0  0  0  0  0  0
  -24.1828  -13.0426   20.9184 C   0  0  0  0  0  0
  -24.6377  -11.6896   20.8714 C   0  0  0  0  0  0
  -23.9041  -10.4285   21.0379 C   0  0  0  0  0  0
  -24.3589   -9.4204   21.9157 C   0  0  0  0  0  0
  -23.6263   -8.2243   22.0746 C   0  0  0  0  0  0
  -22.4249   -8.0276   21.3547 C   0  0  0  0  0  0
  -21.9868   -9.0255   20.4654 C   0  0  0  0  0  0
  -22.7198  -10.2127   20.3044 C   0  0  0  0  0  0
  -21.6855   -6.0713   22.5265 C   0  0  0  0  0  0
  -21.4025   -6.5618   23.8195 C   0  0  0  0  0  0
  -21.3665   -5.6775   24.9160 C   0  0  0  0  0  0
  -21.6043   -4.3038   24.7219 C   0  0  0  0  0  0
  -21.8822   -3.8129   23.4336 C   0  0  0  0  0  0
  -21.9202   -4.6943   22.3393 C   0  0  0  0  0  0
  -22.7857  -13.5244   21.1849 C   0  0  0  0  0  0
  -22.1665   -4.2131   21.0970 F   0  0  0  0  0  0
  -21.5628   -3.4522   25.7738 F   0  0  0  0  0  0
  -30.0103  -13.4314   20.4292 N   0  0  0  0  0  0
  -26.2982  -12.9311   20.3245 N   0  0  0  0  0  0
  -25.9297  -11.6473   20.5683 N   0  0  0  0  0  0
  -22.0477  -12.8279   22.0417 N   0  0  0  0  0  0
  -25.4256  -15.1844   20.3980 N   0  0  0  0  0  0
  -31.7542  -14.8614   20.1334 O   0  0  0  0  0  0
  -21.6639   -6.8856   21.4225 O   0  0  0  0  0  0
  -22.3551  -14.5544   20.6675 O   0  0  0  0  0  0
  -24.6258  -31.8600   23.2019 C   0  0  0  0  0  0
  -25.9112  -32.4774   23.8334 C   0  0  1  0  0  0
  -27.2296  -27.3129   20.1349 C   0  0  0  0  0  0
  -25.5911  -33.8567   24.2260 N   0  0  0  0  0  0
  -23.4197  -30.4812   21.5468 C   0  0  2  0  0  0
  -24.8680  -28.9210   20.1283 C   0  0  0  0  0  0
  -22.7457  -29.4629   22.4964 C   0  0  0  0  0  0
  -18.0294  -28.1394   22.8494 C   0  0  0  0  0  0
  -24.1484  -36.7287   23.2639 C   0  0  0  0  0  0
  -25.9603  -30.7834   21.3779 C   0  0  0  0  0  0
  -26.0357  -29.4040   20.7358 C   0  0  0  0  0  0
  -27.2222  -28.6105   20.7330 C   0  0  0  0  0  0
  -26.0431  -26.8707   19.5201 C   0  0  0  0  0  0
  -24.8716  -27.6557   19.5171 C   0  0  0  0  0  0
  -23.6373  -29.8073   20.1667 C   0  0  0  0  0  0
  -25.4109  -36.3075   24.0329 C   0  0  1  0  0  0
  -20.5887  -28.3681   23.1306 C   0  0  2  0  0  0
  -20.6779  -26.9397   22.5442 C   0  0  0  0  0  0
  -19.5764  -26.6384   21.5229 C   0  0  0  0  0  0
  -18.1931  -26.7941   22.1616 C   0  0  0  0  0  0
  -19.1543  -28.8859   23.2899 C   0  0  0  0  0  0
  -18.9458  -30.1462   23.8903 C   0  0  0  0  0  0
  -17.6458  -30.6587   24.0576 C   0  0  0  0  0  0
  -25.9059  -34.9447   23.5104 C   0  0  0  0  0  0
  -16.5355  -29.9082   23.6338 C   0  0  0  0  0  0
  -16.7281  -28.6511   23.0345 C   0  0  0  0  0  0
  -26.4482  -31.6587   25.0714 C   0  0  0  0  0  0
  -25.3706  -31.3788   26.1449 C   0  0  0  0  0  0
  -27.0292  -30.2986   24.6195 C   0  0  0  0  0  0
  -27.6060  -32.4319   25.7452 C   0  0  0  0  0  0
  -27.5585  -37.1787   24.8455 C   0  0  0  0  0  0
  -21.4176  -29.3031   22.3687 N   0  0  0  0  0  0
  -26.4286  -37.3778   23.9422 N   0  0  0  0  0  0
  -24.6873  -31.0592   22.0986 N   0  0  0  0  0  0
  -23.4169  -28.8192   23.3074 O   0  0  0  0  0  0
  -28.3600  -26.5068   19.9818 O   0  0  0  0  0  0
  -26.5646  -34.8925   22.4682 O   0  0  0  0  0  0
  -23.5427  -32.1410   23.7344 O   0  0  0  0  0  0
  -30.8669  -18.0064   20.6164 C   0  0  0  0  0  0
  -28.4914  -17.8434   20.7886 C   0  0  0  0  0  0
  -29.5077  -20.1264   20.8332 C   0  0  0  0  0  0
  -30.7612  -19.4372   20.6622 C   0  0  0  0  0  0
  -28.3630  -19.2660   20.8143 C   0  0  0  0  0  0
  -29.7328  -17.1608   20.7264 C   0  0  0  0  0  0
  -28.9171  -22.8314   20.2586 C   0  0  0  0  0  0
  -29.4459  -21.6858   21.2136 C   0  0  1  0  0  0
  -28.2452  -24.0105   21.1036 C   0  0  1  0  0  0
  -28.7404  -21.9830   22.5508 C   0  0  2  0  0  0
  -28.4031  -23.5014   22.5731 C   0  0  2  0  0  0
  -32.0551  -20.2261   20.5435 C   0  0  0  0  0  0
  -26.9439  -19.8099   20.8494 C   0  0  0  0  0  0
  -29.5858  -21.5251   23.7553 C   0  0  0  0  0  0
  -27.2379  -25.2734   24.0836 C   0  0  0  0  0  0
  -25.8312  -23.4563   23.0491 C   0  0  0  0  0  0
  -28.7700  -25.5288   20.9942 C   0  0  0  0  0  0
  -27.2345  -23.8286   23.5592 C   0  0  0  0  0  0
  -29.7213  -15.6931   20.8153 N   0  0  0  0  0  0
  -31.4884  -12.5558   19.1520 H   0  0  0  0  0  0
  -30.3995  -11.4185   19.8951 H   0  0  0  0  0  0
  -29.7897  -11.7567   17.4843 H   0  0  0  0  0  0
  -29.6534  -13.4759   17.7367 H   0  0  0  0  0  0
  -27.8799  -11.2849   18.8638 H   0  0  0  0  0  0
  -27.3888  -12.5659   17.7869 H   0  0  0  0  0  0
  -27.6683  -14.2445   19.5096 H   0  0  0  0  0  0
  -28.7157  -12.0403   21.3559 H   0  0  0  0  0  0
  -28.4305  -13.6829   21.8481 H   0  0  0  0  0  0
  -25.2728   -9.5694   22.4739 H   0  0  0  0  0  0
  -23.9992   -7.4631   22.7455 H   0  0  0  0  0  0
  -21.0806   -8.8745   19.8967 H   0  0  0  0  0  0
  -22.3623  -10.9658   19.6166 H   0  0  0  0  0  0
  -21.2014   -7.6125   23.9696 H   0  0  0  0  0  0
  -21.1483   -6.0503   25.9068 H   0  0  0  0  0  0
  -22.0599   -2.7591   23.2843 H   0  0  0  0  0  0
  -22.4075  -11.9977   22.4879 H   0  0  0  0  0  0
  -21.1097  -13.1312   22.2582 H   0  0  0  0  0  0
  -24.6409  -15.8226   20.4730 H   0  0  0  0  0  0
  -26.2339  -15.6041   19.9588 H   0  0  0  0  0  0
  -26.7173  -32.5446   23.1072 H   0  0  0  0  0  0
  -25.0039  -33.9700   25.0392 H   0  0  0  0  0  0
  -22.7157  -31.3026   21.4007 H   0  0  0  0  0  0
  -23.3750  -35.9613   23.3282 H   0  0  0  0  0  0
  -24.3579  -36.8933   22.2056 H   0  0  0  0  0  0
  -23.7233  -37.6478   23.6685 H   0  0  0  0  0  0
  -26.0908  -31.5381   20.6014 H   0  0  0  0  0  0
  -26.8400  -30.8386   22.0059 H   0  0  0  0  0  0
  -28.1300  -28.9890   21.1816 H   0  0  0  0  0  0
  -26.0275  -25.9057   19.0318 H   0  0  0  0  0  0
  -23.9781  -27.2773   19.0411 H   0  0  0  0  0  0
  -23.7606  -30.5788   19.4062 H   0  0  0  0  0  0
  -22.7540  -29.2398   19.8668 H   0  0  0  0  0  0
  -25.1284  -36.1919   25.0822 H   0  0  0  0  0  0
  -20.9988  -28.3271   24.1422 H   0  0  0  0  0  0
  -20.5670  -26.2277   23.3640 H   0  0  0  0  0  0
  -21.6656  -26.7430   22.1250 H   0  0  0  0  0  0
  -19.6915  -25.6292   21.1259 H   0  0  0  0  0  0
  -19.6719  -27.3194   20.6762 H   0  0  0  0  0  0
  -17.4215  -26.6722   21.4003 H   0  0  0  0  0  0
  -18.0293  -26.0078   22.8995 H   0  0  0  0  0  0
  -19.7934  -30.7295   24.2254 H   0  0  0  0  0  0
  -17.5011  -31.6268   24.5172 H   0  0  0  0  0  0
  -15.5353  -30.2973   23.7684 H   0  0  0  0  0  0
  -15.8678  -28.0841   22.7039 H   0  0  0  0  0  0
  -24.5838  -30.7174   25.7802 H   0  0  0  0  0  0
  -24.8940  -32.2983   26.4860 H   0  0  0  0  0  0
  -25.8005  -30.8971   27.0237 H   0  0  0  0  0  0
  -26.2853  -29.6752   24.1215 H   0  0  0  0  0  0
  -27.3942  -29.7255   25.4729 H   0  0  0  0  0  0
  -27.8756  -30.4237   23.9439 H   0  0  0  0  0  0
  -27.2691  -33.3627   26.2031 H   0  0  0  0  0  0
  -28.3842  -32.6867   25.0244 H   0  0  0  0  0  0
  -28.0743  -31.8436   26.5353 H   0  0  0  0  0  0
  -28.2616  -38.0073   24.7506 H   0  0  0  0  0  0
  -28.1071  -36.2613   24.6255 H   0  0  0  0  0  0
  -27.2331  -37.1427   25.8868 H   0  0  0  0  0  0
  -20.9344  -29.8689   21.6845 H   0  0  0  0  0  0
  -26.0162  -38.2856   24.1424 H   0  0  0  0  0  0
  -31.8463  -17.5537   20.5336 H   0  0  0  0  0  0
  -27.5853  -17.2547   20.8426 H   0  0  0  0  0  0
  -28.1799  -22.4243   19.5683 H   0  0  0  0  0  0
  -29.7282  -23.2071   19.6351 H   0  0  0  0  0  0
  -30.4749  -21.9913   21.3951 H   0  0  0  0  0  0
  -27.1892  -24.0136   20.8402 H   0  0  0  0  0  0
  -27.8003  -21.4451   22.5966 H   0  0  0  0  0  0
  -29.3013  -23.9821   22.9663 H   0  0  0  0  0  0
  -32.8864  -19.5931   20.2298 H   0  0  0  0  0  0
  -32.3256  -20.6796   21.4967 H   0  0  0  0  0  0
  -31.9509  -21.0149   19.7981 H   0  0  0  0  0  0
  -26.2953  -19.2175   20.2037 H   0  0  0  0  0  0
  -26.8819  -20.8379   20.5013 H   0  0  0  0  0  0
  -26.5350  -19.7505   21.8578 H   0  0  0  0  0  0
  -30.5595  -22.0156   23.7765 H   0  0  0  0  0  0
  -29.7653  -20.4496   23.7167 H   0  0  0  0  0  0
  -29.0937  -21.7351   24.7046 H   0  0  0  0  0  0
  -28.2291  -25.5795   24.4210 H   0  0  0  0  0  0
  -26.5653  -25.3673   24.9371 H   0  0  0  0  0  0
  -26.8950  -25.9847   23.3312 H   0  0  0  0  0  0
  -25.7937  -22.4512   22.6290 H   0  0  0  0  0  0
  -25.4765  -24.1527   22.2879 H   0  0  0  0  0  0
  -25.1102  -23.4881   23.8663 H   0  0  0  0  0  0
  -29.8558  -25.4757   20.9200 H   0  0  0  0  0  0
  -28.6084  -26.0347   21.9427 H   0  0  0  0  0  0
  -27.4051  -23.2122   24.4428 H   0  0  0  0  0  0
  -28.8196  -15.3178   21.0671 H   0  0  0  0  0  0
  1 25  1  0  0  0
  1 30  2  0  0  0
  1 89  1  0  0  0
  2  3  1  0  0  0
  2 25  1  0  0  0
  2 90  1  0  0  0
  2 91  1  0  0  0
  3  4  1  0  0  0
  3 92  1  0  0  0
  3 93  1  0  0  0
  4  5  1  0  0  0
  4 94  1  0  0  0
  4 95  1  0  0  0
  5  6  1  0  0  0
  5 26  1  0  0  0
  5 96  1  0  0  0
  6 25  1  0  0  0
  6 97  1  0  0  0
  6 98  1  0  0  0
  7  8  2  0  0  0
  7 26  1  0  0  0
  7 29  1  0  0  0
  8  9  1  0  0  0
  8 22  1  0  0  0
  9 10  1  0  0  0
  9 27  2  0  0  0
 10 11  2  0  0  0
 10 15  1  0  0  0
 11 12  1  0  0  0
 11 99  1  0  0  0
 12 13  2  0  0  0
 12100  1  0  0  0
 13 14  1  0  0  0
 13 31  1  0  0  0
 14 15  2  0  0  0
 14101  1  0  0  0
 15102  1  0  0  0
 16 17  2  0  0  0
 16 21  1  0  0  0
 16 31  1  0  0  0
 17 18  1  0  0  0
 17103  1  0  0  0
 18 19  2  0  0  0
 18104  1  0  0  0
 19 20  1  0  0  0
 19 24  1  0  0  0
 20 21  2  0  0  0
 20105  1  0  0  0
 21 23  1  0  0  0
 22 28  1  0  0  0
 22 32  2  0  0  0
 26 27  1  0  0  0
 28106  1  0  0  0
 28107  1  0  0  0
 29108  1  0  0  0
 29109  1  0  0  0
 33 34  1  0  0  0
 33 66  1  0  0  0
 33 70  2  0  0  0
 34 36  1  0  0  0
 34 59  1  0  0  0
 34110  1  0  0  0
 35 44  2  0  0  0
 35 45  1  0  0  0
 35 68  1  0  0  0
 36 56  1  0  0  0
 36111  1  0  0  0
 37 39  1  0  0  0
 37 47  1  0  0  0
 37 66  1  0  0  0
 37112  1  0  0  0
 38 43  2  0  0  0
 38 46  1  0  0  0
 38 47  1  0  0  0
 39 64  1  0  0  0
 39 67  2  0  0  0
 40 52  1  0  0  0
 40 53  2  0  0  0
 40 58  1  0  0  0
 41113  1  0  0  0
 41114  1  0  0  0
 41115  1  0  0  0
 41 48  1  0  0  0
 42 43  1  0  0  0
 42 66  1  0  0  0
 42116  1  0  0  0
 42117  1  0  0  0
 43 44  1  0  0  0
 44118  1  0  0  0
 45 46  2  0  0  0
 45119  1  0  0  0
 46120  1  0  0  0
 47121  1  0  0  0
 47122  1  0  0  0
 48 56  1  0  0  0
 48 65  1  0  0  0
 48123  1  0  0  0
 49 50  1  0  0  0
 49 53  1  0  0  0
 49 64  1  0  0  0
 49124  1  0  0  0
 50 51  1  0  0  0
 50125  1  0  0  0
 50126  1  0  0  0
 51 52  1  0  0  0
 51127  1  0  0  0
 51128  1  0  0  0
 52129  1  0  0  0
 52130  1  0  0  0
 53 54  1  0  0  0
 54 55  2  0  0  0
 54131  1  0  0  0
 55 57  1  0  0  0
 55132  1  0  0  0
 56 69  2  0  0  0
 57 58  2  0  0  0
 57133  1  0  0  0
 58134  1  0  0  0
 59 60  1  0  0  0
 59 61  1  0  0  0
 59 62  1  0  0  0
 60135  1  0  0  0
 60136  1  0  0  0
 60137  1  0  0  0
 61138  1  0  0  0
 61139  1  0  0  0
 61140  1  0  0  0
 62141  1  0  0  0
 62142  1  0  0  0
 62143  1  0  0  0
 63 65  1  0  0  0
 63144  1  0  0  0
 63145  1  0  0  0
 63146  1  0  0  0
 64147  1  0  0  0
 65148  1  0  0  0
 68 87  1  0  0  0
 71 74  2  0  0  0
 71 76  1  0  0  0
 71149  1  0  0  0
 72 75  1  0  0  0
 72 76  2  0  0  0
 72150  1  0  0  0
 73 74  1  0  0  0
 73 75  2  0  0  0
 73 78  1  0  0  0
 74 82  1  0  0  0
 75 83  1  0  0  0
 76 89  1  0  0  0
 77 78  1  0  0  0
 77 79  1  0  0  0
 77151  1  0  0  0
 77152  1  0  0  0
 78 80  1  0  0  0
 78153  1  0  0  0
 79 81  1  0  0  0
 79 87  1  0  0  0
 79154  1  0  0  0
 80 81  1  0  0  0
 80 84  1  0  0  0
 80155  1  0  0  0
 81 88  1  0  0  0
 81156  1  0  0  0
 82157  1  0  0  0
 82158  1  0  0  0
 82159  1  0  0  0
 83160  1  0  0  0
 83161  1  0  0  0
 83162  1  0  0  0
 84163  1  0  0  0
 84164  1  0  0  0
 84165  1  0  0  0
 85166  1  0  0  0
 85167  1  0  0  0
 85168  1  0  0  0
 85 88  1  0  0  0
 86 88  1  0  0  0
 86169  1  0  0  0
 86170  1  0  0  0
 86171  1  0  0  0
 87172  1  0  0  0
 87173  1  0  0  0
 88174  1  0  0  0
 89175  1  0  0  0
M  ISO  4   1 100  68 101  87 101  89 100
M  END
> <chiral flag>
0

> <version>
0

> <s_m_source_file>
/data/baiqing/PycharmProjects/Reinvent-master-3.2/result/LINK_invent/BTK/process_docking_weight1_custom_sum_contain_oxygen_bond_distance_aromatic_linkinvent_7_9_3/rearranged_h_0142.sdf

> <i_m_source_file_index>
75

> <r_mmod_Potential_Energy-OPLS-2005>
250.536270141602

> <r_mmod_Stretch_Energy-OPLS-2005>
93.8761672973633

> <r_mmod_Bend_Energy-OPLS-2005>
212.58479309082

> <r_mmod_Torsional_Energy-OPLS-2005>
327.098907470703

> <r_mmod_Improper_Torsional_Energy-OPLS-2005>
6.26591157913208

> <r_mmod_Van_der_Waal_Energy-OPLS-2005>
130.520324707031

> <r_mmod_Electrostatic_Energy-OPLS-2005>
-382.827972412109

> <r_mmod_Solvation_Energy-OPLS-2005>
-190.047302246094

> <b_mmod_Minimization_Converged-OPLS-2005>
0

> <r_mmod_RMS_Derivative-OPLS-2005>
2.6376953125

$$$$
76
                    3D
 Structure written by MMmdl.
171180  0  0  1  0            999 V2000
  -30.7011  -14.5279   20.2897 C   0  0  0  0  0  0
  -30.4116  -12.2810   19.4227 C   0  0  0  0  0  0
  -29.4803  -12.4008   18.1972 C   0  0  0  0  0  0
  -28.0041  -12.3010   18.6250 C   0  0  0  0  0  0
  -27.6462  -13.2016   19.8376 C   0  0  2  0  0  0
  -28.7102  -13.1243   20.9543 C   0  0  0  0  0  0
  -25.2651  -13.8128   20.5760 C   0  0  0  0  0  0
  -24.1877  -13.0402   20.9184 C   0  0  0  0  0  0
  -24.6400  -11.6873   20.8685 C   0  0  0  0  0  0
  -23.9044  -10.4270   21.0349 C   0  0  0  0  0  0
  -24.3590   -9.4185   21.9126 C   0  0  0  0  0  0
  -23.6263   -8.2224   22.0699 C   0  0  0  0  0  0
  -22.4251   -8.0256   21.3466 C   0  0  0  0  0  0
  -21.9873   -9.0240   20.4576 C   0  0  0  0  0  0
  -22.7210  -10.2134   20.2988 C   0  0  0  0  0  0
  -21.6825   -6.0758   22.5295 C   0  0  0  0  0  0
  -21.4004   -6.5668   23.8216 C   0  0  0  0  0  0
  -21.3639   -5.6810   24.9160 C   0  0  0  0  0  0
  -21.6046   -4.3061   24.7202 C   0  0  0  0  0  0
  -21.8827   -3.8154   23.4326 C   0  0  0  0  0  0
  -21.9170   -4.6979   22.3392 C   0  0  0  0  0  0
  -22.7917  -13.5192   21.1808 C   0  0  0  0  0  0
  -22.1631   -4.2190   21.0943 F   0  0  0  0  0  0
  -21.5622   -3.4517   25.7676 F   0  0  0  0  0  0
  -30.0244  -13.3525   20.3425 N   0  0  0  0  0  0
  -26.3000  -12.9275   20.3279 N   0  0  0  0  0  0
  -25.9310  -11.6433   20.5686 N   0  0  0  0  0  0
  -22.0624  -12.8116   22.0372 N   0  0  0  0  0  0
  -25.4477  -15.1863   20.4412 N   0  0  0  0  0  0
  -31.9258  -14.5782   20.4168 O   0  0  0  0  0  0
  -21.6567   -6.8879   21.4240 O   0  0  0  0  0  0
  -22.3564  -14.5438   20.6611 O   0  0  0  0  0  0
  -24.6130  -31.8680   23.2114 C   0  0  0  0  0  0
  -25.9030  -32.4809   23.8415 C   0  0  1  0  0  0
  -27.2214  -27.4330   20.1089 C   0  0  0  0  0  0
  -25.5910  -33.8618   24.2359 N   0  0  0  0  0  0
  -23.4011  -30.4950   21.5498 C   0  0  2  0  0  0
  -24.8490  -28.9619   20.1121 C   0  0  0  0  0  0
  -22.7404  -29.4676   22.4969 C   0  0  0  0  0  0
  -18.0285  -28.1389   22.8491 C   0  0  0  0  0  0
  -24.1477  -36.7311   23.2644 C   0  0  0  0  0  0
  -25.9298  -30.8337   21.3669 C   0  0  0  0  0  0
  -26.0071  -29.4684   20.7178 C   0  0  0  0  0  0
  -27.2017  -28.7108   20.7158 C   0  0  0  0  0  0
  -26.0567  -26.9491   19.4863 C   0  0  0  0  0  0
  -24.8677  -27.7004   19.4918 C   0  0  0  0  0  0
  -23.6097  -29.8272   20.1640 C   0  0  0  0  0  0
  -25.4091  -36.3114   24.0360 C   0  0  1  0  0  0
  -20.5869  -28.3674   23.1306 C   0  0  2  0  0  0
  -20.6760  -26.9406   22.5414 C   0  0  0  0  0  0
  -19.5734  -26.6376   21.5212 C   0  0  0  0  0  0
  -18.1915  -26.7930   22.1617 C   0  0  0  0  0  0
  -19.1530  -28.8847   23.2897 C   0  0  0  0  0  0
  -18.9453  -30.1457   23.8892 C   0  0  0  0  0  0
  -17.6454  -30.6589   24.0568 C   0  0  0  0  0  0
  -25.9018  -34.9476   23.5143 C   0  0  0  0  0  0
  -16.5348  -29.9082   23.6349 C   0  0  0  0  0  0
  -16.7266  -28.6506   23.0348 C   0  0  0  0  0  0
  -26.4474  -31.6584   25.0741 C   0  0  0  0  0  0
  -25.3738  -31.3683   26.1492 C   0  0  0  0  0  0
  -27.0320  -30.3032   24.6115 C   0  0  0  0  0  0
  -27.6065  -32.4305   25.7472 C   0  0  0  0  0  0
  -27.5582  -37.1803   24.8470 C   0  0  0  0  0  0
  -21.4127  -29.3042   22.3711 N   0  0  0  0  0  0
  -26.4283  -37.3800   23.9423 N   0  0  0  0  0  0
  -24.6661  -31.0803   22.0989 N   0  0  0  0  0  0
  -23.4187  -28.8233   23.3014 O   0  0  0  0  0  0
  -28.3338  -26.6249   20.0739 O   0  0  0  0  0  0
  -26.5581  -34.8924   22.4702 O   0  0  0  0  0  0
  -23.5331  -32.1435   23.7519 O   0  0  0  0  0  0
  -27.6229  -18.7629   20.2106 C   0  0  0  0  0  0
  -27.3611  -17.9068   19.1295 C   0  0  0  0  0  0
  -29.4980  -17.3482   20.8464 C   0  0  0  0  0  0
  -29.2535  -16.4856   19.7450 C   0  0  0  0  0  0
  -28.7162  -18.5129   21.0685 C   0  0  0  0  0  0
  -28.1874  -16.7921   18.8588 C   0  0  0  0  0  0
  -29.9108  -23.9693   20.5472 C   0  0  0  0  0  0
  -27.7067  -23.8389   21.7119 C   0  0  0  0  0  0
  -30.1508  -25.4029   21.0685 C   0  0  0  0  0  0
  -27.8536  -25.3134   22.1698 C   0  0  0  0  0  0
  -29.0746  -23.1406   21.5416 C   0  0  1  0  0  0
  -28.8452  -26.1799   21.3360 C   0  0  2  0  0  0
  -30.9545  -15.6670   18.1912 C   0  0  0  0  0  0
  -27.4475  -16.5898   16.5878 C   0  0  0  0  0  0
  -28.9907  -21.6484   21.1132 C   0  0  0  0  0  0
  -28.4901  -20.6694   22.2074 C   0  0  0  0  0  0
  -30.1578  -15.4217   19.4134 N   0  0  0  0  0  0
  -27.9687  -15.9784   17.7642 O   0  0  0  0  0  0
  -29.0771  -19.3587   22.0998 O   0  0  0  0  0  0
  -31.4616  -12.3471   19.1242 H   0  0  0  0  0  0
  -30.2905  -11.3120   19.9069 H   0  0  0  0  0  0
  -29.7061  -11.6069   17.4827 H   0  0  0  0  0  0
  -29.6460  -13.3350   17.6631 H   0  0  0  0  0  0
  -27.8143  -11.2580   18.8698 H   0  0  0  0  0  0
  -27.3513  -12.5239   17.7810 H   0  0  0  0  0  0
  -27.6411  -14.2146   19.4537 H   0  0  0  0  0  0
  -28.6862  -12.1512   21.4480 H   0  0  0  0  0  0
  -28.5179  -13.8700   21.7276 H   0  0  0  0  0  0
  -25.2749   -9.5646   22.4672 H   0  0  0  0  0  0
  -23.9948   -7.4618   22.7459 H   0  0  0  0  0  0
  -21.0756   -8.8759   19.8946 H   0  0  0  0  0  0
  -22.3647  -10.9635   19.6080 H   0  0  0  0  0  0
  -21.2050   -7.6181   23.9708 H   0  0  0  0  0  0
  -21.1411   -6.0550   25.9052 H   0  0  0  0  0  0
  -22.0611   -2.7605   23.2810 H   0  0  0  0  0  0
  -22.4293  -11.9746   22.4644 H   0  0  0  0  0  0
  -21.1278  -13.1143   22.2693 H   0  0  0  0  0  0
  -24.7091  -15.8527   20.6302 H   0  0  0  0  0  0
  -26.3192  -15.6227   20.1658 H   0  0  0  0  0  0
  -26.7095  -32.5523   23.1180 H   0  0  0  0  0  0
  -25.0121  -33.9796   25.0549 H   0  0  0  0  0  0
  -22.6887  -31.3103   21.4074 H   0  0  0  0  0  0
  -23.3750  -35.9636   23.3311 H   0  0  0  0  0  0
  -24.3586  -36.8906   22.2058 H   0  0  0  0  0  0
  -23.7196  -37.6510   23.6635 H   0  0  0  0  0  0
  -26.0456  -31.5936   20.5959 H   0  0  0  0  0  0
  -26.8168  -30.8860   21.9846 H   0  0  0  0  0  0
  -28.0960  -29.1095   21.1706 H   0  0  0  0  0  0
  -26.0694  -25.9761   19.0159 H   0  0  0  0  0  0
  -23.9789  -27.3052   19.0184 H   0  0  0  0  0  0
  -23.7176  -30.6010   19.4022 H   0  0  0  0  0  0
  -22.7329  -29.2453   19.8667 H   0  0  0  0  0  0
  -25.1248  -36.1991   25.0856 H   0  0  0  0  0  0
  -20.9964  -28.3230   24.1418 H   0  0  0  0  0  0
  -20.5652  -26.2279   23.3616 H   0  0  0  0  0  0
  -21.6634  -26.7432   22.1201 H   0  0  0  0  0  0
  -19.6904  -25.6284   21.1241 H   0  0  0  0  0  0
  -19.6690  -27.3192   20.6753 H   0  0  0  0  0  0
  -17.4198  -26.6708   21.4010 H   0  0  0  0  0  0
  -18.0309  -26.0058   22.8990 H   0  0  0  0  0  0
  -19.7934  -30.7279   24.2235 H   0  0  0  0  0  0
  -17.5014  -31.6274   24.5167 H   0  0  0  0  0  0
  -15.5355  -30.2982   23.7677 H   0  0  0  0  0  0
  -15.8656  -28.0835   22.7048 H   0  0  0  0  0  0
  -24.5949  -30.6983   25.7845 H   0  0  0  0  0  0
  -24.8905  -32.2827   26.4928 H   0  0  0  0  0  0
  -25.8121  -30.8882   27.0242 H   0  0  0  0  0  0
  -26.2884  -29.6774   24.1174 H   0  0  0  0  0  0
  -27.4099  -29.7288   25.4576 H   0  0  0  0  0  0
  -27.8699  -30.4386   23.9281 H   0  0  0  0  0  0
  -27.2719  -33.3616   26.2057 H   0  0  0  0  0  0
  -28.3857  -32.6829   25.0267 H   0  0  0  0  0  0
  -28.0737  -31.8406   26.5365 H   0  0  0  0  0  0
  -28.2589  -38.0117   24.7538 H   0  0  0  0  0  0
  -28.1089  -36.2644   24.6249 H   0  0  0  0  0  0
  -27.2323  -37.1389   25.8885 H   0  0  0  0  0  0
  -20.9293  -29.8757   21.6926 H   0  0  0  0  0  0
  -26.0180  -38.2877   24.1444 H   0  0  0  0  0  0
  -26.9709  -19.6122   20.3467 H   0  0  0  0  0  0
  -26.5053  -18.1322   18.5148 H   0  0  0  0  0  0
  -30.3462  -17.1587   21.4865 H   0  0  0  0  0  0
  -30.8692  -23.4797   20.3711 H   0  0  0  0  0  0
  -29.4032  -24.0102   19.5822 H   0  0  0  0  0  0
  -27.1538  -23.8061   20.7738 H   0  0  0  0  0  0
  -27.0995  -23.2955   22.4397 H   0  0  0  0  0  0
  -30.7710  -25.9545   20.3589 H   0  0  0  0  0  0
  -30.7230  -25.3456   21.9950 H   0  0  0  0  0  0
  -28.2115  -25.3054   23.1988 H   0  0  0  0  0  0
  -26.8745  -25.7892   22.2165 H   0  0  0  0  0  0
  -29.5927  -23.1660   22.5021 H   0  0  0  0  0  0
  -29.0977  -27.0696   21.9129 H   0  0  0  0  0  0
  -30.3491  -16.0055   17.3526 H   0  0  0  0  0  0
  -31.4647  -14.7638   17.8492 H   0  0  0  0  0  0
  -31.7126  -16.4298   18.3788 H   0  0  0  0  0  0
  -26.4243  -16.9385   16.7067 H   0  0  0  0  0  0
  -27.4419  -15.8637   15.7751 H   0  0  0  0  0  0
  -28.0675  -17.4308   16.2720 H   0  0  0  0  0  0
  -29.9923  -21.3252   20.8295 H   0  0  0  0  0  0
  -28.3895  -21.5554   20.2079 H   0  0  0  0  0  0
  -27.3998  -20.6262   22.2605 H   0  0  0  0  0  0
  -28.8045  -21.0452   23.1803 H   0  0  0  0  0  0
  1 25  1  0  0  0
  1 30  2  0  0  0
  1 87  1  0  0  0
  2  3  1  0  0  0
  2 25  1  0  0  0
  2 90  1  0  0  0
  2 91  1  0  0  0
  3  4  1  0  0  0
  3 92  1  0  0  0
  3 93  1  0  0  0
  4  5  1  0  0  0
  4 94  1  0  0  0
  4 95  1  0  0  0
  5  6  1  0  0  0
  5 26  1  0  0  0
  5 96  1  0  0  0
  6 25  1  0  0  0
  6 97  1  0  0  0
  6 98  1  0  0  0
  7  8  2  0  0  0
  7 26  1  0  0  0
  7 29  1  0  0  0
  8  9  1  0  0  0
  8 22  1  0  0  0
  9 10  1  0  0  0
  9 27  2  0  0  0
 10 11  2  0  0  0
 10 15  1  0  0  0
 11 12  1  0  0  0
 11 99  1  0  0  0
 12 13  2  0  0  0
 12100  1  0  0  0
 13 14  1  0  0  0
 13 31  1  0  0  0
 14 15  2  0  0  0
 14101  1  0  0  0
 15102  1  0  0  0
 16 17  2  0  0  0
 16 21  1  0  0  0
 16 31  1  0  0  0
 17 18  1  0  0  0
 17103  1  0  0  0
 18 19  2  0  0  0
 18104  1  0  0  0
 19 20  1  0  0  0
 19 24  1  0  0  0
 20 21  2  0  0  0
 20105  1  0  0  0
 21 23  1  0  0  0
 22 28  1  0  0  0
 22 32  2  0  0  0
 26 27  1  0  0  0
 28106  1  0  0  0
 28107  1  0  0  0
 29108  1  0  0  0
 29109  1  0  0  0
 33 34  1  0  0  0
 33 66  1  0  0  0
 33 70  2  0  0  0
 34 36  1  0  0  0
 34 59  1  0  0  0
 34110  1  0  0  0
 35 44  2  0  0  0
 35 45  1  0  0  0
 35 68  1  0  0  0
 36 56  1  0  0  0
 36111  1  0  0  0
 37 39  1  0  0  0
 37 47  1  0  0  0
 37 66  1  0  0  0
 37112  1  0  0  0
 38 43  2  0  0  0
 38 46  1  0  0  0
 38 47  1  0  0  0
 39 64  1  0  0  0
 39 67  2  0  0  0
 40 52  1  0  0  0
 40 53  2  0  0  0
 40 58  1  0  0  0
 41113  1  0  0  0
 41114  1  0  0  0
 41115  1  0  0  0
 41 48  1  0  0  0
 42 43  1  0  0  0
 42 66  1  0  0  0
 42116  1  0  0  0
 42117  1  0  0  0
 43 44  1  0  0  0
 44118  1  0  0  0
 45 46  2  0  0  0
 45119  1  0  0  0
 46120  1  0  0  0
 47121  1  0  0  0
 47122  1  0  0  0
 48 56  1  0  0  0
 48 65  1  0  0  0
 48123  1  0  0  0
 49 50  1  0  0  0
 49 53  1  0  0  0
 49 64  1  0  0  0
 49124  1  0  0  0
 50 51  1  0  0  0
 50125  1  0  0  0
 50126  1  0  0  0
 51 52  1  0  0  0
 51127  1  0  0  0
 51128  1  0  0  0
 52129  1  0  0  0
 52130  1  0  0  0
 53 54  1  0  0  0
 54 55  2  0  0  0
 54131  1  0  0  0
 55 57  1  0  0  0
 55132  1  0  0  0
 56 69  2  0  0  0
 57 58  2  0  0  0
 57133  1  0  0  0
 58134  1  0  0  0
 59 60  1  0  0  0
 59 61  1  0  0  0
 59 62  1  0  0  0
 60135  1  0  0  0
 60136  1  0  0  0
 60137  1  0  0  0
 61138  1  0  0  0
 61139  1  0  0  0
 61140  1  0  0  0
 62141  1  0  0  0
 62142  1  0  0  0
 62143  1  0  0  0
 63 65  1  0  0  0
 63144  1  0  0  0
 63145  1  0  0  0
 63146  1  0  0  0
 64147  1  0  0  0
 65148  1  0  0  0
 68 82  1  0  0  0
 71 72  2  0  0  0
 71 75  1  0  0  0
 71149  1  0  0  0
 72 76  1  0  0  0
 72150  1  0  0  0
 73 74  1  0  0  0
 73 75  2  0  0  0
 73151  1  0  0  0
 74 76  2  0  0  0
 74 87  1  0  0  0
 75 89  1  0  0  0
 76 88  1  0  0  0
 77 79  1  0  0  0
 77 81  1  0  0  0
 77152  1  0  0  0
 77153  1  0  0  0
 78 80  1  0  0  0
 78 81  1  0  0  0
 78154  1  0  0  0
 78155  1  0  0  0
 79 82  1  0  0  0
 79156  1  0  0  0
 79157  1  0  0  0
 80 82  1  0  0  0
 80158  1  0  0  0
 80159  1  0  0  0
 81 85  1  0  0  0
 81160  1  0  0  0
 82161  1  0  0  0
 83 87  1  0  0  0
 83162  1  0  0  0
 83163  1  0  0  0
 83164  1  0  0  0
 84 88  1  0  0  0
 84165  1  0  0  0
 84166  1  0  0  0
 84167  1  0  0  0
 85 86  1  0  0  0
 85168  1  0  0  0
 85169  1  0  0  0
 86 89  1  0  0  0
 86170  1  0  0  0
 86171  1  0  0  0
M  ISO  4   1 100  68 101  82 101  87 100
M  END
> <chiral flag>
0

> <version>
0

> <s_m_source_file>
/data/baiqing/PycharmProjects/Reinvent-master-3.2/result/LINK_invent/BTK/process_docking_weight1_custom_sum_contain_oxygen_bond_distance_aromatic_linkinvent_7_9_3/rearranged_h_0142.sdf

> <i_m_source_file_index>
76

> <r_mmod_Potential_Energy-OPLS-2005>
254.005859375

> <r_mmod_Stretch_Energy-OPLS-2005>
42.8525581359863

> <r_mmod_Bend_Energy-OPLS-2005>
125.880485534668

> <r_mmod_Torsional_Energy-OPLS-2005>
373.020751953125

> <r_mmod_Improper_Torsional_Energy-OPLS-2005>
29.548131942749

> <r_mmod_Van_der_Waal_Energy-OPLS-2005>
149.88200378418

> <r_mmod_Electrostatic_Energy-OPLS-2005>
-332.520660400391

> <r_mmod_Solvation_Energy-OPLS-2005>
-187.058868408203

> <b_mmod_Minimization_Converged-OPLS-2005>
0

> <r_mmod_RMS_Derivative-OPLS-2005>
5.14825677871704

$$$$
77
                    3D
 Structure written by MMmdl.
166175  0  0  1  0            999 V2000
  -30.5130  -14.9281   20.4272 C   0  0  0  0  0  0
  -30.4490  -12.5726   19.4955 C   0  0  0  0  0  0
  -29.5248  -12.5408   18.2547 C   0  0  0  0  0  0
  -28.0558  -12.3274   18.6682 C   0  0  0  0  0  0
  -27.6355  -13.2441   19.8465 C   0  0  2  0  0  0
  -28.6789  -13.2330   20.9850 C   0  0  0  0  0  0
  -25.2474  -13.8200   20.5702 C   0  0  0  0  0  0
  -24.1786  -13.0428   20.9206 C   0  0  0  0  0  0
  -24.6402  -11.6914   20.8740 C   0  0  0  0  0  0
  -23.9082  -10.4289   21.0405 C   0  0  0  0  0  0
  -24.3626   -9.4202   21.9187 C   0  0  0  0  0  0
  -23.6296   -8.2241   22.0758 C   0  0  0  0  0  0
  -22.4280   -8.0279   21.3543 C   0  0  0  0  0  0
  -21.9918   -9.0254   20.4646 C   0  0  0  0  0  0
  -22.7252  -10.2130   20.3056 C   0  0  0  0  0  0
  -21.6856   -6.0732   22.5277 C   0  0  0  0  0  0
  -21.4019   -6.5637   23.8210 C   0  0  0  0  0  0
  -21.3663   -5.6793   24.9176 C   0  0  0  0  0  0
  -21.6041   -4.3054   24.7227 C   0  0  0  0  0  0
  -21.8823   -3.8141   23.4351 C   0  0  0  0  0  0
  -21.9193   -4.6958   22.3405 C   0  0  0  0  0  0
  -22.7808  -13.5199   21.1869 C   0  0  0  0  0  0
  -22.1659   -4.2142   21.0986 F   0  0  0  0  0  0
  -21.5627   -3.4541   25.7741 F   0  0  0  0  0  0
  -29.9607  -13.6504   20.3993 N   0  0  0  0  0  0
  -26.2908  -12.9432   20.3257 N   0  0  0  0  0  0
  -25.9337  -11.6562   20.5736 N   0  0  0  0  0  0
  -22.0461  -12.8188   22.0426 N   0  0  0  0  0  0
  -25.4138  -15.1931   20.4157 N   0  0  0  0  0  0
  -31.7041  -15.0522   20.1238 O   0  0  0  0  0  0
  -21.6643   -6.8877   21.4240 O   0  0  0  0  0  0
  -22.3485  -14.5505   20.6720 O   0  0  0  0  0  0
  -24.6423  -31.8444   23.1874 C   0  0  0  0  0  0
  -25.9201  -32.4697   23.8259 C   0  0  1  0  0  0
  -27.2227  -27.1439   20.1586 C   0  0  0  0  0  0
  -25.5954  -33.8503   24.2183 N   0  0  0  0  0  0
  -23.4460  -30.4625   21.5327 C   0  0  2  0  0  0
  -24.8971  -28.8843   20.1147 C   0  0  0  0  0  0
  -22.7553  -29.4559   22.4860 C   0  0  0  0  0  0
  -18.0302  -28.1396   22.8485 C   0  0  0  0  0  0
  -24.1494  -36.7258   23.2643 C   0  0  0  0  0  0
  -26.0004  -30.7211   21.3840 C   0  0  0  0  0  0
  -26.0737  -29.3308   20.7304 C   0  0  0  0  0  0
  -27.2404  -28.4787   20.7295 C   0  0  0  0  0  0
  -26.0214  -26.7919   19.5098 C   0  0  0  0  0  0
  -24.8832  -27.6283   19.4879 C   0  0  0  0  0  0
  -23.6727  -29.7866   20.1539 C   0  0  0  0  0  0
  -25.4127  -36.3033   24.0312 C   0  0  1  0  0  0
  -20.5912  -28.3730   23.1242 C   0  0  2  0  0  0
  -20.6792  -26.9435   22.5412 C   0  0  0  0  0  0
  -19.5766  -26.6389   21.5220 C   0  0  0  0  0  0
  -18.1945  -26.7938   22.1624 C   0  0  0  0  0  0
  -19.1556  -28.8879   23.2856 C   0  0  0  0  0  0
  -18.9472  -30.1472   23.8887 C   0  0  0  0  0  0
  -17.6470  -30.6597   24.0563 C   0  0  0  0  0  0
  -25.9075  -34.9408   23.5056 C   0  0  0  0  0  0
  -16.5364  -29.9091   23.6334 C   0  0  0  0  0  0
  -16.7285  -28.6502   23.0367 C   0  0  0  0  0  0
  -26.4525  -31.6563   25.0697 C   0  0  0  0  0  0
  -25.3713  -31.3750   26.1392 C   0  0  0  0  0  0
  -27.0392  -30.2960   24.6273 C   0  0  0  0  0  0
  -27.6049  -32.4332   25.7491 C   0  0  0  0  0  0
  -27.5577  -37.1784   24.8459 C   0  0  0  0  0  0
  -21.4246  -29.3055   22.3606 N   0  0  0  0  0  0
  -26.4288  -37.3747   23.9405 N   0  0  0  0  0  0
  -24.7160  -31.0304   22.0903 N   0  0  0  0  0  0
  -23.4192  -28.8114   23.3019 O   0  0  0  0  0  0
  -28.2936  -26.1820   20.1625 O   0  0  0  0  0  0
  -26.5659  -34.8909   22.4632 O   0  0  0  0  0  0
  -23.5545  -32.1320   23.7100 O   0  0  0  0  0  0
  -29.0697  -19.7800   19.3981 C   0  0  0  0  0  0
  -29.8443  -18.4416   21.6290 C   0  0  0  0  0  0
  -29.2851  -18.3336   19.3481 C   0  0  0  0  0  0
  -29.6990  -17.5675   20.5035 C   0  0  0  0  0  0
  -29.2121  -20.5537   20.5885 C   0  0  0  0  0  0
  -30.8874  -17.4413   16.4121 C   0  0  0  0  0  0
  -27.4326  -17.5522   17.7683 C   0  0  0  0  0  0
  -28.4947  -18.0505   15.6657 C   0  0  0  0  0  0
  -28.9381  -17.6005   18.0524 C   0  0  1  0  0  0
  -29.5833  -18.1751   16.7629 C   0  0  1  0  0  0
  -27.3518  -17.2292   16.2771 C   0  0  2  0  0  0
  -25.9774  -17.5145   15.6580 C   0  0  0  0  0  0
  -28.8018  -23.2890   19.9792 C   0  0  0  0  0  0
  -28.0884  -24.6980   20.5858 C   0  0  0  0  0  0
  -29.6151  -19.8157   21.6687 N   0  0  0  0  0  0
  -29.6561  -16.0370   20.6391 N   0  0  0  0  0  0
  -28.8983  -21.9851   20.8271 N   0  0  0  0  0  0
  -30.8359  -16.2944   15.9224 O   0  5  0  0  0  0
  -31.9669  -18.0340   16.6108 O   0  0  0  0  0  0
  -31.4818  -12.7418   19.1866 H   0  0  0  0  0  0
  -30.4441  -11.6096   20.0081 H   0  0  0  0  0  0
  -29.8379  -11.7543   17.5668 H   0  0  0  0  0  0
  -29.6172  -13.4810   17.7073 H   0  0  0  0  0  0
  -27.9434  -11.2819   18.9576 H   0  0  0  0  0  0
  -27.3956  -12.4799   17.8140 H   0  0  0  0  0  0
  -27.6085  -14.2544   19.4371 H   0  0  0  0  0  0
  -28.7581  -12.2420   21.4337 H   0  0  0  0  0  0
  -28.3822  -13.9083   21.7891 H   0  0  0  0  0  0
  -25.2778   -9.5670   22.4754 H   0  0  0  0  0  0
  -23.9996   -7.4638   22.7488 H   0  0  0  0  0  0
  -21.0844   -8.8781   19.8957 H   0  0  0  0  0  0
  -22.3717  -10.9669   19.6160 H   0  0  0  0  0  0
  -21.2019   -7.6147   23.9709 H   0  0  0  0  0  0
  -21.1479   -6.0528   25.9078 H   0  0  0  0  0  0
  -22.0600   -2.7600   23.2860 H   0  0  0  0  0  0
  -22.4089  -11.9856   22.4811 H   0  0  0  0  0  0
  -21.1078  -13.1208   22.2639 H   0  0  0  0  0  0
  -24.6404  -15.8400   20.5235 H   0  0  0  0  0  0
  -26.2542  -15.6375   20.0739 H   0  0  0  0  0  0
  -26.7265  -32.5309   23.0987 H   0  0  0  0  0  0
  -25.0080  -33.9615   25.0317 H   0  0  0  0  0  0
  -22.7489  -31.2880   21.3754 H   0  0  0  0  0  0
  -23.3762  -35.9581   23.3281 H   0  0  0  0  0  0
  -24.3577  -36.8918   22.2061 H   0  0  0  0  0  0
  -23.7246  -37.6446   23.6698 H   0  0  0  0  0  0
  -26.1525  -31.4747   20.6100 H   0  0  0  0  0  0
  -26.8719  -30.7744   22.0250 H   0  0  0  0  0  0
  -28.1428  -28.8222   21.2156 H   0  0  0  0  0  0
  -25.9503  -25.8311   19.0200 H   0  0  0  0  0  0
  -23.9868  -27.2835   18.9909 H   0  0  0  0  0  0
  -23.8078  -30.5584   19.3950 H   0  0  0  0  0  0
  -22.7885  -29.2259   19.8460 H   0  0  0  0  0  0
  -25.1317  -36.1856   25.0803 H   0  0  0  0  0  0
  -21.0003  -28.3332   24.1363 H   0  0  0  0  0  0
  -20.5702  -26.2343   23.3629 H   0  0  0  0  0  0
  -21.6657  -26.7455   22.1206 H   0  0  0  0  0  0
  -19.6935  -25.6296   21.1263 H   0  0  0  0  0  0
  -19.6708  -27.3184   20.6737 H   0  0  0  0  0  0
  -17.4222  -26.6695   21.4019 H   0  0  0  0  0  0
  -18.0334  -26.0078   22.9015 H   0  0  0  0  0  0
  -19.7948  -30.7287   24.2263 H   0  0  0  0  0  0
  -17.5026  -31.6277   24.5164 H   0  0  0  0  0  0
  -15.5363  -30.2993   23.7663 H   0  0  0  0  0  0
  -15.8685  -28.0810   22.7106 H   0  0  0  0  0  0
  -24.5891  -30.7101   25.7710 H   0  0  0  0  0  0
  -24.8903  -32.2934   26.4767 H   0  0  0  0  0  0
  -25.7996  -30.8953   27.0202 H   0  0  0  0  0  0
  -26.3005  -29.6678   24.1281 H   0  0  0  0  0  0
  -27.4012  -29.7259   25.4842 H   0  0  0  0  0  0
  -27.8907  -30.4192   23.9577 H   0  0  0  0  0  0
  -27.2630  -33.3650   26.2010 H   0  0  0  0  0  0
  -28.3895  -32.6872   25.0351 H   0  0  0  0  0  0
  -28.0677  -31.8498   26.5463 H   0  0  0  0  0  0
  -28.2579  -38.0097   24.7518 H   0  0  0  0  0  0
  -28.1093  -36.2627   24.6273 H   0  0  0  0  0  0
  -27.2290  -37.1411   25.8860 H   0  0  0  0  0  0
  -20.9454  -29.8745   21.6766 H   0  0  0  0  0  0
  -26.0152  -38.2811   24.1421 H   0  0  0  0  0  0
  -28.7170  -20.2863   18.5109 H   0  0  0  0  0  0
  -30.0871  -18.0069   22.5878 H   0  0  0  0  0  0
  -26.9812  -18.5277   17.9570 H   0  0  0  0  0  0
  -26.9135  -16.8239   18.3908 H   0  0  0  0  0  0
  -28.8570  -17.5999   14.7402 H   0  0  0  0  0  0
  -28.1422  -19.0490   15.4042 H   0  0  0  0  0  0
  -29.2590  -16.5631   18.1521 H   0  0  0  0  0  0
  -29.8104  -19.2357   16.8739 H   0  0  0  0  0  0
  -27.5831  -16.1702   16.1466 H   0  0  0  0  0  0
  -25.7044  -18.5661   15.7520 H   0  0  0  0  0  0
  -25.1993  -16.9267   16.1463 H   0  0  0  0  0  0
  -25.9647  -17.2619   14.5974 H   0  0  0  0  0  0
  -29.8292  -23.5393   19.7147 H   0  0  0  0  0  0
  -28.3205  -23.0380   19.0338 H   0  0  0  0  0  0
  -28.3710  -24.7199   21.6384 H   0  0  0  0  0  0
  -27.0158  -24.5074   20.6174 H   0  0  0  0  0  0
  -28.7444  -15.7075   20.9201 H   0  0  0  0  0  0
  -28.9681  -22.2118   21.8137 H   0  0  0  0  0  0
  1 25  1  0  0  0
  1 30  2  0  0  0
  1 86  1  0  0  0
  2  3  1  0  0  0
  2 25  1  0  0  0
  2 90  1  0  0  0
  2 91  1  0  0  0
  3  4  1  0  0  0
  3 92  1  0  0  0
  3 93  1  0  0  0
  4  5  1  0  0  0
  4 94  1  0  0  0
  4 95  1  0  0  0
  5  6  1  0  0  0
  5 26  1  0  0  0
  5 96  1  0  0  0
  6 25  1  0  0  0
  6 97  1  0  0  0
  6 98  1  0  0  0
  7  8  2  0  0  0
  7 26  1  0  0  0
  7 29  1  0  0  0
  8  9  1  0  0  0
  8 22  1  0  0  0
  9 10  1  0  0  0
  9 27  2  0  0  0
 10 11  2  0  0  0
 10 15  1  0  0  0
 11 12  1  0  0  0
 11 99  1  0  0  0
 12 13  2  0  0  0
 12100  1  0  0  0
 13 14  1  0  0  0
 13 31  1  0  0  0
 14 15  2  0  0  0
 14101  1  0  0  0
 15102  1  0  0  0
 16 17  2  0  0  0
 16 21  1  0  0  0
 16 31  1  0  0  0
 17 18  1  0  0  0
 17103  1  0  0  0
 18 19  2  0  0  0
 18104  1  0  0  0
 19 20  1  0  0  0
 19 24  1  0  0  0
 20 21  2  0  0  0
 20105  1  0  0  0
 21 23  1  0  0  0
 22 28  1  0  0  0
 22 32  2  0  0  0
 26 27  1  0  0  0
 28106  1  0  0  0
 28107  1  0  0  0
 29108  1  0  0  0
 29109  1  0  0  0
 33 34  1  0  0  0
 33 66  1  0  0  0
 33 70  2  0  0  0
 34 36  1  0  0  0
 34 59  1  0  0  0
 34110  1  0  0  0
 35 44  2  0  0  0
 35 45  1  0  0  0
 35 68  1  0  0  0
 36 56  1  0  0  0
 36111  1  0  0  0
 37 39  1  0  0  0
 37 47  1  0  0  0
 37 66  1  0  0  0
 37112  1  0  0  0
 38 43  2  0  0  0
 38 46  1  0  0  0
 38 47  1  0  0  0
 39 64  1  0  0  0
 39 67  2  0  0  0
 40 52  1  0  0  0
 40 53  2  0  0  0
 40 58  1  0  0  0
 41113  1  0  0  0
 41114  1  0  0  0
 41115  1  0  0  0
 41 48  1  0  0  0
 42 43  1  0  0  0
 42 66  1  0  0  0
 42116  1  0  0  0
 42117  1  0  0  0
 43 44  1  0  0  0
 44118  1  0  0  0
 45 46  2  0  0  0
 45119  1  0  0  0
 46120  1  0  0  0
 47121  1  0  0  0
 47122  1  0  0  0
 48 56  1  0  0  0
 48 65  1  0  0  0
 48123  1  0  0  0
 49 50  1  0  0  0
 49 53  1  0  0  0
 49 64  1  0  0  0
 49124  1  0  0  0
 50 51  1  0  0  0
 50125  1  0  0  0
 50126  1  0  0  0
 51 52  1  0  0  0
 51127  1  0  0  0
 51128  1  0  0  0
 52129  1  0  0  0
 52130  1  0  0  0
 53 54  1  0  0  0
 54 55  2  0  0  0
 54131  1  0  0  0
 55 57  1  0  0  0
 55132  1  0  0  0
 56 69  2  0  0  0
 57 58  2  0  0  0
 57133  1  0  0  0
 58134  1  0  0  0
 59 60  1  0  0  0
 59 61  1  0  0  0
 59 62  1  0  0  0
 60135  1  0  0  0
 60136  1  0  0  0
 60137  1  0  0  0
 61138  1  0  0  0
 61139  1  0  0  0
 61140  1  0  0  0
 62141  1  0  0  0
 62142  1  0  0  0
 62143  1  0  0  0
 63 65  1  0  0  0
 63144  1  0  0  0
 63145  1  0  0  0
 63146  1  0  0  0
 64147  1  0  0  0
 65148  1  0  0  0
 68 84  1  0  0  0
 71 73  2  0  0  0
 71 75  1  0  0  0
 71149  1  0  0  0
 72 74  2  0  0  0
 72 85  1  0  0  0
 72150  1  0  0  0
 73 74  1  0  0  0
 73 79  1  0  0  0
 74 86  1  0  0  0
 75 85  2  0  0  0
 75 87  1  0  0  0
 76 88  1  0  0  0
 76 89  2  0  0  0
 76 80  1  0  0  0
 77 79  1  0  0  0
 77 81  1  0  0  0
 77151  1  0  0  0
 77152  1  0  0  0
 78 80  1  0  0  0
 78 81  1  0  0  0
 78153  1  0  0  0
 78154  1  0  0  0
 79 80  1  0  0  0
 79155  1  0  0  0
 80156  1  0  0  0
 81 82  1  0  0  0
 81157  1  0  0  0
 82158  1  0  0  0
 82159  1  0  0  0
 82160  1  0  0  0
 83 84  1  0  0  0
 83 87  1  0  0  0
 83161  1  0  0  0
 83162  1  0  0  0
 84163  1  0  0  0
 84164  1  0  0  0
 86165  1  0  0  0
 87166  1  0  0  0
M  CHG  1  88  -1
M  ISO  4   1 100  68 101  84 101  86 100
M  END
> <chiral flag>
0

> <version>
0

> <s_m_source_file>
/data/baiqing/PycharmProjects/Reinvent-master-3.2/result/LINK_invent/BTK/process_docking_weight1_custom_sum_contain_oxygen_bond_distance_aromatic_linkinvent_7_9_3/rearranged_h_0142.sdf

> <i_m_source_file_index>
77

> <r_mmod_Potential_Energy-OPLS-2005>
-96.2621383666992

> <r_mmod_Stretch_Energy-OPLS-2005>
220.320877075195

> <r_mmod_Bend_Energy-OPLS-2005>
303.200439453125

> <r_mmod_Torsional_Energy-OPLS-2005>
290.625549316406

> <r_mmod_Improper_Torsional_Energy-OPLS-2005>
7.53021574020386

> <r_mmod_Van_der_Waal_Energy-OPLS-2005>
117.769653320312

> <r_mmod_Electrostatic_Energy-OPLS-2005>
-650.254577636719

> <r_mmod_Solvation_Energy-OPLS-2005>
-564.152709960938

> <b_mmod_Minimization_Converged-OPLS-2005>
0

> <r_mmod_RMS_Derivative-OPLS-2005>
0.860762238502502

$$$$
78
                    3D
 Structure written by MMmdl.
170180  0  0  1  0            999 V2000
  -30.5787  -15.0629   20.3947 C   0  0  0  0  0  0
  -30.4138  -12.6781   19.5031 C   0  0  0  0  0  0
  -29.5101  -12.5376   18.2602 C   0  0  0  0  0  0
  -28.0531  -12.3039   18.6907 C   0  0  0  0  0  0
  -27.6105  -13.2680   19.8223 C   0  0  2  0  0  0
  -28.6523  -13.3978   20.9526 C   0  0  0  0  0  0
  -25.2368  -13.8250   20.5741 C   0  0  0  0  0  0
  -24.1721  -13.0441   20.9257 C   0  0  0  0  0  0
  -24.6378  -11.6937   20.8778 C   0  0  0  0  0  0
  -23.9080  -10.4292   21.0418 C   0  0  0  0  0  0
  -24.3629   -9.4201   21.9188 C   0  0  0  0  0  0
  -23.6299   -8.2240   22.0758 C   0  0  0  0  0  0
  -22.4280   -8.0280   21.3548 C   0  0  0  0  0  0
  -21.9920   -9.0253   20.4654 C   0  0  0  0  0  0
  -22.7255  -10.2124   20.3062 C   0  0  0  0  0  0
  -21.6852   -6.0734   22.5277 C   0  0  0  0  0  0
  -21.4017   -6.5638   23.8209 C   0  0  0  0  0  0
  -21.3662   -5.6790   24.9170 C   0  0  0  0  0  0
  -21.6040   -4.3051   24.7222 C   0  0  0  0  0  0
  -21.8820   -3.8148   23.4344 C   0  0  0  0  0  0
  -21.9195   -4.6961   22.3397 C   0  0  0  0  0  0
  -22.7739  -13.5195   21.1894 C   0  0  0  0  0  0
  -22.1664   -4.2150   21.0976 F   0  0  0  0  0  0
  -21.5627   -3.4537   25.7737 F   0  0  0  0  0  0
  -29.9023  -13.8326   20.3168 N   0  0  0  0  0  0
  -26.2801  -12.9525   20.3238 N   0  0  0  0  0  0
  -25.9312  -11.6632   20.5752 N   0  0  0  0  0  0
  -22.0402  -12.8179   22.0452 N   0  0  0  0  0  0
  -25.3986  -15.1975   20.4151 N   0  0  0  0  0  0
  -31.8007  -14.9603   20.2191 O   0  0  0  0  0  0
  -21.6640   -6.8878   21.4241 O   0  0  0  0  0  0
  -22.3419  -14.5497   20.6739 O   0  0  0  0  0  0
  -24.6487  -31.8358   23.1795 C   0  0  0  0  0  0
  -25.9229  -32.4649   23.8219 C   0  0  1  0  0  0
  -27.2169  -27.0594   20.1740 C   0  0  0  0  0  0
  -25.5949  -33.8458   24.2132 N   0  0  0  0  0  0
  -23.4562  -30.4497   21.5257 C   0  0  2  0  0  0
  -24.9059  -28.8528   20.1120 C   0  0  0  0  0  0
  -22.7592  -29.4501   22.4832 C   0  0  0  0  0  0
  -18.0307  -28.1402   22.8475 C   0  0  0  0  0  0
  -24.1491  -36.7236   23.2646 C   0  0  0  0  0  0
  -26.0138  -30.6842   21.3890 C   0  0  0  0  0  0
  -26.0813  -29.2844   20.7384 C   0  0  0  0  0  0
  -27.2321  -28.4031   20.7501 C   0  0  0  0  0  0
  -26.0186  -26.7391   19.5042 C   0  0  0  0  0  0
  -24.8906  -27.5968   19.4790 C   0  0  0  0  0  0
  -23.6871  -29.7669   20.1490 C   0  0  0  0  0  0
  -25.4126  -36.3005   24.0310 C   0  0  1  0  0  0
  -20.5923  -28.3732   23.1224 C   0  0  2  0  0  0
  -20.6788  -26.9428   22.5407 C   0  0  0  0  0  0
  -19.5762  -26.6382   21.5214 C   0  0  0  0  0  0
  -18.1944  -26.7939   22.1624 C   0  0  0  0  0  0
  -19.1566  -28.8883   23.2840 C   0  0  0  0  0  0
  -18.9483  -30.1480   23.8868 C   0  0  0  0  0  0
  -17.6477  -30.6595   24.0559 C   0  0  0  0  0  0
  -25.9082  -34.9383   23.5039 C   0  0  0  0  0  0
  -16.5368  -29.9088   23.6339 C   0  0  0  0  0  0
  -16.7293  -28.6511   23.0355 C   0  0  0  0  0  0
  -26.4529  -31.6551   25.0697 C   0  0  0  0  0  0
  -25.3697  -31.3763   26.1385 C   0  0  0  0  0  0
  -27.0409  -30.2939   24.6335 C   0  0  0  0  0  0
  -27.6045  -32.4338   25.7487 C   0  0  0  0  0  0
  -27.5573  -37.1773   24.8465 C   0  0  0  0  0  0
  -21.4278  -29.3041   22.3582 N   0  0  0  0  0  0
  -26.4281  -37.3728   23.9411 N   0  0  0  0  0  0
  -24.7264  -31.0146   22.0857 N   0  0  0  0  0  0
  -23.4203  -28.8069   23.3024 O   0  0  0  0  0  0
  -28.2994  -26.0881   20.2232 O   0  0  0  0  0  0
  -26.5681  -34.8899   22.4628 O   0  0  0  0  0  0
  -23.5594  -32.1268   23.6976 O   0  0  0  0  0  0
  -28.3834  -22.2148   21.1762 C   0  0  0  0  0  0
  -28.1303  -23.6619   21.1945 C   0  0  0  0  0  0
  -28.8786  -21.4477   20.0583 C   0  0  0  0  0  0
  -28.8468  -23.8503   18.9663 C   0  0  0  0  0  0
  -29.0598  -22.3723   18.9366 C   0  0  0  0  0  0
  -28.3348  -24.5949   20.1081 C   0  0  0  0  0  0
  -30.2833  -26.0484   16.4762 C   0  0  0  0  0  0
  -29.2886  -26.2134   17.6224 C   0  0  0  0  0  0
  -30.5956  -24.6780   17.0763 C   0  0  0  0  0  0
  -30.5065  -19.1587   20.7031 C   0  0  0  0  0  0
  -28.2404  -18.5879   20.4842 C   0  0  0  0  0  0
  -30.9492  -17.6235   20.3727 C   0  0  0  0  0  0
  -28.6207  -16.9868   20.2518 C   0  0  0  0  0  0
  -29.2199  -19.7662   20.0183 C   0  0  0  0  0  0
  -29.1806  -24.6719   17.6994 C   0  0  0  0  0  0
  -30.9844  -21.3564   17.5602 C   0  0  0  0  0  0
  -29.4905  -21.7260   17.6125 C   0  0  0  0  0  0
  -30.0180  -16.4162   20.4657 N   0  0  0  0  0  0
  -31.4458  -12.8169   19.1777 H   0  0  0  0  0  0
  -30.4156  -11.7578   20.0898 H   0  0  0  0  0  0
  -29.8534  -11.7174   17.6279 H   0  0  0  0  0  0
  -29.5742  -13.4427   17.6541 H   0  0  0  0  0  0
  -27.9760  -11.2728   19.0372 H   0  0  0  0  0  0
  -27.3841  -12.3886   17.8334 H   0  0  0  0  0  0
  -27.5404  -14.2461   19.3448 H   0  0  0  0  0  0
  -28.7788  -12.4570   21.4903 H   0  0  0  0  0  0
  -28.3314  -14.1376   21.6866 H   0  0  0  0  0  0
  -25.2772   -9.5674   22.4764 H   0  0  0  0  0  0
  -24.0006   -7.4629   22.7475 H   0  0  0  0  0  0
  -21.0850   -8.8777   19.8958 H   0  0  0  0  0  0
  -22.3720  -10.9663   19.6172 H   0  0  0  0  0  0
  -21.2013   -7.6146   23.9712 H   0  0  0  0  0  0
  -21.1486   -6.0518   25.9069 H   0  0  0  0  0  0
  -22.0600   -2.7611   23.2840 H   0  0  0  0  0  0
  -22.4047  -11.9853   22.4843 H   0  0  0  0  0  0
  -21.1019  -13.1197   22.2673 H   0  0  0  0  0  0
  -24.6281  -15.8466   20.5317 H   0  0  0  0  0  0
  -26.2440  -15.6417   20.0833 H   0  0  0  0  0  0
  -26.7293  -32.5228   23.0941 H   0  0  0  0  0  0
  -25.0051  -33.9556   25.0251 H   0  0  0  0  0  0
  -22.7627  -31.2771   21.3627 H   0  0  0  0  0  0
  -23.3761  -35.9559   23.3287 H   0  0  0  0  0  0
  -24.3571  -36.8898   22.2064 H   0  0  0  0  0  0
  -23.7241  -37.6421   23.6705 H   0  0  0  0  0  0
  -26.1774  -31.4302   20.6100 H   0  0  0  0  0  0
  -26.8814  -30.7390   22.0352 H   0  0  0  0  0  0
  -28.1312  -28.7303   21.2528 H   0  0  0  0  0  0
  -25.9399  -25.7756   19.0207 H   0  0  0  0  0  0
  -23.9939  -27.2627   18.9756 H   0  0  0  0  0  0
  -23.8324  -30.5354   19.3890 H   0  0  0  0  0  0
  -22.7995  -29.2133   19.8376 H   0  0  0  0  0  0
  -25.1319  -36.1815   25.0801 H   0  0  0  0  0  0
  -21.0015  -28.3331   24.1345 H   0  0  0  0  0  0
  -20.5674  -26.2348   23.3634 H   0  0  0  0  0  0
  -21.6655  -26.7422   22.1212 H   0  0  0  0  0  0
  -19.6922  -25.6283   21.1267 H   0  0  0  0  0  0
  -19.6700  -27.3173   20.6728 H   0  0  0  0  0  0
  -17.4212  -26.6682   21.4028 H   0  0  0  0  0  0
  -18.0342  -26.0091   22.9030 H   0  0  0  0  0  0
  -19.7955  -30.7302   24.2229 H   0  0  0  0  0  0
  -17.5029  -31.6271   24.5168 H   0  0  0  0  0  0
  -15.5366  -30.2979   23.7677 H   0  0  0  0  0  0
  -15.8694  -28.0816   22.7085 H   0  0  0  0  0  0
  -24.5869  -30.7125   25.7696 H   0  0  0  0  0  0
  -24.8897  -32.2955   26.4753 H   0  0  0  0  0  0
  -25.7962  -30.8961   27.0202 H   0  0  0  0  0  0
  -26.3041  -29.6640   24.1339 H   0  0  0  0  0  0
  -27.3989  -29.7267   25.4937 H   0  0  0  0  0  0
  -27.8961  -30.4152   23.9686 H   0  0  0  0  0  0
  -27.2623  -33.3659   26.1997 H   0  0  0  0  0  0
  -28.3890  -32.6872   25.0343 H   0  0  0  0  0  0
  -28.0683  -31.8517   26.5463 H   0  0  0  0  0  0
  -28.2577  -38.0081   24.7514 H   0  0  0  0  0  0
  -28.1083  -36.2611   24.6287 H   0  0  0  0  0  0
  -27.2293  -37.1414   25.8868 H   0  0  0  0  0  0
  -20.9504  -29.8732   21.6729 H   0  0  0  0  0  0
  -26.0141  -38.2792   24.1414 H   0  0  0  0  0  0
  -28.1941  -21.6739   22.0929 H   0  0  0  0  0  0
  -27.7953  -24.0828   22.1320 H   0  0  0  0  0  0
  -31.1155  -26.7530   16.4806 H   0  0  0  0  0  0
  -29.8055  -25.9870   15.4967 H   0  0  0  0  0  0
  -28.3626  -26.7306   17.3685 H   0  0  0  0  0  0
  -29.7882  -26.6766   18.4742 H   0  0  0  0  0  0
  -31.3873  -24.7238   17.8270 H   0  0  0  0  0  0
  -30.7992  -23.9121   16.3289 H   0  0  0  0  0  0
  -31.3529  -19.7978   20.4510 H   0  0  0  0  0  0
  -30.4025  -19.2630   21.7840 H   0  0  0  0  0  0
  -28.0520  -18.7273   21.5497 H   0  0  0  0  0  0
  -27.2713  -18.7617   20.0155 H   0  0  0  0  0  0
  -31.8144  -17.4119   21.0029 H   0  0  0  0  0  0
  -31.3410  -17.6166   19.3546 H   0  0  0  0  0  0
  -28.3668  -16.7417   19.2197 H   0  0  0  0  0  0
  -27.9403  -16.3943   20.8624 H   0  0  0  0  0  0
  -29.3548  -19.5361   18.9678 H   0  0  0  0  0  0
  -28.4468  -24.3754   16.9465 H   0  0  0  0  0  0
  -31.2428  -20.9448   16.5844 H   0  0  0  0  0  0
  -31.2550  -20.6103   18.3032 H   0  0  0  0  0  0
  -31.6245  -22.2195   17.7349 H   0  0  0  0  0  0
  -29.2427  -22.3419   16.7536 H   0  0  0  0  0  0
  -28.8763  -20.8471   17.4228 H   0  0  0  0  0  0
  1 25  1  0  0  0
  1 30  2  0  0  0
  1 88  1  0  0  0
  2  3  1  0  0  0
  2 25  1  0  0  0
  2 89  1  0  0  0
  2 90  1  0  0  0
  3  4  1  0  0  0
  3 91  1  0  0  0
  3 92  1  0  0  0
  4  5  1  0  0  0
  4 93  1  0  0  0
  4 94  1  0  0  0
  5  6  1  0  0  0
  5 26  1  0  0  0
  5 95  1  0  0  0
  6 25  1  0  0  0
  6 96  1  0  0  0
  6 97  1  0  0  0
  7  8  2  0  0  0
  7 26  1  0  0  0
  7 29  1  0  0  0
  8  9  1  0  0  0
  8 22  1  0  0  0
  9 10  1  0  0  0
  9 27  2  0  0  0
 10 11  2  0  0  0
 10 15  1  0  0  0
 11 12  1  0  0  0
 11 98  1  0  0  0
 12 13  2  0  0  0
 12 99  1  0  0  0
 13 14  1  0  0  0
 13 31  1  0  0  0
 14 15  2  0  0  0
 14100  1  0  0  0
 15101  1  0  0  0
 16 17  2  0  0  0
 16 21  1  0  0  0
 16 31  1  0  0  0
 17 18  1  0  0  0
 17102  1  0  0  0
 18 19  2  0  0  0
 18103  1  0  0  0
 19 20  1  0  0  0
 19 24  1  0  0  0
 20 21  2  0  0  0
 20104  1  0  0  0
 21 23  1  0  0  0
 22 28  1  0  0  0
 22 32  2  0  0  0
 26 27  1  0  0  0
 28105  1  0  0  0
 28106  1  0  0  0
 29107  1  0  0  0
 29108  1  0  0  0
 33 34  1  0  0  0
 33 66  1  0  0  0
 33 70  2  0  0  0
 34 36  1  0  0  0
 34 59  1  0  0  0
 34109  1  0  0  0
 35 44  2  0  0  0
 35 45  1  0  0  0
 35 68  1  0  0  0
 36 56  1  0  0  0
 36110  1  0  0  0
 37 39  1  0  0  0
 37 47  1  0  0  0
 37 66  1  0  0  0
 37111  1  0  0  0
 38 43  2  0  0  0
 38 46  1  0  0  0
 38 47  1  0  0  0
 39 64  1  0  0  0
 39 67  2  0  0  0
 40 52  1  0  0  0
 40 53  2  0  0  0
 40 58  1  0  0  0
 41112  1  0  0  0
 41113  1  0  0  0
 41114  1  0  0  0
 41 48  1  0  0  0
 42 43  1  0  0  0
 42 66  1  0  0  0
 42115  1  0  0  0
 42116  1  0  0  0
 43 44  1  0  0  0
 44117  1  0  0  0
 45 46  2  0  0  0
 45118  1  0  0  0
 46119  1  0  0  0
 47120  1  0  0  0
 47121  1  0  0  0
 48 56  1  0  0  0
 48 65  1  0  0  0
 48122  1  0  0  0
 49 50  1  0  0  0
 49 53  1  0  0  0
 49 64  1  0  0  0
 49123  1  0  0  0
 50 51  1  0  0  0
 50124  1  0  0  0
 50125  1  0  0  0
 51 52  1  0  0  0
 51126  1  0  0  0
 51127  1  0  0  0
 52128  1  0  0  0
 52129  1  0  0  0
 53 54  1  0  0  0
 54 55  2  0  0  0
 54130  1  0  0  0
 55 57  1  0  0  0
 55131  1  0  0  0
 56 69  2  0  0  0
 57 58  2  0  0  0
 57132  1  0  0  0
 58133  1  0  0  0
 59 60  1  0  0  0
 59 61  1  0  0  0
 59 62  1  0  0  0
 60134  1  0  0  0
 60135  1  0  0  0
 60136  1  0  0  0
 61137  1  0  0  0
 61138  1  0  0  0
 61139  1  0  0  0
 62140  1  0  0  0
 62141  1  0  0  0
 62142  1  0  0  0
 63 65  1  0  0  0
 63143  1  0  0  0
 63144  1  0  0  0
 63145  1  0  0  0
 64146  1  0  0  0
 65147  1  0  0  0
 68 76  1  0  0  0
 71 72  2  0  0  0
 71 73  1  0  0  0
 71148  1  0  0  0
 72 76  1  0  0  0
 72149  1  0  0  0
 73 75  2  0  0  0
 73 84  1  0  0  0
 74 75  1  0  0  0
 74 76  2  0  0  0
 74 85  1  0  0  0
 75 87  1  0  0  0
 77 78  1  0  0  0
 77 79  1  0  0  0
 77150  1  0  0  0
 77151  1  0  0  0
 78 85  1  0  0  0
 78152  1  0  0  0
 78153  1  0  0  0
 79 85  1  0  0  0
 79154  1  0  0  0
 79155  1  0  0  0
 80 82  1  0  0  0
 80 84  1  0  0  0
 80156  1  0  0  0
 80157  1  0  0  0
 81 83  1  0  0  0
 81 84  1  0  0  0
 81158  1  0  0  0
 81159  1  0  0  0
 82 88  1  0  0  0
 82160  1  0  0  0
 82161  1  0  0  0
 83 88  1  0  0  0
 83162  1  0  0  0
 83163  1  0  0  0
 84164  1  0  0  0
 85165  1  0  0  0
 86 87  1  0  0  0
 86166  1  0  0  0
 86167  1  0  0  0
 86168  1  0  0  0
 87169  1  0  0  0
 87170  1  0  0  0
M  ISO  4   1 100  68 101  76 101  88 100
M  END
> <chiral flag>
0

> <version>
0

> <s_m_source_file>
/data/baiqing/PycharmProjects/Reinvent-master-3.2/result/LINK_invent/BTK/process_docking_weight1_custom_sum_contain_oxygen_bond_distance_aromatic_linkinvent_7_9_3/rearranged_h_0142.sdf

> <i_m_source_file_index>
78

> <r_mmod_Potential_Energy-OPLS-2005>
966.610656738281

> <r_mmod_Stretch_Energy-OPLS-2005>
309.729309082031

> <r_mmod_Bend_Energy-OPLS-2005>
385.568939208984

> <r_mmod_Torsional_Energy-OPLS-2005>
329.370147705078

> <r_mmod_Improper_Torsional_Energy-OPLS-2005>
6.04262208938599

> <r_mmod_Van_der_Waal_Energy-OPLS-2005>
144.687072753906

> <r_mmod_Electrostatic_Energy-OPLS-2005>
-283.780792236328

> <r_mmod_Solvation_Energy-OPLS-2005>
-193.458724975586

> <b_mmod_Minimization_Converged-OPLS-2005>
0

> <r_mmod_RMS_Derivative-OPLS-2005>
0.98312383890152

$$$$
79
                    3D
 Structure written by MMmdl.
161169  0  0  1  0            999 V2000
  -30.6319  -14.6359   20.5000 C   0  0  0  0  0  0
  -30.4413  -12.3658   19.4535 C   0  0  0  0  0  0
  -29.5129  -12.5133   18.2264 C   0  0  0  0  0  0
  -28.0322  -12.3582   18.6308 C   0  0  0  0  0  0
  -27.6545  -13.2204   19.8655 C   0  0  2  0  0  0
  -28.6891  -13.0611   20.9981 C   0  0  0  0  0  0
  -25.2560  -13.8184   20.5681 C   0  0  0  0  0  0
  -24.1829  -13.0443   20.9166 C   0  0  0  0  0  0
  -24.6403  -11.6913   20.8716 C   0  0  0  0  0  0
  -23.9075  -10.4296   21.0400 C   0  0  0  0  0  0
  -24.3630   -9.4211   21.9176 C   0  0  0  0  0  0
  -23.6302   -8.2249   22.0749 C   0  0  0  0  0  0
  -22.4279   -8.0290   21.3545 C   0  0  0  0  0  0
  -21.9918   -9.0262   20.4642 C   0  0  0  0  0  0
  -22.7251  -10.2137   20.3050 C   0  0  0  0  0  0
  -21.6858   -6.0741   22.5281 C   0  0  0  0  0  0
  -21.4018   -6.5642   23.8215 C   0  0  0  0  0  0
  -21.3660   -5.6793   24.9175 C   0  0  0  0  0  0
  -21.6047   -4.3058   24.7224 C   0  0  0  0  0  0
  -21.8821   -3.8149   23.4345 C   0  0  0  0  0  0
  -21.9196   -4.6966   22.3400 C   0  0  0  0  0  0
  -22.7851  -13.5225   21.1851 C   0  0  0  0  0  0
  -22.1664   -4.2157   21.0975 F   0  0  0  0  0  0
  -21.5628   -3.4536   25.7734 F   0  0  0  0  0  0
  -30.0148  -13.3645   20.4470 N   0  0  0  0  0  0
  -26.2991  -12.9376   20.3304 N   0  0  0  0  0  0
  -25.9329  -11.6522   20.5726 N   0  0  0  0  0  0
  -22.0512  -12.8203   22.0407 N   0  0  0  0  0  0
  -25.4280  -15.1907   20.4139 N   0  0  0  0  0  0
  -31.7803  -14.8536   20.1065 O   0  0  0  0  0  0
  -21.6644   -6.8890   21.4246 O   0  0  0  0  0  0
  -22.3530  -14.5541   20.6721 O   0  0  0  0  0  0
  -24.6250  -31.8613   23.2028 C   0  0  0  0  0  0
  -25.9098  -32.4786   23.8358 C   0  0  1  0  0  0
  -27.2236  -27.3239   20.1134 C   0  0  0  0  0  0
  -25.5914  -33.8587   24.2280 N   0  0  0  0  0  0
  -23.4178  -30.4863   21.5462 C   0  0  2  0  0  0
  -24.8640  -28.9438   20.1122 C   0  0  0  0  0  0
  -22.7460  -29.4634   22.4933 C   0  0  0  0  0  0
  -18.0285  -28.1387   22.8484 C   0  0  0  0  0  0
  -24.1492  -36.7295   23.2638 C   0  0  0  0  0  0
  -25.9597  -30.7945   21.3728 C   0  0  0  0  0  0
  -26.0342  -29.4229   20.7138 C   0  0  0  0  0  0
  -27.2173  -28.6258   20.7032 C   0  0  0  0  0  0
  -26.0263  -26.8988   19.4890 C   0  0  0  0  0  0
  -24.8616  -27.6866   19.4926 C   0  0  0  0  0  0
  -23.6317  -29.8230   20.1613 C   0  0  0  0  0  0
  -25.4119  -36.3086   24.0326 C   0  0  1  0  0  0
  -20.5884  -28.3690   23.1282 C   0  0  2  0  0  0
  -20.6777  -26.9413   22.5409 C   0  0  0  0  0  0
  -19.5754  -26.6383   21.5211 C   0  0  0  0  0  0
  -18.1933  -26.7929   22.1622 C   0  0  0  0  0  0
  -19.1538  -28.8856   23.2880 C   0  0  0  0  0  0
  -18.9460  -30.1457   23.8896 C   0  0  0  0  0  0
  -17.6461  -30.6588   24.0564 C   0  0  0  0  0  0
  -25.9052  -34.9456   23.5103 C   0  0  0  0  0  0
  -16.5352  -29.9086   23.6329 C   0  0  0  0  0  0
  -16.7273  -28.6506   23.0348 C   0  0  0  0  0  0
  -26.4487  -31.6589   25.0718 C   0  0  0  0  0  0
  -25.3719  -31.3718   26.1437 C   0  0  0  0  0  0
  -27.0327  -30.3014   24.6162 C   0  0  0  0  0  0
  -27.6040  -32.4324   25.7497 C   0  0  0  0  0  0
  -27.5586  -37.1803   24.8462 C   0  0  0  0  0  0
  -21.4176  -29.3045   22.3673 N   0  0  0  0  0  0
  -26.4297  -37.3779   23.9406 N   0  0  0  0  0  0
  -24.6866  -31.0633   22.0976 N   0  0  0  0  0  0
  -23.4191  -28.8170   23.3004 O   0  0  0  0  0  0
  -28.3431  -26.4760   20.1630 O   0  0  0  0  0  0
  -26.5624  -34.8918   22.4672 O   0  0  0  0  0  0
  -23.5417  -32.1407   23.7362 O   0  0  0  0  0  0
  -29.9353  -19.1347   19.4090 C   0  0  0  0  0  0
  -29.8903  -19.9849   20.5455 C   0  0  0  0  0  0
  -29.9134  -17.7101   19.4970 C   0  0  0  0  0  0
  -29.8034  -19.3237   21.8100 C   0  0  0  0  0  0
  -29.7911  -17.8865   21.9051 C   0  0  0  0  0  0
  -29.8729  -17.0433   20.7551 C   0  0  0  0  0  0
  -29.9059  -16.9102   18.2055 C   0  0  0  0  0  0
  -29.7273  -20.1412   23.0984 C   0  0  0  0  0  0
  -29.6856  -17.2279   23.2787 C   0  0  0  0  0  0
  -30.1108  -21.5433   20.3717 C   0  0  0  0  0  0
  -29.2905  -23.9987   20.3762 C   0  0  0  0  0  0
  -28.1056  -25.0141   20.0738 C   0  0  0  0  0  0
  -28.9448  -22.5084   20.3801 N   0  3  0  0  0  0
  -29.7179  -15.6450   20.8857 O   0  0  0  0  0  0
  -31.4842  -12.5017   19.1614 H   0  0  0  0  0  0
  -30.3706  -11.3622   19.8756 H   0  0  0  0  0  0
  -29.7729  -11.7760   17.4657 H   0  0  0  0  0  0
  -29.6660  -13.4908   17.7665 H   0  0  0  0  0  0
  -27.8561  -11.3034   18.8468 H   0  0  0  0  0  0
  -27.3851  -12.6068   17.7890 H   0  0  0  0  0  0
  -27.6801  -14.2608   19.5397 H   0  0  0  0  0  0
  -28.6754  -12.0427   21.3894 H   0  0  0  0  0  0
  -28.4452  -13.7090   21.8415 H   0  0  0  0  0  0
  -25.2786   -9.5679   22.4735 H   0  0  0  0  0  0
  -24.0014   -7.4640   22.7461 H   0  0  0  0  0  0
  -21.0857   -8.8786   19.8937 H   0  0  0  0  0  0
  -22.3727  -10.9674   19.6149 H   0  0  0  0  0  0
  -21.2013   -7.6153   23.9725 H   0  0  0  0  0  0
  -21.1479   -6.0520   25.9081 H   0  0  0  0  0  0
  -22.0599   -2.7611   23.2846 H   0  0  0  0  0  0
  -22.4154  -11.9860   22.4767 H   0  0  0  0  0  0
  -21.1126  -13.1207   22.2634 H   0  0  0  0  0  0
  -24.6678  -15.8506   20.5376 H   0  0  0  0  0  0
  -26.2967  -15.6315   20.1388 H   0  0  0  0  0  0
  -26.7159  -32.5460   23.1104 H   0  0  0  0  0  0
  -25.0048  -33.9734   25.0415 H   0  0  0  0  0  0
  -22.7112  -31.3072   21.4048 H   0  0  0  0  0  0
  -23.3759  -35.9623   23.3295 H   0  0  0  0  0  0
  -24.3585  -36.8925   22.2053 H   0  0  0  0  0  0
  -23.7242  -37.6493   23.6669 H   0  0  0  0  0  0
  -26.0904  -31.5593   20.6059 H   0  0  0  0  0  0
  -26.8402  -30.8425   22.0018 H   0  0  0  0  0  0
  -28.1155  -28.9906   21.1821 H   0  0  0  0  0  0
  -25.9519  -25.9431   18.9942 H   0  0  0  0  0  0
  -23.9634  -27.3136   19.0195 H   0  0  0  0  0  0
  -23.7495  -30.6008   19.4058 H   0  0  0  0  0  0
  -22.7512  -29.2529   19.8589 H   0  0  0  0  0  0
  -25.1301  -36.1943   25.0820 H   0  0  0  0  0  0
  -20.9984  -28.3273   24.1400 H   0  0  0  0  0  0
  -20.5686  -26.2298   23.3607 H   0  0  0  0  0  0
  -21.6646  -26.7445   22.1204 H   0  0  0  0  0  0
  -19.6918  -25.6294   21.1242 H   0  0  0  0  0  0
  -19.6696  -27.3192   20.6741 H   0  0  0  0  0  0
  -17.4200  -26.6672   21.4028 H   0  0  0  0  0  0
  -18.0336  -26.0075   22.9025 H   0  0  0  0  0  0
  -19.7935  -30.7275   24.2266 H   0  0  0  0  0  0
  -17.5015  -31.6270   24.5165 H   0  0  0  0  0  0
  -15.5354  -30.2993   23.7652 H   0  0  0  0  0  0
  -15.8672  -28.0829   22.7062 H   0  0  0  0  0  0
  -24.5892  -30.7075   25.7757 H   0  0  0  0  0  0
  -24.8910  -32.2881   26.4870 H   0  0  0  0  0  0
  -25.8035  -30.8884   27.0207 H   0  0  0  0  0  0
  -26.2896  -29.6770   24.1184 H   0  0  0  0  0  0
  -27.4028  -29.7264   25.4660 H   0  0  0  0  0  0
  -27.8767  -30.4307   23.9380 H   0  0  0  0  0  0
  -27.2639  -33.3621   26.2074 H   0  0  0  0  0  0
  -28.3851  -32.6891   25.0328 H   0  0  0  0  0  0
  -28.0703  -31.8448   26.5415 H   0  0  0  0  0  0
  -28.2588  -38.0115   24.7522 H   0  0  0  0  0  0
  -28.1095  -36.2642   24.6276 H   0  0  0  0  0  0
  -27.2296  -37.1436   25.8862 H   0  0  0  0  0  0
  -20.9344  -29.8771   21.6892 H   0  0  0  0  0  0
  -26.0178  -38.2853   24.1411 H   0  0  0  0  0  0
  -30.0083  -19.5891   18.4301 H   0  0  0  0  0  0
  -29.6495  -17.5353   17.3498 H   0  0  0  0  0  0
  -29.1715  -16.1055   18.2504 H   0  0  0  0  0  0
  -30.8876  -16.4727   18.0215 H   0  0  0  0  0  0
  -29.8424  -21.2132   22.9582 H   0  0  0  0  0  0
  -30.5028  -19.8277   23.7983 H   0  0  0  0  0  0
  -28.7590  -19.9927   23.5777 H   0  0  0  0  0  0
  -30.6508  -17.2632   23.7848 H   0  0  0  0  0  0
  -29.3794  -16.1841   23.2278 H   0  0  0  0  0  0
  -28.9474  -17.7242   23.9069 H   0  0  0  0  0  0
  -30.6267  -21.6912   19.4219 H   0  0  0  0  0  0
  -30.8368  -21.8695   21.1164 H   0  0  0  0  0  0
  -29.7242  -24.2451   21.3459 H   0  0  0  0  0  0
  -30.0764  -24.1705   19.6398 H   0  0  0  0  0  0
  -27.2833  -24.7715   20.7485 H   0  0  0  0  0  0
  -27.7590  -24.7893   19.0655 H   0  0  0  0  0  0
  -28.3790  -22.3086   21.1895 H   0  0  0  0  0  0
  -28.3847  -22.2945   19.5701 H   0  0  0  0  0  0
  1 25  1  0  0  0
  1 30  2  0  0  0
  1 84  1  0  0  0
  2  3  1  0  0  0
  2 25  1  0  0  0
  2 85  1  0  0  0
  2 86  1  0  0  0
  3  4  1  0  0  0
  3 87  1  0  0  0
  3 88  1  0  0  0
  4  5  1  0  0  0
  4 89  1  0  0  0
  4 90  1  0  0  0
  5  6  1  0  0  0
  5 26  1  0  0  0
  5 91  1  0  0  0
  6 25  1  0  0  0
  6 92  1  0  0  0
  6 93  1  0  0  0
  7  8  2  0  0  0
  7 26  1  0  0  0
  7 29  1  0  0  0
  8  9  1  0  0  0
  8 22  1  0  0  0
  9 10  1  0  0  0
  9 27  2  0  0  0
 10 11  2  0  0  0
 10 15  1  0  0  0
 11 12  1  0  0  0
 11 94  1  0  0  0
 12 13  2  0  0  0
 12 95  1  0  0  0
 13 14  1  0  0  0
 13 31  1  0  0  0
 14 15  2  0  0  0
 14 96  1  0  0  0
 15 97  1  0  0  0
 16 17  2  0  0  0
 16 21  1  0  0  0
 16 31  1  0  0  0
 17 18  1  0  0  0
 17 98  1  0  0  0
 18 19  2  0  0  0
 18 99  1  0  0  0
 19 20  1  0  0  0
 19 24  1  0  0  0
 20 21  2  0  0  0
 20100  1  0  0  0
 21 23  1  0  0  0
 22 28  1  0  0  0
 22 32  2  0  0  0
 26 27  1  0  0  0
 28101  1  0  0  0
 28102  1  0  0  0
 29103  1  0  0  0
 29104  1  0  0  0
 33 34  1  0  0  0
 33 66  1  0  0  0
 33 70  2  0  0  0
 34 36  1  0  0  0
 34 59  1  0  0  0
 34105  1  0  0  0
 35 44  2  0  0  0
 35 45  1  0  0  0
 35 68  1  0  0  0
 36 56  1  0  0  0
 36106  1  0  0  0
 37 39  1  0  0  0
 37 47  1  0  0  0
 37 66  1  0  0  0
 37107  1  0  0  0
 38 43  2  0  0  0
 38 46  1  0  0  0
 38 47  1  0  0  0
 39 64  1  0  0  0
 39 67  2  0  0  0
 40 52  1  0  0  0
 40 53  2  0  0  0
 40 58  1  0  0  0
 41108  1  0  0  0
 41109  1  0  0  0
 41110  1  0  0  0
 41 48  1  0  0  0
 42 43  1  0  0  0
 42 66  1  0  0  0
 42111  1  0  0  0
 42112  1  0  0  0
 43 44  1  0  0  0
 44113  1  0  0  0
 45 46  2  0  0  0
 45114  1  0  0  0
 46115  1  0  0  0
 47116  1  0  0  0
 47117  1  0  0  0
 48 56  1  0  0  0
 48 65  1  0  0  0
 48118  1  0  0  0
 49 50  1  0  0  0
 49 53  1  0  0  0
 49 64  1  0  0  0
 49119  1  0  0  0
 50 51  1  0  0  0
 50120  1  0  0  0
 50121  1  0  0  0
 51 52  1  0  0  0
 51122  1  0  0  0
 51123  1  0  0  0
 52124  1  0  0  0
 52125  1  0  0  0
 53 54  1  0  0  0
 54 55  2  0  0  0
 54126  1  0  0  0
 55 57  1  0  0  0
 55127  1  0  0  0
 56 69  2  0  0  0
 57 58  2  0  0  0
 57128  1  0  0  0
 58129  1  0  0  0
 59 60  1  0  0  0
 59 61  1  0  0  0
 59 62  1  0  0  0
 60130  1  0  0  0
 60131  1  0  0  0
 60132  1  0  0  0
 61133  1  0  0  0
 61134  1  0  0  0
 61135  1  0  0  0
 62136  1  0  0  0
 62137  1  0  0  0
 62138  1  0  0  0
 63 65  1  0  0  0
 63139  1  0  0  0
 63140  1  0  0  0
 63141  1  0  0  0
 64142  1  0  0  0
 65143  1  0  0  0
 68 82  1  0  0  0
 71 72  2  0  0  0
 71 73  1  0  0  0
 71144  1  0  0  0
 72 74  1  0  0  0
 72 80  1  0  0  0
 73 76  2  0  0  0
 73 77  1  0  0  0
 74 75  2  0  0  0
 74 78  1  0  0  0
 75 76  1  0  0  0
 75 79  1  0  0  0
 76 84  1  0  0  0
 77145  1  0  0  0
 77146  1  0  0  0
 77147  1  0  0  0
 78148  1  0  0  0
 78149  1  0  0  0
 78150  1  0  0  0
 79151  1  0  0  0
 79152  1  0  0  0
 79153  1  0  0  0
 80 83  1  0  0  0
 80154  1  0  0  0
 80155  1  0  0  0
 81 82  1  0  0  0
 81 83  1  0  0  0
 81156  1  0  0  0
 81157  1  0  0  0
 82158  1  0  0  0
 82159  1  0  0  0
 83160  1  0  0  0
 83161  1  0  0  0
M  CHG  1  83   1
M  ISO  4   1 100  68 101  82 101  84 100
M  END
> <chiral flag>
0

> <version>
0

> <s_m_source_file>
/data/baiqing/PycharmProjects/Reinvent-master-3.2/result/LINK_invent/BTK/process_docking_weight1_custom_sum_contain_oxygen_bond_distance_aromatic_linkinvent_7_9_3/rearranged_h_0142.sdf

> <i_m_source_file_index>
79

> <r_mmod_Potential_Energy-OPLS-2005>
-89.0750885009766

> <r_mmod_Stretch_Energy-OPLS-2005>
85.3411712646484

> <r_mmod_Bend_Energy-OPLS-2005>
134.013702392578

> <r_mmod_Torsional_Energy-OPLS-2005>
168.737640380859

> <r_mmod_Improper_Torsional_Energy-OPLS-2005>
5.45802402496338

> <r_mmod_Van_der_Waal_Energy-OPLS-2005>
145.56462097168

> <r_mmod_Electrostatic_Energy-OPLS-2005>
-231.610000610352

> <r_mmod_Solvation_Energy-OPLS-2005>
-442.079986572266

> <b_mmod_Minimization_Converged-OPLS-2005>
0

> <r_mmod_RMS_Derivative-OPLS-2005>
0.917097508907318

$$$$
80
                    3D
 Structure written by MMmdl.
163171  0  0  1  0            999 V2000
  -30.6848  -14.5946   20.4906 C   0  0  0  0  0  0
  -30.4139  -12.3607   19.4581 C   0  0  0  0  0  0
  -29.4978  -12.4870   18.2236 C   0  0  0  0  0  0
  -28.0214  -12.3398   18.6372 C   0  0  0  0  0  0
  -27.6478  -13.2239   19.8578 C   0  0  2  0  0  0
  -28.6919  -13.1092   20.9913 C   0  0  0  0  0  0
  -25.2536  -13.8200   20.5703 C   0  0  0  0  0  0
  -24.1813  -13.0448   20.9198 C   0  0  0  0  0  0
  -24.6394  -11.6924   20.8753 C   0  0  0  0  0  0
  -23.9074  -10.4300   21.0412 C   0  0  0  0  0  0
  -24.3627   -9.4214   21.9188 C   0  0  0  0  0  0
  -23.6298   -8.2250   22.0760 C   0  0  0  0  0  0
  -22.4281   -8.0287   21.3547 C   0  0  0  0  0  0
  -21.9923   -9.0262   20.4648 C   0  0  0  0  0  0
  -22.7252  -10.2137   20.3056 C   0  0  0  0  0  0
  -21.6850   -6.0745   22.5280 C   0  0  0  0  0  0
  -21.4014   -6.5645   23.8213 C   0  0  0  0  0  0
  -21.3657   -5.6794   24.9174 C   0  0  0  0  0  0
  -21.6042   -4.3060   24.7223 C   0  0  0  0  0  0
  -21.8817   -3.8151   23.4343 C   0  0  0  0  0  0
  -21.9194   -4.6970   22.3402 C   0  0  0  0  0  0
  -22.7834  -13.5230   21.1855 C   0  0  0  0  0  0
  -22.1659   -4.2160   21.0976 F   0  0  0  0  0  0
  -21.5628   -3.4539   25.7734 F   0  0  0  0  0  0
  -30.0086  -13.4088   20.4157 N   0  0  0  0  0  0
  -26.2964  -12.9392   20.3319 N   0  0  0  0  0  0
  -25.9321  -11.6538   20.5774 N   0  0  0  0  0  0
  -22.0483  -12.8216   22.0408 N   0  0  0  0  0  0
  -25.4241  -15.1922   20.4119 N   0  0  0  0  0  0
  -31.8545  -14.6816   20.1117 O   0  0  0  0  0  0
  -21.6639   -6.8889   21.4243 O   0  0  0  0  0  0
  -22.3524  -14.5542   20.6713 O   0  0  0  0  0  0
  -24.6244  -31.8605   23.2033 C   0  0  0  0  0  0
  -25.9101  -32.4778   23.8352 C   0  0  1  0  0  0
  -27.2215  -27.3507   20.1120 C   0  0  0  0  0  0
  -25.5930  -33.8574   24.2284 N   0  0  0  0  0  0
  -23.4160  -30.4850   21.5459 C   0  0  2  0  0  0
  -24.8633  -28.9431   20.1089 C   0  0  0  0  0  0
  -22.7455  -29.4642   22.4953 C   0  0  0  0  0  0
  -18.0278  -28.1384   22.8481 C   0  0  0  0  0  0
  -24.1483  -36.7291   23.2640 C   0  0  0  0  0  0
  -25.9538  -30.8027   21.3679 C   0  0  0  0  0  0
  -26.0312  -29.4324   20.7103 C   0  0  0  0  0  0
  -27.2194  -28.6470   20.7028 C   0  0  0  0  0  0
  -26.0394  -26.9046   19.4874 C   0  0  0  0  0  0
  -24.8667  -27.6826   19.4894 C   0  0  0  0  0  0
  -23.6274  -29.8178   20.1612 C   0  0  0  0  0  0
  -25.4106  -36.3074   24.0330 C   0  0  1  0  0  0
  -20.5876  -28.3695   23.1285 C   0  0  2  0  0  0
  -20.6773  -26.9424   22.5404 C   0  0  0  0  0  0
  -19.5750  -26.6379   21.5211 C   0  0  0  0  0  0
  -18.1924  -26.7927   22.1615 C   0  0  0  0  0  0
  -19.1530  -28.8854   23.2873 C   0  0  0  0  0  0
  -18.9457  -30.1456   23.8893 C   0  0  0  0  0  0
  -17.6464  -30.6590   24.0569 C   0  0  0  0  0  0
  -25.9052  -34.9446   23.5106 C   0  0  0  0  0  0
  -16.5351  -29.9088   23.6340 C   0  0  0  0  0  0
  -16.7269  -28.6504   23.0363 C   0  0  0  0  0  0
  -26.4508  -31.6581   25.0710 C   0  0  0  0  0  0
  -25.3760  -31.3685   26.1448 C   0  0  0  0  0  0
  -27.0371  -30.3017   24.6139 C   0  0  0  0  0  0
  -27.6061  -32.4324   25.7483 C   0  0  0  0  0  0
  -27.5576  -37.1786   24.8462 C   0  0  0  0  0  0
  -21.4175  -29.3048   22.3683 N   0  0  0  0  0  0
  -26.4276  -37.3776   23.9423 N   0  0  0  0  0  0
  -24.6834  -31.0647   22.0967 N   0  0  0  0  0  0
  -23.4185  -28.8188   23.3036 O   0  0  0  0  0  0
  -28.3082  -26.4786   20.1463 O   0  0  0  0  0  0
  -26.5613  -34.8914   22.4669 O   0  0  0  0  0  0
  -23.5421  -32.1387   23.7394 O   0  0  0  0  0  0
  -29.9440  -23.5557   20.3900 C   0  0  0  0  0  0
  -27.6769  -22.7781   20.4642 C   0  0  0  0  0  0
  -28.5777  -23.8716   20.5422 C   0  0  0  0  0  0
  -30.3953  -22.2160   20.1965 C   0  0  0  0  0  0
  -28.1053  -21.4305   20.2620 C   0  0  0  0  0  0
  -29.4907  -21.1019   20.1540 C   0  0  0  0  0  0
  -31.8952  -22.0181   20.0272 C   0  0  0  0  0  0
  -27.0327  -20.3590   20.1565 C   0  0  0  0  0  0
  -31.4792  -17.3834   21.8925 C   0  0  0  0  0  0
  -28.0836  -25.2915   20.9826 C   0  0  0  0  0  0
  -29.4777  -18.3374   20.5968 C   0  0  0  0  0  0
  -30.0338  -19.6424   19.8706 C   0  0  1  0  0  0
  -30.5186  -17.1334   20.7109 C   0  0  2  0  0  0
  -29.9818  -15.7276   20.8022 N   0  0  0  0  0  0
  -30.0203  -19.3848   18.4791 O   0  0  0  0  0  0
  -31.4610  -12.4404   19.1620 H   0  0  0  0  0  0
  -30.3089  -11.3752   19.9144 H   0  0  0  0  0  0
  -29.7541  -11.7262   17.4849 H   0  0  0  0  0  0
  -29.6532  -13.4516   17.7377 H   0  0  0  0  0  0
  -27.8548  -11.2892   18.8788 H   0  0  0  0  0  0
  -27.3670  -12.5630   17.7941 H   0  0  0  0  0  0
  -27.6602  -14.2543   19.5016 H   0  0  0  0  0  0
  -28.6891  -12.1070   21.4216 H   0  0  0  0  0  0
  -28.4507  -13.7906   21.8086 H   0  0  0  0  0  0
  -25.2770   -9.5686   22.4766 H   0  0  0  0  0  0
  -24.0003   -7.4642   22.7483 H   0  0  0  0  0  0
  -21.0855   -8.8782   19.8951 H   0  0  0  0  0  0
  -22.3718  -10.9679   19.6166 H   0  0  0  0  0  0
  -21.2006   -7.6151   23.9720 H   0  0  0  0  0  0
  -21.1478   -6.0524   25.9078 H   0  0  0  0  0  0
  -22.0599   -2.7616   23.2837 H   0  0  0  0  0  0
  -22.4104  -11.9868   22.4773 H   0  0  0  0  0  0
  -21.1102  -13.1240   22.2628 H   0  0  0  0  0  0
  -24.6573  -15.8467   20.5229 H   0  0  0  0  0  0
  -26.2731  -15.6311   20.0794 H   0  0  0  0  0  0
  -26.7167  -32.5459   23.1103 H   0  0  0  0  0  0
  -25.0113  -33.9716   25.0456 H   0  0  0  0  0  0
  -22.7091  -31.3050   21.4026 H   0  0  0  0  0  0
  -23.3746  -35.9623   23.3278 H   0  0  0  0  0  0
  -24.3584  -36.8940   22.2061 H   0  0  0  0  0  0
  -23.7229  -37.6480   23.6686 H   0  0  0  0  0  0
  -26.0783  -31.5674   20.6004 H   0  0  0  0  0  0
  -26.8360  -30.8523   21.9942 H   0  0  0  0  0  0
  -28.1166  -29.0129   21.1825 H   0  0  0  0  0  0
  -26.0169  -25.9302   19.0193 H   0  0  0  0  0  0
  -23.9703  -27.3017   19.0192 H   0  0  0  0  0  0
  -23.7384  -30.5919   19.4010 H   0  0  0  0  0  0
  -22.7486  -29.2423   19.8658 H   0  0  0  0  0  0
  -25.1280  -36.1919   25.0820 H   0  0  0  0  0  0
  -20.9964  -28.3277   24.1410 H   0  0  0  0  0  0
  -20.5692  -26.2312   23.3607 H   0  0  0  0  0  0
  -21.6639  -26.7469   22.1193 H   0  0  0  0  0  0
  -19.6925  -25.6285   21.1251 H   0  0  0  0  0  0
  -19.6687  -27.3179   20.6732 H   0  0  0  0  0  0
  -17.4198  -26.6676   21.4012 H   0  0  0  0  0  0
  -18.0322  -26.0065   22.9008 H   0  0  0  0  0  0
  -19.7942  -30.7261   24.2264 H   0  0  0  0  0  0
  -17.5027  -31.6278   24.5160 H   0  0  0  0  0  0
  -15.5357  -30.2996   23.7676 H   0  0  0  0  0  0
  -15.8662  -28.0827   22.7095 H   0  0  0  0  0  0
  -24.5942  -30.7028   25.7774 H   0  0  0  0  0  0
  -24.8946  -32.2835   26.4907 H   0  0  0  0  0  0
  -25.8103  -30.8845   27.0203 H   0  0  0  0  0  0
  -26.2932  -29.6722   24.1241 H   0  0  0  0  0  0
  -27.4176  -29.7316   25.4624 H   0  0  0  0  0  0
  -27.8747  -30.4322   23.9286 H   0  0  0  0  0  0
  -27.2672  -33.3641   26.2033 H   0  0  0  0  0  0
  -28.3889  -32.6859   25.0320 H   0  0  0  0  0  0
  -28.0709  -31.8467   26.5426 H   0  0  0  0  0  0
  -28.2563  -38.0115   24.7556 H   0  0  0  0  0  0
  -28.1102  -36.2645   24.6228 H   0  0  0  0  0  0
  -27.2301  -37.1362   25.8864 H   0  0  0  0  0  0
  -20.9360  -29.8763   21.6883 H   0  0  0  0  0  0
  -26.0151  -38.2843   24.1453 H   0  0  0  0  0  0
  -30.6634  -24.3608   20.4569 H   0  0  0  0  0  0
  -26.6215  -22.9765   20.5913 H   0  0  0  0  0  0
  -32.4249  -22.9695   19.9711 H   0  0  0  0  0  0
  -32.1140  -21.4743   19.1071 H   0  0  0  0  0  0
  -32.3084  -21.4637   20.8703 H   0  0  0  0  0  0
  -26.0364  -20.7961   20.0806 H   0  0  0  0  0  0
  -27.0404  -19.7144   21.0352 H   0  0  0  0  0  0
  -27.1781  -19.7465   19.2671 H   0  0  0  0  0  0
  -31.9626  -18.3573   21.8188 H   0  0  0  0  0  0
  -32.2773  -16.6419   21.9325 H   0  0  0  0  0  0
  -30.9535  -17.3507   22.8471 H   0  0  0  0  0  0
  -28.5837  -25.5011   21.9283 H   0  0  0  0  0  0
  -27.0321  -25.1985   21.2581 H   0  0  0  0  0  0
  -28.5707  -17.9935   20.1007 H   0  0  0  0  0  0
  -29.1729  -18.6101   21.6081 H   0  0  0  0  0  0
  -31.0837  -19.6532   20.1488 H   0  0  0  0  0  0
  -31.1093  -17.1613   19.7929 H   0  0  0  0  0  0
  -29.0104  -15.6071   21.0476 H   0  0  0  0  0  0
  -29.1155  -19.4293   18.1897 H   0  0  0  0  0  0
  1 25  1  0  0  0
  1 30  2  0  0  0
  1 84  1  0  0  0
  2  3  1  0  0  0
  2 25  1  0  0  0
  2 86  1  0  0  0
  2 87  1  0  0  0
  3  4  1  0  0  0
  3 88  1  0  0  0
  3 89  1  0  0  0
  4  5  1  0  0  0
  4 90  1  0  0  0
  4 91  1  0  0  0
  5  6  1  0  0  0
  5 26  1  0  0  0
  5 92  1  0  0  0
  6 25  1  0  0  0
  6 93  1  0  0  0
  6 94  1  0  0  0
  7  8  2  0  0  0
  7 26  1  0  0  0
  7 29  1  0  0  0
  8  9  1  0  0  0
  8 22  1  0  0  0
  9 10  1  0  0  0
  9 27  2  0  0  0
 10 11  2  0  0  0
 10 15  1  0  0  0
 11 12  1  0  0  0
 11 95  1  0  0  0
 12 13  2  0  0  0
 12 96  1  0  0  0
 13 14  1  0  0  0
 13 31  1  0  0  0
 14 15  2  0  0  0
 14 97  1  0  0  0
 15 98  1  0  0  0
 16 17  2  0  0  0
 16 21  1  0  0  0
 16 31  1  0  0  0
 17 18  1  0  0  0
 17 99  1  0  0  0
 18 19  2  0  0  0
 18100  1  0  0  0
 19 20  1  0  0  0
 19 24  1  0  0  0
 20 21  2  0  0  0
 20101  1  0  0  0
 21 23  1  0  0  0
 22 28  1  0  0  0
 22 32  2  0  0  0
 26 27  1  0  0  0
 28102  1  0  0  0
 28103  1  0  0  0
 29104  1  0  0  0
 29105  1  0  0  0
 33 34  1  0  0  0
 33 66  1  0  0  0
 33 70  2  0  0  0
 34 36  1  0  0  0
 34 59  1  0  0  0
 34106  1  0  0  0
 35 44  2  0  0  0
 35 45  1  0  0  0
 35 68  1  0  0  0
 36 56  1  0  0  0
 36107  1  0  0  0
 37 39  1  0  0  0
 37 47  1  0  0  0
 37 66  1  0  0  0
 37108  1  0  0  0
 38 43  2  0  0  0
 38 46  1  0  0  0
 38 47  1  0  0  0
 39 64  1  0  0  0
 39 67  2  0  0  0
 40 52  1  0  0  0
 40 53  2  0  0  0
 40 58  1  0  0  0
 41109  1  0  0  0
 41110  1  0  0  0
 41111  1  0  0  0
 41 48  1  0  0  0
 42 43  1  0  0  0
 42 66  1  0  0  0
 42112  1  0  0  0
 42113  1  0  0  0
 43 44  1  0  0  0
 44114  1  0  0  0
 45 46  2  0  0  0
 45115  1  0  0  0
 46116  1  0  0  0
 47117  1  0  0  0
 47118  1  0  0  0
 48 56  1  0  0  0
 48 65  1  0  0  0
 48119  1  0  0  0
 49 50  1  0  0  0
 49 53  1  0  0  0
 49 64  1  0  0  0
 49120  1  0  0  0
 50 51  1  0  0  0
 50121  1  0  0  0
 50122  1  0  0  0
 51 52  1  0  0  0
 51123  1  0  0  0
 51124  1  0  0  0
 52125  1  0  0  0
 52126  1  0  0  0
 53 54  1  0  0  0
 54 55  2  0  0  0
 54127  1  0  0  0
 55 57  1  0  0  0
 55128  1  0  0  0
 56 69  2  0  0  0
 57 58  2  0  0  0
 57129  1  0  0  0
 58130  1  0  0  0
 59 60  1  0  0  0
 59 61  1  0  0  0
 59 62  1  0  0  0
 60131  1  0  0  0
 60132  1  0  0  0
 60133  1  0  0  0
 61134  1  0  0  0
 61135  1  0  0  0
 61136  1  0  0  0
 62137  1  0  0  0
 62138  1  0  0  0
 62139  1  0  0  0
 63 65  1  0  0  0
 63140  1  0  0  0
 63141  1  0  0  0
 63142  1  0  0  0
 64143  1  0  0  0
 65144  1  0  0  0
 68 80  1  0  0  0
 71 73  2  0  0  0
 71 74  1  0  0  0
 71145  1  0  0  0
 72 73  1  0  0  0
 72 75  2  0  0  0
 72146  1  0  0  0
 73 80  1  0  0  0
 74 76  2  0  0  0
 74 77  1  0  0  0
 75 76  1  0  0  0
 75 78  1  0  0  0
 76 82  1  0  0  0
 77147  1  0  0  0
 77148  1  0  0  0
 77149  1  0  0  0
 78150  1  0  0  0
 78151  1  0  0  0
 78152  1  0  0  0
 79153  1  0  0  0
 79154  1  0  0  0
 79155  1  0  0  0
 79 83  1  0  0  0
 80156  1  0  0  0
 80157  1  0  0  0
 81 82  1  0  0  0
 81 83  1  0  0  0
 81158  1  0  0  0
 81159  1  0  0  0
 82 85  1  0  0  0
 82160  1  0  0  0
 83 84  1  0  0  0
 83161  1  0  0  0
 84162  1  0  0  0
 85163  1  0  0  0
M  ISO  4   1 100  68 101  80 101  84 100
M  END
> <chiral flag>
0

> <version>
0

> <s_m_source_file>
/data/baiqing/PycharmProjects/Reinvent-master-3.2/result/LINK_invent/BTK/process_docking_weight1_custom_sum_contain_oxygen_bond_distance_aromatic_linkinvent_7_9_3/rearranged_h_0142.sdf

> <i_m_source_file_index>
80

> <r_mmod_Potential_Energy-OPLS-2005>
104.603355407715

> <r_mmod_Stretch_Energy-OPLS-2005>
75.4086380004883

> <r_mmod_Bend_Energy-OPLS-2005>
134.738800048828

> <r_mmod_Torsional_Energy-OPLS-2005>
248.795608520508

> <r_mmod_Improper_Torsional_Energy-OPLS-2005>
5.58007049560547

> <r_mmod_Van_der_Waal_Energy-OPLS-2005>
146.972595214844

> <r_mmod_Electrostatic_Energy-OPLS-2005>
-326.669891357422

> <r_mmod_Solvation_Energy-OPLS-2005>
-221.179183959961

> <b_mmod_Minimization_Converged-OPLS-2005>
0

> <r_mmod_RMS_Derivative-OPLS-2005>
1.18542242050171

$$$$
81
                    3D
 Structure written by MMmdl.
157166  0  0  1  0            999 V2000
  -30.7249  -14.7009   20.4902 C   0  0  0  0  0  0
  -30.4421  -12.4062   19.4981 C   0  0  0  0  0  0
  -29.5064  -12.4598   18.2527 C   0  0  0  0  0  0
  -28.0222  -12.3468   18.6675 C   0  0  0  0  0  0
  -27.6730  -13.2428   19.8810 C   0  0  2  0  0  0
  -28.7360  -13.1626   21.0142 C   0  0  0  0  0  0
  -25.2774  -13.8384   20.5767 C   0  0  0  0  0  0
  -24.2044  -13.0663   20.9085 C   0  0  0  0  0  0
  -24.6557  -11.7088   20.8641 C   0  0  0  0  0  0
  -23.9138  -10.4477   21.0368 C   0  0  0  0  0  0
  -24.3574   -9.4487   21.9220 C   0  0  0  0  0  0
  -23.6317   -8.2505   22.0808 C   0  0  0  0  0  0
  -22.4359   -8.0463   21.3573 C   0  0  0  0  0  0
  -21.9911   -9.0487   20.4704 C   0  0  0  0  0  0
  -22.7219  -10.2407   20.3122 C   0  0  0  0  0  0
  -21.6965   -6.0821   22.5288 C   0  0  0  0  0  0
  -21.4021   -6.5719   23.8235 C   0  0  0  0  0  0
  -21.3522   -5.6802   24.9153 C   0  0  0  0  0  0
  -21.5948   -4.3103   24.7187 C   0  0  0  0  0  0
  -21.8940   -3.8181   23.4355 C   0  0  0  0  0  0
  -21.9183   -4.7015   22.3385 C   0  0  0  0  0  0
  -22.7964  -13.5471   21.1520 C   0  0  0  0  0  0
  -22.1763   -4.2251   21.0956 F   0  0  0  0  0  0
  -21.5551   -3.4527   25.7652 F   0  0  0  0  0  0
  -30.0574  -13.4812   20.4504 N   0  0  0  0  0  0
  -26.3123  -12.9561   20.3515 N   0  0  0  0  0  0
  -25.9439  -11.6716   20.5849 N   0  0  0  0  0  0
  -22.0611  -12.8663   22.0224 N   0  0  0  0  0  0
  -25.4564  -15.2038   20.4390 N   0  0  0  0  0  0
  -31.8000  -14.8220   19.9137 O   0  0  0  0  0  0
  -21.6825   -6.9002   21.4299 O   0  0  0  0  0  0
  -22.3689  -14.5761   20.6376 O   0  0  0  0  0  0
  -24.6455  -31.8448   23.1946 C   0  0  0  0  0  0
  -25.9181  -32.4666   23.8323 C   0  0  1  0  0  0
  -27.1962  -27.1736   20.0539 C   0  0  0  0  0  0
  -25.5954  -33.8485   24.2236 N   0  0  0  0  0  0
  -23.4466  -30.4687   21.5474 C   0  0  2  0  0  0
  -24.8712  -28.9081   20.1136 C   0  0  0  0  0  0
  -22.7572  -29.4527   22.4902 C   0  0  0  0  0  0
  -18.0297  -28.1384   22.8464 C   0  0  0  0  0  0
  -24.1487  -36.7255   23.2655 C   0  0  0  0  0  0
  -26.0077  -30.7062   21.3979 C   0  0  0  0  0  0
  -26.0586  -29.3251   20.7260 C   0  0  0  0  0  0
  -27.2140  -28.4630   20.7019 C   0  0  0  0  0  0
  -25.9865  -26.8598   19.3941 C   0  0  0  0  0  0
  -24.8441  -27.6811   19.4418 C   0  0  0  0  0  0
  -23.6625  -29.8143   20.1623 C   0  0  0  0  0  0
  -25.4104  -36.3026   24.0341 C   0  0  1  0  0  0
  -20.5934  -28.3701   23.1242 C   0  0  2  0  0  0
  -20.6778  -26.9408   22.5392 C   0  0  0  0  0  0
  -19.5722  -26.6371   21.5212 C   0  0  0  0  0  0
  -18.1927  -26.7920   22.1629 C   0  0  0  0  0  0
  -19.1559  -28.8863   23.2855 C   0  0  0  0  0  0
  -18.9460  -30.1474   23.8884 C   0  0  0  0  0  0
  -17.6447  -30.6596   24.0558 C   0  0  0  0  0  0
  -25.9063  -34.9386   23.5091 C   0  0  0  0  0  0
  -16.5352  -29.9090   23.6326 C   0  0  0  0  0  0
  -16.7283  -28.6501   23.0367 C   0  0  0  0  0  0
  -26.4520  -31.6560   25.0788 C   0  0  0  0  0  0
  -25.3774  -31.3671   26.1534 C   0  0  0  0  0  0
  -27.0388  -30.2971   24.6358 C   0  0  0  0  0  0
  -27.6069  -32.4357   25.7547 C   0  0  0  0  0  0
  -27.5573  -37.1795   24.8483 C   0  0  0  0  0  0
  -21.4289  -29.3011   22.3609 N   0  0  0  0  0  0
  -26.4278  -37.3723   23.9435 N   0  0  0  0  0  0
  -24.7217  -31.0294   22.1001 N   0  0  0  0  0  0
  -23.4216  -28.8063   23.3005 O   0  0  0  0  0  0
  -28.2813  -26.2331   20.1071 O   0  0  0  0  0  0
  -26.5643  -34.8869   22.4671 O   0  0  0  0  0  0
  -23.5576  -32.1324   23.7149 O   0  0  0  0  0  0
  -27.8802  -23.1043   21.3474 C   0  0  0  0  0  0
  -29.4109  -22.3386   19.6662 C   0  0  0  0  0  0
  -28.5899  -23.4470   20.1845 C   0  0  0  0  0  0
  -28.0036  -21.8223   21.9308 C   0  0  0  0  0  0
  -29.4852  -21.0297   20.3124 C   0  0  0  0  0  0
  -28.1375  -21.0616   24.3891 C   0  0  0  0  0  0
  -27.3031  -19.9986   23.7226 C   0  0  0  0  0  0
  -27.2985  -21.4273   23.1922 C   0  0  0  0  0  0
  -28.2859  -24.8492   19.4376 C   0  0  0  0  0  0
  -29.8593  -17.1698   20.3313 C   0  0  0  0  0  0
  -30.5565  -18.6274   20.6405 C   0  0  0  0  0  0
  -28.7849  -20.8366   21.4313 N   0  0  0  0  0  0
  -30.1187  -15.8196   21.0240 N   0  0  0  0  0  0
  -30.1738  -19.8640   19.8310 O   0  0  0  0  0  0
  -31.4817  -12.4838   19.1829 H   0  0  0  0  0  0
  -30.3448  -11.4379   19.9935 H   0  0  0  0  0  0
  -29.7611  -11.6455   17.5580 H   0  0  0  0  0  0
  -29.6844  -13.3850   17.6981 H   0  0  0  0  0  0
  -27.8368  -11.2988   18.9160 H   0  0  0  0  0  0
  -27.3760  -12.5859   17.8251 H   0  0  0  0  0  0
  -27.6881  -14.2713   19.5030 H   0  0  0  0  0  0
  -28.7589  -12.1581   21.4432 H   0  0  0  0  0  0
  -28.5003  -13.8409   21.8350 H   0  0  0  0  0  0
  -25.2788   -9.6045   22.4756 H   0  0  0  0  0  0
  -24.0046   -7.5056   22.7615 H   0  0  0  0  0  0
  -21.0795   -8.9096   19.8997 H   0  0  0  0  0  0
  -22.3729  -10.9922   19.6199 H   0  0  0  0  0  0
  -21.2278   -7.6236   23.9762 H   0  0  0  0  0  0
  -21.1067   -6.0536   25.9006 H   0  0  0  0  0  0
  -22.0781   -2.7680   23.2866 H   0  0  0  0  0  0
  -22.4161  -12.0221   22.4500 H   0  0  0  0  0  0
  -21.1300  -13.1856   22.2413 H   0  0  0  0  0  0
  -26.3611  -15.6239   20.2551 H   0  0  0  0  0  0
  -24.7370  -15.8799   20.6531 H   0  0  0  0  0  0
  -26.7276  -32.5252   23.1083 H   0  0  0  0  0  0
  -25.0128  -33.9604   25.0395 H   0  0  0  0  0  0
  -22.7530  -31.2999   21.3958 H   0  0  0  0  0  0
  -23.3723  -35.9636   23.3411 H   0  0  0  0  0  0
  -24.3555  -36.8768   22.2060 H   0  0  0  0  0  0
  -23.7284  -37.6504   23.6603 H   0  0  0  0  0  0
  -26.1745  -31.4569   20.6239 H   0  0  0  0  0  0
  -26.8790  -30.7385   22.0415 H   0  0  0  0  0  0
  -28.1186  -28.7574   21.2243 H   0  0  0  0  0  0
  -25.8519  -25.9677   18.8152 H   0  0  0  0  0  0
  -23.9393  -27.3499   18.9428 H   0  0  0  0  0  0
  -23.8207  -30.5919   19.4129 H   0  0  0  0  0  0
  -22.7733  -29.2719   19.8381 H   0  0  0  0  0  0
  -25.1295  -36.1916   25.0839 H   0  0  0  0  0  0
  -20.9991  -28.3277   24.1379 H   0  0  0  0  0  0
  -20.5668  -26.2324   23.3609 H   0  0  0  0  0  0
  -21.6656  -26.7413   22.1189 H   0  0  0  0  0  0
  -19.6897  -25.6283   21.1260 H   0  0  0  0  0  0
  -19.6684  -27.3180   20.6742 H   0  0  0  0  0  0
  -17.4202  -26.6668   21.4060 H   0  0  0  0  0  0
  -18.0339  -26.0099   22.9048 H   0  0  0  0  0  0
  -19.7959  -30.7298   24.2254 H   0  0  0  0  0  0
  -17.5020  -31.6276   24.5161 H   0  0  0  0  0  0
  -15.5365  -30.2979   23.7665 H   0  0  0  0  0  0
  -15.8686  -28.0819   22.7080 H   0  0  0  0  0  0
  -24.5885  -30.7096   25.7859 H   0  0  0  0  0  0
  -24.9056  -32.2811   26.5151 H   0  0  0  0  0  0
  -25.8122  -30.8708   27.0218 H   0  0  0  0  0  0
  -26.2966  -29.6691   24.1419 H   0  0  0  0  0  0
  -27.4058  -29.7266   25.4899 H   0  0  0  0  0  0
  -27.8871  -30.4233   23.9630 H   0  0  0  0  0  0
  -27.2596  -33.3552   26.2268 H   0  0  0  0  0  0
  -28.3751  -32.7108   25.0312 H   0  0  0  0  0  0
  -28.0903  -31.8458   26.5347 H   0  0  0  0  0  0
  -28.2623  -38.0051   24.7459 H   0  0  0  0  0  0
  -28.1023  -36.2588   24.6396 H   0  0  0  0  0  0
  -27.2298  -37.1553   25.8880 H   0  0  0  0  0  0
  -20.9504  -29.8799   21.6862 H   0  0  0  0  0  0
  -26.0180  -38.2821   24.1374 H   0  0  0  0  0  0
  -27.1970  -23.8180   21.7801 H   0  0  0  0  0  0
  -29.9806  -22.4739   18.7532 H   0  0  0  0  0  0
  -29.2083  -21.0008   24.2168 H   0  0  0  0  0  0
  -27.8363  -21.3542   25.3891 H   0  0  0  0  0  0
  -26.4408  -19.6587   24.2848 H   0  0  0  0  0  0
  -27.8522  -19.2129   23.2033 H   0  0  0  0  0  0
  -26.3843  -22.0062   23.3485 H   0  0  0  0  0  0
  -27.3449  -24.6444   18.9327 H   0  0  0  0  0  0
  -28.9865  -24.9066   18.6054 H   0  0  0  0  0  0
  -29.9497  -16.9642   19.2650 H   0  0  0  0  0  0
  -28.7992  -17.3326   20.5264 H   0  0  0  0  0  0
  -31.6167  -18.4836   20.4241 H   0  0  0  0  0  0
  -30.5585  -18.8611   21.7057 H   0  0  0  0  0  0
  -29.3853  -15.5734   21.6783 H   0  0  0  0  0  0
  1 25  1  0  0  0
  1 30  2  0  0  0
  1 83  1  0  0  0
  2  3  1  0  0  0
  2 25  1  0  0  0
  2 85  1  0  0  0
  2 86  1  0  0  0
  3  4  1  0  0  0
  3 87  1  0  0  0
  3 88  1  0  0  0
  4  5  1  0  0  0
  4 89  1  0  0  0
  4 90  1  0  0  0
  5  6  1  0  0  0
  5 26  1  0  0  0
  5 91  1  0  0  0
  6 25  1  0  0  0
  6 92  1  0  0  0
  6 93  1  0  0  0
  7  8  2  0  0  0
  7 26  1  0  0  0
  7 29  1  0  0  0
  8  9  1  0  0  0
  8 22  1  0  0  0
  9 10  1  0  0  0
  9 27  2  0  0  0
 10 11  2  0  0  0
 10 15  1  0  0  0
 11 12  1  0  0  0
 11 94  1  0  0  0
 12 13  2  0  0  0
 12 95  1  0  0  0
 13 14  1  0  0  0
 13 31  1  0  0  0
 14 15  2  0  0  0
 14 96  1  0  0  0
 15 97  1  0  0  0
 16 17  2  0  0  0
 16 21  1  0  0  0
 16 31  1  0  0  0
 17 18  1  0  0  0
 17 98  1  0  0  0
 18 19  2  0  0  0
 18 99  1  0  0  0
 19 20  1  0  0  0
 19 24  1  0  0  0
 20 21  2  0  0  0
 20100  1  0  0  0
 21 23  1  0  0  0
 22 28  1  0  0  0
 22 32  2  0  0  0
 26 27  1  0  0  0
 28101  1  0  0  0
 28102  1  0  0  0
 29103  1  0  0  0
 29104  1  0  0  0
 33 34  1  0  0  0
 33 66  1  0  0  0
 33 70  2  0  0  0
 34 36  1  0  0  0
 34 59  1  0  0  0
 34105  1  0  0  0
 35 44  2  0  0  0
 35 45  1  0  0  0
 35 68  1  0  0  0
 36 56  1  0  0  0
 36106  1  0  0  0
 37 39  1  0  0  0
 37 47  1  0  0  0
 37 66  1  0  0  0
 37107  1  0  0  0
 38 43  2  0  0  0
 38 46  1  0  0  0
 38 47  1  0  0  0
 39 64  1  0  0  0
 39 67  2  0  0  0
 40 52  1  0  0  0
 40 53  2  0  0  0
 40 58  1  0  0  0
 41108  1  0  0  0
 41109  1  0  0  0
 41110  1  0  0  0
 41 48  1  0  0  0
 42 43  1  0  0  0
 42 66  1  0  0  0
 42111  1  0  0  0
 42112  1  0  0  0
 43 44  1  0  0  0
 44113  1  0  0  0
 45 46  2  0  0  0
 45114  1  0  0  0
 46115  1  0  0  0
 47116  1  0  0  0
 47117  1  0  0  0
 48 56  1  0  0  0
 48 65  1  0  0  0
 48118  1  0  0  0
 49 50  1  0  0  0
 49 53  1  0  0  0
 49 64  1  0  0  0
 49119  1  0  0  0
 50 51  1  0  0  0
 50120  1  0  0  0
 50121  1  0  0  0
 51 52  1  0  0  0
 51122  1  0  0  0
 51123  1  0  0  0
 52124  1  0  0  0
 52125  1  0  0  0
 53 54  1  0  0  0
 54 55  2  0  0  0
 54126  1  0  0  0
 55 57  1  0  0  0
 55127  1  0  0  0
 56 69  2  0  0  0
 57 58  2  0  0  0
 57128  1  0  0  0
 58129  1  0  0  0
 59 60  1  0  0  0
 59 61  1  0  0  0
 59 62  1  0  0  0
 60130  1  0  0  0
 60131  1  0  0  0
 60132  1  0  0  0
 61133  1  0  0  0
 61134  1  0  0  0
 61135  1  0  0  0
 62136  1  0  0  0
 62137  1  0  0  0
 62138  1  0  0  0
 63 65  1  0  0  0
 63139  1  0  0  0
 63140  1  0  0  0
 63141  1  0  0  0
 64142  1  0  0  0
 65143  1  0  0  0
 68 79  1  0  0  0
 71 73  2  0  0  0
 71 74  1  0  0  0
 71144  1  0  0  0
 72 73  1  0  0  0
 72 75  2  0  0  0
 72145  1  0  0  0
 73 79  1  0  0  0
 74 82  2  0  0  0
 74 78  1  0  0  0
 75 82  1  0  0  0
 75 84  1  0  0  0
 76 77  1  0  0  0
 76 78  1  0  0  0
 76146  1  0  0  0
 76147  1  0  0  0
 77 78  1  0  0  0
 77148  1  0  0  0
 77149  1  0  0  0
 78150  1  0  0  0
 79151  1  0  0  0
 79152  1  0  0  0
 80 81  1  0  0  0
 80 83  1  0  0  0
 80153  1  0  0  0
 80154  1  0  0  0
 81 84  1  0  0  0
 81155  1  0  0  0
 81156  1  0  0  0
 83157  1  0  0  0
M  ISO  4   1 100  68 101  79 101  83 100
M  END
> <chiral flag>
0

> <version>
0

> <s_m_source_file>
/data/baiqing/PycharmProjects/Reinvent-master-3.2/result/LINK_invent/BTK/process_docking_weight1_custom_sum_contain_oxygen_bond_distance_aromatic_linkinvent_7_9_3/rearranged_h_0142.sdf

> <i_m_source_file_index>
81

> <r_mmod_Potential_Energy-OPLS-2005>
96.8032455444336

> <r_mmod_Stretch_Energy-OPLS-2005>
173.629608154297

> <r_mmod_Bend_Energy-OPLS-2005>
240.654434204102

> <r_mmod_Torsional_Energy-OPLS-2005>
255.774475097656

> <r_mmod_Improper_Torsional_Energy-OPLS-2005>
8.31110286712646

> <r_mmod_Van_der_Waal_Energy-OPLS-2005>
140.973907470703

> <r_mmod_Electrostatic_Energy-OPLS-2005>
-609.074157714844

> <r_mmod_Solvation_Energy-OPLS-2005>
-221.457656860352

> <b_mmod_Minimization_Converged-OPLS-2005>
0

> <r_mmod_RMS_Derivative-OPLS-2005>
17.440767288208

$$$$
82
                    3D
 Structure written by MMmdl.
170180  0  0  1  0            999 V2000
  -30.5264  -14.7251   20.4947 C   0  0  0  0  0  0
  -30.4628  -12.4456   19.4753 C   0  0  0  0  0  0
  -29.5298  -12.5119   18.2428 C   0  0  0  0  0  0
  -28.0574  -12.3154   18.6547 C   0  0  0  0  0  0
  -27.6528  -13.2034   19.8619 C   0  0  2  0  0  0
  -28.6887  -13.0655   20.9998 C   0  0  0  0  0  0
  -25.2554  -13.8097   20.5653 C   0  0  0  0  0  0
  -24.1810  -13.0399   20.9181 C   0  0  0  0  0  0
  -24.6355  -11.6878   20.8754 C   0  0  0  0  0  0
  -23.9023  -10.4289   21.0454 C   0  0  0  0  0  0
  -24.3598   -9.4212   21.9226 C   0  0  0  0  0  0
  -23.6264   -8.2265   22.0777 C   0  0  0  0  0  0
  -22.4256   -8.0305   21.3563 C   0  0  0  0  0  0
  -21.9869   -9.0277   20.4674 C   0  0  0  0  0  0
  -22.7203  -10.2154   20.3105 C   0  0  0  0  0  0
  -21.6856   -6.0735   22.5283 C   0  0  0  0  0  0
  -21.4004   -6.5625   23.8214 C   0  0  0  0  0  0
  -21.3636   -5.6771   24.9174 C   0  0  0  0  0  0
  -21.6035   -4.3035   24.7230 C   0  0  0  0  0  0
  -21.8816   -3.8133   23.4343 C   0  0  0  0  0  0
  -21.9175   -4.6964   22.3416 C   0  0  0  0  0  0
  -22.7846  -13.5268   21.1805 C   0  0  0  0  0  0
  -22.1668   -4.2170   21.0996 F   0  0  0  0  0  0
  -21.5610   -3.4502   25.7732 F   0  0  0  0  0  0
  -30.0014  -13.4538   20.4545 N   0  0  0  0  0  0
  -26.2958  -12.9269   20.3243 N   0  0  0  0  0  0
  -25.9291  -11.6434   20.5728 N   0  0  0  0  0  0
  -22.0429  -12.8363   22.0392 N   0  0  0  0  0  0
  -25.4193  -15.1831   20.4082 N   0  0  0  0  0  0
  -31.6522  -14.9660   20.0532 O   0  0  0  0  0  0
  -21.6630   -6.8911   21.4251 O   0  0  0  0  0  0
  -22.3614  -14.5601   20.6626 O   0  0  0  0  0  0
  -24.6287  -31.8584   23.1987 C   0  0  0  0  0  0
  -25.9125  -32.4781   23.8328 C   0  0  1  0  0  0
  -27.2195  -27.2857   20.1266 C   0  0  0  0  0  0
  -25.5933  -33.8576   24.2246 N   0  0  0  0  0  0
  -23.4238  -30.4821   21.5425 C   0  0  2  0  0  0
  -24.8709  -28.9345   20.1111 C   0  0  0  0  0  0
  -22.7490  -29.4614   22.4899 C   0  0  0  0  0  0
  -18.0290  -28.1388   22.8480 C   0  0  0  0  0  0
  -24.1497  -36.7294   23.2628 C   0  0  0  0  0  0
  -25.9690  -30.7795   21.3773 C   0  0  0  0  0  0
  -26.0431  -29.4059   20.7154 C   0  0  0  0  0  0
  -27.2219  -28.5966   20.7063 C   0  0  0  0  0  0
  -26.0226  -26.8754   19.4965 C   0  0  0  0  0  0
  -24.8646  -27.6774   19.4888 C   0  0  0  0  0  0
  -23.6415  -29.8188   20.1574 C   0  0  0  0  0  0
  -25.4125  -36.3070   24.0310 C   0  0  1  0  0  0
  -20.5892  -28.3699   23.1265 C   0  0  2  0  0  0
  -20.6783  -26.9413   22.5411 C   0  0  0  0  0  0
  -19.5754  -26.6378   21.5212 C   0  0  0  0  0  0
  -18.1936  -26.7927   22.1622 C   0  0  0  0  0  0
  -19.1547  -28.8848   23.2873 C   0  0  0  0  0  0
  -18.9466  -30.1457   23.8900 C   0  0  0  0  0  0
  -17.6469  -30.6578   24.0563 C   0  0  0  0  0  0
  -25.9064  -34.9451   23.5084 C   0  0  0  0  0  0
  -16.5355  -29.9080   23.6338 C   0  0  0  0  0  0
  -16.7283  -28.6491   23.0354 C   0  0  0  0  0  0
  -26.4494  -31.6609   25.0718 C   0  0  0  0  0  0
  -25.3733  -31.3823   26.1467 C   0  0  0  0  0  0
  -27.0293  -30.2995   24.6225 C   0  0  0  0  0  0
  -27.6062  -32.4354   25.7463 C   0  0  0  0  0  0
  -27.5591  -37.1788   24.8452 C   0  0  0  0  0  0
  -21.4193  -29.3046   22.3649 N   0  0  0  0  0  0
  -26.4300  -37.3773   23.9401 N   0  0  0  0  0  0
  -24.6931  -31.0565   22.0960 N   0  0  0  0  0  0
  -23.4199  -28.8168   23.2992 O   0  0  0  0  0  0
  -28.3284  -26.4117   20.1785 O   0  0  0  0  0  0
  -26.5632  -34.8919   22.4651 O   0  0  0  0  0  0
  -23.5464  -32.1379   23.7315 O   0  0  0  0  0  0
  -28.8533  -22.4881   17.5412 C   0  0  0  0  0  0
  -28.7755  -21.0241   17.1877 C   0  0  0  0  0  0
  -29.9991  -18.4961   20.7350 C   0  0  0  0  0  0
  -30.2325  -24.4124   21.5930 C   0  0  0  0  0  0
  -29.9802  -22.1444   22.1118 C   0  0  0  0  0  0
  -28.4107  -17.3952   19.3414 C   0  0  0  0  0  0
  -28.4022  -21.4894   18.5878 C   0  0  0  0  0  0
  -29.2868  -23.9035   20.4932 C   0  0  1  0  0  0
  -29.0372  -22.3414   20.8962 C   0  0  1  0  0  0
  -29.1925  -17.1385   20.6347 C   0  0  1  0  0  0
  -28.9121  -19.6000   20.3154 C   0  0  1  0  0  0
  -28.0727  -24.9389   20.2911 C   0  0  0  0  0  0
  -29.2384  -21.1354   19.8325 C   0  0  1  0  0  0
  -29.6288  -15.6941   20.9024 N   0  0  0  0  0  0
  -30.9657  -23.2319   22.0564 N   0  3  0  0  0  0
  -28.0898  -18.8471   19.3248 N   0  3  0  0  0  0
  -31.4967  -12.6199   19.1722 H   0  0  0  0  0  0
  -30.4400  -11.4493   19.9208 H   0  0  0  0  0  0
  -29.8174  -11.7566   17.5115 H   0  0  0  0  0  0
  -29.6389  -13.4787   17.7455 H   0  0  0  0  0  0
  -27.9265  -11.2617   18.9120 H   0  0  0  0  0  0
  -27.4008  -12.5016   17.8031 H   0  0  0  0  0  0
  -27.6644  -14.2329   19.5056 H   0  0  0  0  0  0
  -28.7186  -12.0397   21.3673 H   0  0  0  0  0  0
  -28.4027  -13.6688   21.8626 H   0  0  0  0  0  0
  -25.2752   -9.5669   22.4768 H   0  0  0  0  0  0
  -23.9942   -7.4659   22.7507 H   0  0  0  0  0  0
  -21.0769   -8.8809   19.9033 H   0  0  0  0  0  0
  -22.3652  -10.9687   19.6223 H   0  0  0  0  0  0
  -21.2013   -7.6135   23.9711 H   0  0  0  0  0  0
  -21.1456   -6.0522   25.9071 H   0  0  0  0  0  0
  -22.0611   -2.7601   23.2853 H   0  0  0  0  0  0
  -22.3957  -12.0039   22.4867 H   0  0  0  0  0  0
  -21.1074  -13.1542   22.2574 H   0  0  0  0  0  0
  -24.6258  -15.8107   20.4931 H   0  0  0  0  0  0
  -26.2240  -15.6086   19.9774 H   0  0  0  0  0  0
  -26.7190  -32.5426   23.1082 H   0  0  0  0  0  0
  -25.0095  -33.9731   25.0396 H   0  0  0  0  0  0
  -22.7193  -31.3052   21.4004 H   0  0  0  0  0  0
  -23.3751  -35.9638   23.3304 H   0  0  0  0  0  0
  -24.3582  -36.8908   22.2040 H   0  0  0  0  0  0
  -23.7270  -37.6507   23.6654 H   0  0  0  0  0  0
  -26.1150  -31.5446   20.6143 H   0  0  0  0  0  0
  -26.8452  -30.8193   22.0138 H   0  0  0  0  0  0
  -28.1225  -28.9533   21.1858 H   0  0  0  0  0  0
  -25.9497  -25.9172   19.0047 H   0  0  0  0  0  0
  -23.9667  -27.3135   19.0073 H   0  0  0  0  0  0
  -23.7620  -30.5983   19.4042 H   0  0  0  0  0  0
  -22.7585  -29.2540   19.8524 H   0  0  0  0  0  0
  -25.1310  -36.1917   25.0805 H   0  0  0  0  0  0
  -21.0003  -28.3286   24.1374 H   0  0  0  0  0  0
  -20.5672  -26.2309   23.3619 H   0  0  0  0  0  0
  -21.6655  -26.7425   22.1211 H   0  0  0  0  0  0
  -19.6922  -25.6285   21.1243 H   0  0  0  0  0  0
  -19.6697  -27.3182   20.6740 H   0  0  0  0  0  0
  -17.4210  -26.6677   21.4021 H   0  0  0  0  0  0
  -18.0327  -26.0064   22.9006 H   0  0  0  0  0  0
  -19.7947  -30.7271   24.2265 H   0  0  0  0  0  0
  -17.5019  -31.6260   24.5173 H   0  0  0  0  0  0
  -15.5359  -30.2984   23.7649 H   0  0  0  0  0  0
  -15.8679  -28.0811   22.7077 H   0  0  0  0  0  0
  -24.5853  -30.7227   25.7823 H   0  0  0  0  0  0
  -24.9011  -32.3038   26.4880 H   0  0  0  0  0  0
  -25.8047  -30.8998   27.0246 H   0  0  0  0  0  0
  -26.2846  -29.6775   24.1247 H   0  0  0  0  0  0
  -27.3920  -29.7247   25.4758 H   0  0  0  0  0  0
  -27.8770  -30.4215   23.9482 H   0  0  0  0  0  0
  -27.2656  -33.3639   26.2063 H   0  0  0  0  0  0
  -28.3838  -32.6954   25.0267 H   0  0  0  0  0  0
  -28.0777  -31.8486   26.5362 H   0  0  0  0  0  0
  -28.2612  -38.0080   24.7498 H   0  0  0  0  0  0
  -28.1083  -36.2614   24.6271 H   0  0  0  0  0  0
  -27.2316  -37.1434   25.8857 H   0  0  0  0  0  0
  -20.9371  -29.8762   21.6860 H   0  0  0  0  0  0
  -26.0179  -38.2845   24.1421 H   0  0  0  0  0  0
  -28.0937  -23.1490   17.1265 H   0  0  0  0  0  0
  -29.8569  -22.9036   17.5946 H   0  0  0  0  0  0
  -29.7273  -20.5221   17.0325 H   0  0  0  0  0  0
  -27.9841  -20.7368   16.4979 H   0  0  0  0  0  0
  -30.8317  -18.4951   20.0297 H   0  0  0  0  0  0
  -30.3958  -18.6691   21.7355 H   0  0  0  0  0  0
  -29.6673  -24.8134   22.4358 H   0  0  0  0  0  0
  -30.9095  -25.1948   21.2433 H   0  0  0  0  0  0
  -30.4721  -21.1722   22.1491 H   0  0  0  0  0  0
  -29.4253  -22.2496   23.0464 H   0  0  0  0  0  0
  -27.5034  -16.7965   19.2666 H   0  0  0  0  0  0
  -29.0323  -17.1634   18.4745 H   0  0  0  0  0  0
  -27.3326  -21.5155   18.7923 H   0  0  0  0  0  0
  -29.8838  -23.9155   19.5857 H   0  0  0  0  0  0
  -28.0147  -22.2615   21.2688 H   0  0  0  0  0  0
  -28.4473  -17.2327   21.4275 H   0  0  0  0  0  0
  -28.2480  -19.7015   21.1769 H   0  0  0  0  0  0
  -27.3736  -24.8066   21.1176 H   0  0  0  0  0  0
  -27.5473  -24.6016   19.3988 H   0  0  0  0  0  0
  -30.2832  -21.1441   19.5183 H   0  0  0  0  0  0
  -28.8621  -15.2079   21.3460 H   0  0  0  0  0  0
  -31.4136  -23.3904   22.9454 H   0  0  0  0  0  0
  -31.6803  -23.0006   21.3832 H   0  0  0  0  0  0
  -27.1119  -18.9865   19.5326 H   0  0  0  0  0  0
  -28.2633  -19.2159   18.4011 H   0  0  0  0  0  0
  1 25  1  0  0  0
  1 30  2  0  0  0
  1 84  1  0  0  0
  2  3  1  0  0  0
  2 25  1  0  0  0
  2 87  1  0  0  0
  2 88  1  0  0  0
  3  4  1  0  0  0
  3 89  1  0  0  0
  3 90  1  0  0  0
  4  5  1  0  0  0
  4 91  1  0  0  0
  4 92  1  0  0  0
  5  6  1  0  0  0
  5 26  1  0  0  0
  5 93  1  0  0  0
  6 25  1  0  0  0
  6 94  1  0  0  0
  6 95  1  0  0  0
  7  8  2  0  0  0
  7 26  1  0  0  0
  7 29  1  0  0  0
  8  9  1  0  0  0
  8 22  1  0  0  0
  9 10  1  0  0  0
  9 27  2  0  0  0
 10 11  2  0  0  0
 10 15  1  0  0  0
 11 12  1  0  0  0
 11 96  1  0  0  0
 12 13  2  0  0  0
 12 97  1  0  0  0
 13 14  1  0  0  0
 13 31  1  0  0  0
 14 15  2  0  0  0
 14 98  1  0  0  0
 15 99  1  0  0  0
 16 17  2  0  0  0
 16 21  1  0  0  0
 16 31  1  0  0  0
 17 18  1  0  0  0
 17100  1  0  0  0
 18 19  2  0  0  0
 18101  1  0  0  0
 19 20  1  0  0  0
 19 24  1  0  0  0
 20 21  2  0  0  0
 20102  1  0  0  0
 21 23  1  0  0  0
 22 28  1  0  0  0
 22 32  2  0  0  0
 26 27  1  0  0  0
 28103  1  0  0  0
 28104  1  0  0  0
 29105  1  0  0  0
 29106  1  0  0  0
 33 34  1  0  0  0
 33 66  1  0  0  0
 33 70  2  0  0  0
 34 36  1  0  0  0
 34 59  1  0  0  0
 34107  1  0  0  0
 35 44  2  0  0  0
 35 45  1  0  0  0
 35 68  1  0  0  0
 36 56  1  0  0  0
 36108  1  0  0  0
 37 39  1  0  0  0
 37 47  1  0  0  0
 37 66  1  0  0  0
 37109  1  0  0  0
 38 43  2  0  0  0
 38 46  1  0  0  0
 38 47  1  0  0  0
 39 64  1  0  0  0
 39 67  2  0  0  0
 40 52  1  0  0  0
 40 53  2  0  0  0
 40 58  1  0  0  0
 41110  1  0  0  0
 41111  1  0  0  0
 41112  1  0  0  0
 41 48  1  0  0  0
 42 43  1  0  0  0
 42 66  1  0  0  0
 42113  1  0  0  0
 42114  1  0  0  0
 43 44  1  0  0  0
 44115  1  0  0  0
 45 46  2  0  0  0
 45116  1  0  0  0
 46117  1  0  0  0
 47118  1  0  0  0
 47119  1  0  0  0
 48 56  1  0  0  0
 48 65  1  0  0  0
 48120  1  0  0  0
 49 50  1  0  0  0
 49 53  1  0  0  0
 49 64  1  0  0  0
 49121  1  0  0  0
 50 51  1  0  0  0
 50122  1  0  0  0
 50123  1  0  0  0
 51 52  1  0  0  0
 51124  1  0  0  0
 51125  1  0  0  0
 52126  1  0  0  0
 52127  1  0  0  0
 53 54  1  0  0  0
 54 55  2  0  0  0
 54128  1  0  0  0
 55 57  1  0  0  0
 55129  1  0  0  0
 56 69  2  0  0  0
 57 58  2  0  0  0
 57130  1  0  0  0
 58131  1  0  0  0
 59 60  1  0  0  0
 59 61  1  0  0  0
 59 62  1  0  0  0
 60132  1  0  0  0
 60133  1  0  0  0
 60134  1  0  0  0
 61135  1  0  0  0
 61136  1  0  0  0
 61137  1  0  0  0
 62138  1  0  0  0
 62139  1  0  0  0
 62140  1  0  0  0
 63 65  1  0  0  0
 63141  1  0  0  0
 63142  1  0  0  0
 63143  1  0  0  0
 64144  1  0  0  0
 65145  1  0  0  0
 68 82  1  0  0  0
 71 72  1  0  0  0
 71146  1  0  0  0
 71147  1  0  0  0
 71 77  1  0  0  0
 72 77  1  0  0  0
 72148  1  0  0  0
 72149  1  0  0  0
 73 80  1  0  0  0
 73150  1  0  0  0
 73151  1  0  0  0
 73 81  1  0  0  0
 74 78  1  0  0  0
 74 85  1  0  0  0
 74152  1  0  0  0
 74153  1  0  0  0
 75 85  1  0  0  0
 75154  1  0  0  0
 75155  1  0  0  0
 75 79  1  0  0  0
 76 80  1  0  0  0
 76 86  1  0  0  0
 76156  1  0  0  0
 76157  1  0  0  0
 77158  1  0  0  0
 77 83  1  0  0  0
 78 79  1  0  0  0
 78 82  1  0  0  0
 78159  1  0  0  0
 79 83  1  0  0  0
 79160  1  0  0  0
 80 84  1  0  0  0
 80161  1  0  0  0
 81 83  1  0  0  0
 81 86  1  0  0  0
 81162  1  0  0  0
 82163  1  0  0  0
 82164  1  0  0  0
 83165  1  0  0  0
 84166  1  0  0  0
 85167  1  0  0  0
 85168  1  0  0  0
 86169  1  0  0  0
 86170  1  0  0  0
M  CHG  2  85   1  86   1
M  ISO  4   1 100  68 101  82 101  84 100
M  END
> <chiral flag>
0

> <version>
0

> <s_m_source_file>
/data/baiqing/PycharmProjects/Reinvent-master-3.2/result/LINK_invent/BTK/process_docking_weight1_custom_sum_contain_oxygen_bond_distance_aromatic_linkinvent_7_9_3/rearranged_h_0142.sdf

> <i_m_source_file_index>
82

> <r_mmod_Potential_Energy-OPLS-2005>
67.1930923461914

> <r_mmod_Stretch_Energy-OPLS-2005>
121.678421020508

> <r_mmod_Bend_Energy-OPLS-2005>
287.284973144531

> <r_mmod_Torsional_Energy-OPLS-2005>
408.490264892578

> <r_mmod_Improper_Torsional_Energy-OPLS-2005>
5.88651657104492

> <r_mmod_Van_der_Waal_Energy-OPLS-2005>
112.07438659668

> <r_mmod_Electrostatic_Energy-OPLS-2005>
32.8579978942871

> <r_mmod_Solvation_Energy-OPLS-2005>
-980.345031738281

> <b_mmod_Minimization_Converged-OPLS-2005>
0

> <r_mmod_RMS_Derivative-OPLS-2005>
5.34643650054932

$$$$
83
                    3D
 Structure written by MMmdl.
150159  0  0  1  0            999 V2000
  -30.3991  -15.3371   20.3498 C   0  0  0  0  0  0
  -30.4375  -12.8488   19.5580 C   0  0  0  0  0  0
  -29.5461  -12.5999   18.3120 C   0  0  0  0  0  0
  -28.0958  -12.3093   18.7306 C   0  0  0  0  0  0
  -27.6131  -13.2843   19.8323 C   0  0  2  0  0  0
  -28.6378  -13.4778   20.9742 C   0  0  0  0  0  0
  -25.2379  -13.8263   20.5757 C   0  0  0  0  0  0
  -24.1737  -13.0440   20.9255 C   0  0  0  0  0  0
  -24.6404  -11.6941   20.8756 C   0  0  0  0  0  0
  -23.9101  -10.4295   21.0400 C   0  0  0  0  0  0
  -24.3642   -9.4208   21.9180 C   0  0  0  0  0  0
  -23.6308   -8.2247   22.0753 C   0  0  0  0  0  0
  -22.4289   -8.0286   21.3544 C   0  0  0  0  0  0
  -21.9931   -9.0261   20.4645 C   0  0  0  0  0  0
  -22.7269  -10.2135   20.3052 C   0  0  0  0  0  0
  -21.6858   -6.0740   22.5279 C   0  0  0  0  0  0
  -21.4018   -6.5642   23.8213 C   0  0  0  0  0  0
  -21.3661   -5.6794   24.9174 C   0  0  0  0  0  0
  -21.6044   -4.3056   24.7224 C   0  0  0  0  0  0
  -21.8819   -3.8149   23.4345 C   0  0  0  0  0  0
  -21.9194   -4.6967   22.3402 C   0  0  0  0  0  0
  -22.7752  -13.5186   21.1901 C   0  0  0  0  0  0
  -22.1661   -4.2152   21.0979 F   0  0  0  0  0  0
  -21.5628   -3.4539   25.7736 F   0  0  0  0  0  0
  -29.8723  -14.0031   20.3644 N   0  0  0  0  0  0
  -26.2819  -12.9555   20.3246 N   0  0  0  0  0  0
  -25.9346  -11.6649   20.5724 N   0  0  0  0  0  0
  -22.0415  -12.8165   22.0456 N   0  0  0  0  0  0
  -25.4008  -15.2001   20.4200 N   0  0  0  0  0  0
  -31.5941  -15.3497   20.0172 O   0  0  0  0  0  0
  -21.6647   -6.8886   21.4242 O   0  0  0  0  0  0
  -22.3428  -14.5486   20.6742 O   0  0  0  0  0  0
  -24.6662  -31.8173   23.1655 C   0  0  0  0  0  0
  -25.9324  -32.4553   23.8139 C   0  0  1  0  0  0
  -27.2268  -26.8810   20.1852 C   0  0  0  0  0  0
  -25.5972  -33.8372   24.2038 N   0  0  0  0  0  0
  -23.4849  -30.4249   21.5138 C   0  0  2  0  0  0
  -24.9435  -28.8046   20.1026 C   0  0  0  0  0  0
  -22.7689  -29.4397   22.4749 C   0  0  0  0  0  0
  -18.0326  -28.1411   22.8464 C   0  0  0  0  0  0
  -24.1494  -36.7194   23.2649 C   0  0  0  0  0  0
  -26.0551  -30.6060   21.4062 C   0  0  0  0  0  0
  -26.1227  -29.1918   20.7495 C   0  0  0  0  0  0
  -27.2502  -28.2473   20.7746 C   0  0  0  0  0  0
  -26.0265  -26.6641   19.4696 C   0  0  0  0  0  0
  -24.9241  -27.5635   19.4422 C   0  0  0  0  0  0
  -23.7285  -29.7355   20.1406 C   0  0  0  0  0  0
  -25.4138  -36.2948   24.0294 C   0  0  1  0  0  0
  -20.5953  -28.3758   23.1176 C   0  0  2  0  0  0
  -20.6797  -26.9433   22.5405 C   0  0  0  0  0  0
  -19.5773  -26.6373   21.5215 C   0  0  0  0  0  0
  -18.1955  -26.7943   22.1621 C   0  0  0  0  0  0
  -19.1589  -28.8907   23.2805 C   0  0  0  0  0  0
  -18.9498  -30.1495   23.8844 C   0  0  0  0  0  0
  -17.6490  -30.6599   24.0554 C   0  0  0  0  0  0
  -25.9105  -34.9332   23.4993 C   0  0  0  0  0  0
  -16.5380  -29.9085   23.6345 C   0  0  0  0  0  0
  -16.7307  -28.6506   23.0363 C   0  0  0  0  0  0
  -26.4563  -31.6526   25.0693 C   0  0  0  0  0  0
  -25.3675  -31.3794   26.1340 C   0  0  0  0  0  0
  -27.0475  -30.2884   24.6477 C   0  0  0  0  0  0
  -27.6041  -32.4354   25.7499 C   0  0  0  0  0  0
  -27.5569  -37.1752   24.8465 C   0  0  0  0  0  0
  -21.4352  -29.3033   22.3510 N   0  0  0  0  0  0
  -26.4278  -37.3690   23.9407 N   0  0  0  0  0  0
  -24.7566  -30.9784   22.0816 N   0  0  0  0  0  0
  -23.4212  -28.7981   23.3021 O   0  0  0  0  0  0
  -28.1942  -25.7412   20.3686 O   0  0  0  0  0  0
  -26.5728  -34.8878   22.4598 O   0  0  0  0  0  0
  -23.5721  -32.1169   23.6715 O   0  0  0  0  0  0
  -28.5507  -21.0992   20.1032 C   0  0  0  0  0  0
  -31.0740  -21.5745   20.8058 C   0  0  0  0  0  0
  -28.8814  -22.6082   20.2481 C   0  0  0  0  0  0
  -30.2502  -22.6897   20.4831 C   0  0  0  0  0  0
  -29.4642  -19.8715   20.3789 C   0  0  0  0  0  0
  -30.7557  -24.0404   20.0339 C   0  0  0  0  0  0
  -29.6470  -24.5550   19.0672 C   0  0  0  0  0  0
  -28.2902  -24.1992   19.7268 C   0  0  2  0  0  0
  -29.4441  -18.1638   19.8995 C   0  0  0  0  0  0
  -30.6975  -20.2573   20.7951 N   0  0  0  0  0  0
  -29.6241  -16.6043   20.5391 N   0  0  0  0  0  0
  -31.4590  -13.0483   19.2323 H   0  0  0  0  0  0
  -30.5051  -11.9467   20.1684 H   0  0  0  0  0  0
  -29.9399  -11.7732   17.7192 H   0  0  0  0  0  0
  -29.5710  -13.4801   17.6678 H   0  0  0  0  0  0
  -28.0591  -11.2862   19.1064 H   0  0  0  0  0  0
  -27.4316  -12.3433   17.8661 H   0  0  0  0  0  0
  -27.5242  -14.2477   19.3286 H   0  0  0  0  0  0
  -28.8119  -12.5481   21.5181 H   0  0  0  0  0  0
  -28.2595  -14.1956   21.7033 H   0  0  0  0  0  0
  -25.2783   -9.5684   22.4761 H   0  0  0  0  0  0
  -24.0012   -7.4640   22.7476 H   0  0  0  0  0  0
  -21.0860   -8.8786   19.8952 H   0  0  0  0  0  0
  -22.3725  -10.9676   19.6164 H   0  0  0  0  0  0
  -21.2012   -7.6151   23.9717 H   0  0  0  0  0  0
  -21.1482   -6.0523   25.9077 H   0  0  0  0  0  0
  -22.0596   -2.7611   23.2844 H   0  0  0  0  0  0
  -22.4051  -11.9838   22.4849 H   0  0  0  0  0  0
  -21.1025  -13.1167   22.2661 H   0  0  0  0  0  0
  -24.6284  -15.8483   20.5302 H   0  0  0  0  0  0
  -26.2401  -15.6413   20.0680 H   0  0  0  0  0  0
  -26.7394  -32.5075   23.0850 H   0  0  0  0  0  0
  -25.0051  -33.9441   25.0143 H   0  0  0  0  0  0
  -22.8006  -31.2576   21.3383 H   0  0  0  0  0  0
  -23.3769  -35.9510   23.3273 H   0  0  0  0  0  0
  -24.3568  -36.8884   22.2071 H   0  0  0  0  0  0
  -23.7239  -37.6363   23.6736 H   0  0  0  0  0  0
  -26.2430  -31.3446   20.6258 H   0  0  0  0  0  0
  -26.9119  -30.6636   22.0654 H   0  0  0  0  0  0
  -28.1303  -28.5326   21.3335 H   0  0  0  0  0  0
  -25.8901  -25.7127   18.9771 H   0  0  0  0  0  0
  -24.0293  -27.2617   18.9152 H   0  0  0  0  0  0
  -23.8835  -30.5027   19.3812 H   0  0  0  0  0  0
  -22.8383  -29.1894   19.8236 H   0  0  0  0  0  0
  -25.1339  -36.1734   25.0785 H   0  0  0  0  0  0
  -21.0042  -28.3373   24.1299 H   0  0  0  0  0  0
  -20.5670  -26.2379   23.3652 H   0  0  0  0  0  0
  -21.6661  -26.7396   22.1217 H   0  0  0  0  0  0
  -19.6931  -25.6270   21.1281 H   0  0  0  0  0  0
  -19.6715  -27.3153   20.6721 H   0  0  0  0  0  0
  -17.4225  -26.6686   21.4024 H   0  0  0  0  0  0
  -18.0348  -26.0098   22.9030 H   0  0  0  0  0  0
  -19.7974  -30.7325   24.2189 H   0  0  0  0  0  0
  -17.5042  -31.6273   24.5166 H   0  0  0  0  0  0
  -15.5378  -30.2970   23.7700 H   0  0  0  0  0  0
  -15.8708  -28.0806   22.7109 H   0  0  0  0  0  0
  -24.5875  -30.7125   25.7648 H   0  0  0  0  0  0
  -24.8846  -32.3001   26.4622 H   0  0  0  0  0  0
  -25.7893  -30.9055   27.0213 H   0  0  0  0  0  0
  -26.3158  -29.6537   24.1467 H   0  0  0  0  0  0
  -27.3962  -29.7278   25.5160 H   0  0  0  0  0  0
  -27.9115  -30.4049   23.9933 H   0  0  0  0  0  0
  -27.2597  -33.3705   26.1930 H   0  0  0  0  0  0
  -28.3926  -32.6837   25.0383 H   0  0  0  0  0  0
  -28.0628  -31.8583   26.5538 H   0  0  0  0  0  0
  -28.2562  -38.0071   24.7515 H   0  0  0  0  0  0
  -28.1089  -36.2595   24.6290 H   0  0  0  0  0  0
  -27.2284  -37.1389   25.8867 H   0  0  0  0  0  0
  -20.9617  -29.8710   21.6620 H   0  0  0  0  0  0
  -26.0120  -38.2745   24.1418 H   0  0  0  0  0  0
  -27.5862  -20.8734   19.6681 H   0  0  0  0  0  0
  -32.1301  -21.7347   20.9659 H   0  0  0  0  0  0
  -31.7223  -23.9621   19.5345 H   0  0  0  0  0  0
  -30.8665  -24.6992   20.8963 H   0  0  0  0  0  0
  -29.7264  -23.9921   18.1356 H   0  0  0  0  0  0
  -29.7738  -25.6017   18.7859 H   0  0  0  0  0  0
  -27.5165  -24.0718   18.9700 H   0  0  0  0  0  0
  -30.1516  -18.1512   19.0701 H   0  0  0  0  0  0
  -28.4778  -18.0894   19.4006 H   0  0  0  0  0  0
  -28.7630  -16.3675   21.0090 H   0  0  0  0  0  0
  1 25  1  0  0  0
  1 30  2  0  0  0
  1 81  1  0  0  0
  2  3  1  0  0  0
  2 25  1  0  0  0
  2 82  1  0  0  0
  2 83  1  0  0  0
  3  4  1  0  0  0
  3 84  1  0  0  0
  3 85  1  0  0  0
  4  5  1  0  0  0
  4 86  1  0  0  0
  4 87  1  0  0  0
  5  6  1  0  0  0
  5 26  1  0  0  0
  5 88  1  0  0  0
  6 25  1  0  0  0
  6 89  1  0  0  0
  6 90  1  0  0  0
  7  8  2  0  0  0
  7 26  1  0  0  0
  7 29  1  0  0  0
  8  9  1  0  0  0
  8 22  1  0  0  0
  9 10  1  0  0  0
  9 27  2  0  0  0
 10 11  2  0  0  0
 10 15  1  0  0  0
 11 12  1  0  0  0
 11 91  1  0  0  0
 12 13  2  0  0  0
 12 92  1  0  0  0
 13 14  1  0  0  0
 13 31  1  0  0  0
 14 15  2  0  0  0
 14 93  1  0  0  0
 15 94  1  0  0  0
 16 17  2  0  0  0
 16 21  1  0  0  0
 16 31  1  0  0  0
 17 18  1  0  0  0
 17 95  1  0  0  0
 18 19  2  0  0  0
 18 96  1  0  0  0
 19 20  1  0  0  0
 19 24  1  0  0  0
 20 21  2  0  0  0
 20 97  1  0  0  0
 21 23  1  0  0  0
 22 28  1  0  0  0
 22 32  2  0  0  0
 26 27  1  0  0  0
 28 98  1  0  0  0
 28 99  1  0  0  0
 29100  1  0  0  0
 29101  1  0  0  0
 33 34  1  0  0  0
 33 66  1  0  0  0
 33 70  2  0  0  0
 34 36  1  0  0  0
 34 59  1  0  0  0
 34102  1  0  0  0
 35 44  2  0  0  0
 35 45  1  0  0  0
 35 68  1  0  0  0
 36 56  1  0  0  0
 36103  1  0  0  0
 37 39  1  0  0  0
 37 47  1  0  0  0
 37 66  1  0  0  0
 37104  1  0  0  0
 38 43  2  0  0  0
 38 46  1  0  0  0
 38 47  1  0  0  0
 39 64  1  0  0  0
 39 67  2  0  0  0
 40 52  1  0  0  0
 40 53  2  0  0  0
 40 58  1  0  0  0
 41105  1  0  0  0
 41106  1  0  0  0
 41107  1  0  0  0
 41 48  1  0  0  0
 42 43  1  0  0  0
 42 66  1  0  0  0
 42108  1  0  0  0
 42109  1  0  0  0
 43 44  1  0  0  0
 44110  1  0  0  0
 45 46  2  0  0  0
 45111  1  0  0  0
 46112  1  0  0  0
 47113  1  0  0  0
 47114  1  0  0  0
 48 56  1  0  0  0
 48 65  1  0  0  0
 48115  1  0  0  0
 49 50  1  0  0  0
 49 53  1  0  0  0
 49 64  1  0  0  0
 49116  1  0  0  0
 50 51  1  0  0  0
 50117  1  0  0  0
 50118  1  0  0  0
 51 52  1  0  0  0
 51119  1  0  0  0
 51120  1  0  0  0
 52121  1  0  0  0
 52122  1  0  0  0
 53 54  1  0  0  0
 54 55  2  0  0  0
 54123  1  0  0  0
 55 57  1  0  0  0
 55124  1  0  0  0
 56 69  2  0  0  0
 57 58  2  0  0  0
 57125  1  0  0  0
 58126  1  0  0  0
 59 60  1  0  0  0
 59 61  1  0  0  0
 59 62  1  0  0  0
 60127  1  0  0  0
 60128  1  0  0  0
 60129  1  0  0  0
 61130  1  0  0  0
 61131  1  0  0  0
 61132  1  0  0  0
 62133  1  0  0  0
 62134  1  0  0  0
 62135  1  0  0  0
 63 65  1  0  0  0
 63136  1  0  0  0
 63137  1  0  0  0
 63138  1  0  0  0
 64139  1  0  0  0
 65140  1  0  0  0
 68 78  1  0  0  0
 71 73  2  0  0  0
 71 75  1  0  0  0
 71141  1  0  0  0
 72 74  2  0  0  0
 72 80  1  0  0  0
 72142  1  0  0  0
 73 74  1  0  0  0
 73 78  1  0  0  0
 74 76  1  0  0  0
 75 79  1  0  0  0
 75 80  2  0  0  0
 76 77  1  0  0  0
 76143  1  0  0  0
 76144  1  0  0  0
 77 78  1  0  0  0
 77145  1  0  0  0
 77146  1  0  0  0
 78147  1  0  0  0
 79 81  1  0  0  0
 79148  1  0  0  0
 79149  1  0  0  0
 81150  1  0  0  0
M  ISO  4   1 100  68 101  78 101  81 100
M  END
> <chiral flag>
0

> <version>
0

> <s_m_source_file>
/data/baiqing/PycharmProjects/Reinvent-master-3.2/result/LINK_invent/BTK/process_docking_weight1_custom_sum_contain_oxygen_bond_distance_aromatic_linkinvent_7_9_3/rearranged_h_0142.sdf

> <i_m_source_file_index>
83

> <r_mmod_Potential_Energy-OPLS-2005>
1357.7822265625

> <r_mmod_Stretch_Energy-OPLS-2005>
644.033813476562

> <r_mmod_Bend_Energy-OPLS-2005>
597.637451171875

> <r_mmod_Torsional_Energy-OPLS-2005>
265.72802734375

> <r_mmod_Improper_Torsional_Energy-OPLS-2005>
16.1813201904297

> <r_mmod_Van_der_Waal_Energy-OPLS-2005>
128.010452270508

> <r_mmod_Electrostatic_Energy-OPLS-2005>
-591.272033691406

> <r_mmod_Solvation_Energy-OPLS-2005>
-247.305191040039

> <b_mmod_Minimization_Converged-OPLS-2005>
0

> <r_mmod_RMS_Derivative-OPLS-2005>
0.0713799446821213

$$$$
84
                    3D
 Structure written by MMmdl.
169178  0  0  1  0            999 V2000
  -30.7420  -14.4005   20.6439 C   0  0  0  0  0  0
  -30.4178  -12.2937   19.4020 C   0  0  0  0  0  0
  -29.4861  -12.5198   18.1958 C   0  0  0  0  0  0
  -28.0094  -12.3788   18.6116 C   0  0  0  0  0  0
  -27.6650  -13.2042   19.8797 C   0  0  2  0  0  0
  -28.7040  -12.9530   20.9948 C   0  0  0  0  0  0
  -25.2599  -13.8160   20.5677 C   0  0  0  0  0  0
  -24.1842  -13.0439   20.9161 C   0  0  0  0  0  0
  -24.6394  -11.6906   20.8725 C   0  0  0  0  0  0
  -23.9059  -10.4293   21.0400 C   0  0  0  0  0  0
  -24.3613   -9.4211   21.9179 C   0  0  0  0  0  0
  -23.6290   -8.2246   22.0754 C   0  0  0  0  0  0
  -22.4273   -8.0282   21.3544 C   0  0  0  0  0  0
  -21.9905   -9.0254   20.4646 C   0  0  0  0  0  0
  -22.7231  -10.2134   20.3051 C   0  0  0  0  0  0
  -21.6851   -6.0736   22.5278 C   0  0  0  0  0  0
  -21.4012   -6.5640   23.8211 C   0  0  0  0  0  0
  -21.3658   -5.6793   24.9174 C   0  0  0  0  0  0
  -21.6045   -4.3057   24.7225 C   0  0  0  0  0  0
  -21.8820   -3.8148   23.4346 C   0  0  0  0  0  0
  -21.9194   -4.6965   22.3402 C   0  0  0  0  0  0
  -22.7867  -13.5240   21.1834 C   0  0  0  0  0  0
  -22.1662   -4.2151   21.0979 F   0  0  0  0  0  0
  -21.5629   -3.4539   25.7737 F   0  0  0  0  0  0
  -30.0421  -13.2518   20.4523 N   0  0  0  0  0  0
  -26.3040  -12.9327   20.3383 N   0  0  0  0  0  0
  -25.9319  -11.6485   20.5761 N   0  0  0  0  0  0
  -22.0513  -12.8232   22.0396 N   0  0  0  0  0  0
  -25.4335  -15.1878   20.4107 N   0  0  0  0  0  0
  -31.8050  -14.6488   20.0671 O   0  0  0  0  0  0
  -21.6637   -6.8880   21.4240 O   0  0  0  0  0  0
  -22.3550  -14.5547   20.6691 O   0  0  0  0  0  0
  -24.6131  -31.8688   23.2122 C   0  0  0  0  0  0
  -25.9032  -32.4821   23.8411 C   0  0  1  0  0  0
  -27.2357  -27.4464   20.0821 C   0  0  0  0  0  0
  -25.5897  -33.8623   24.2341 N   0  0  0  0  0  0
  -23.3998  -30.4938   21.5519 C   0  0  2  0  0  0
  -24.8440  -28.9606   20.1146 C   0  0  0  0  0  0
  -22.7394  -29.4671   22.4994 C   0  0  0  0  0  0
  -18.0265  -28.1372   22.8495 C   0  0  0  0  0  0
  -24.1489  -36.7329   23.2638 C   0  0  0  0  0  0
  -25.9277  -30.8350   21.3652 C   0  0  0  0  0  0
  -26.0024  -29.4703   20.7124 C   0  0  0  0  0  0
  -27.1970  -28.7177   20.6977 C   0  0  0  0  0  0
  -26.0555  -26.9483   19.4804 C   0  0  0  0  0  0
  -24.8645  -27.6975   19.4992 C   0  0  0  0  0  0
  -23.6067  -29.8271   20.1656 C   0  0  0  0  0  0
  -25.4107  -36.3116   24.0336 C   0  0  1  0  0  0
  -20.5856  -28.3664   23.1320 C   0  0  2  0  0  0
  -20.6762  -26.9402   22.5417 C   0  0  0  0  0  0
  -19.5742  -26.6386   21.5211 C   0  0  0  0  0  0
  -18.1919  -26.7920   22.1620 C   0  0  0  0  0  0
  -19.1515  -28.8831   23.2906 C   0  0  0  0  0  0
  -18.9444  -30.1436   23.8918 C   0  0  0  0  0  0
  -17.6449  -30.6579   24.0570 C   0  0  0  0  0  0
  -25.9029  -34.9475   23.5136 C   0  0  0  0  0  0
  -16.5340  -29.9085   23.6324 C   0  0  0  0  0  0
  -16.7257  -28.6500   23.0348 C   0  0  0  0  0  0
  -26.4469  -31.6592   25.0733 C   0  0  0  0  0  0
  -25.3749  -31.3673   26.1490 C   0  0  0  0  0  0
  -27.0305  -30.3039   24.6102 C   0  0  0  0  0  0
  -27.6051  -32.4307   25.7491 C   0  0  0  0  0  0
  -27.5582  -37.1816   24.8461 C   0  0  0  0  0  0
  -21.4125  -29.3038   22.3729 N   0  0  0  0  0  0
  -26.4297  -37.3798   23.9403 N   0  0  0  0  0  0
  -24.6649  -31.0798   22.1017 N   0  0  0  0  0  0
  -23.4170  -28.8207   23.3028 O   0  0  0  0  0  0
  -28.4278  -26.7520   20.0989 O   0  0  0  0  0  0
  -26.5588  -34.8922   22.4694 O   0  0  0  0  0  0
  -23.5330  -32.1439   23.7526 O   0  0  0  0  0  0
  -29.4689  -21.8598   19.8279 C   0  0  0  0  0  0
  -29.3947  -21.9632   22.2455 C   0  0  0  0  0  0
  -29.3327  -20.4523   19.8691 C   0  0  0  0  0  0
  -29.2518  -20.5621   22.3160 C   0  0  0  0  0  0
  -29.2442  -19.7930   21.1254 C   0  0  0  0  0  0
  -29.5243  -22.6309   21.0142 C   0  0  0  0  0  0
  -28.4699  -20.1871   17.3918 C   0  0  0  0  0  0
  -28.0631  -18.9353   18.1309 C   0  0  0  0  0  0
  -29.2935  -19.7000   18.5653 C   0  0  0  0  0  0
  -27.6716  -19.6197   24.0698 C   0  0  0  0  0  0
  -29.1283  -19.9191   23.6925 C   0  0  0  0  0  0
  -30.3505  -17.6678   20.8049 C   0  0  0  0  0  0
  -30.7429  -16.5884   21.8334 C   0  0  0  0  0  0
  -28.4802  -25.4371   19.5378 C   0  0  0  0  0  0
  -29.8308  -24.7886   19.8933 C   0  0  0  0  0  0
  -29.1518  -18.3937   21.2144 N   0  0  0  0  0  0
  -30.1890  -15.2804   21.4894 N   0  0  0  0  0  0
  -29.7186  -23.9985   21.0807 O   0  0  0  0  0  0
  -31.4612  -12.3933   19.0974 H   0  0  0  0  0  0
  -30.3167  -11.2743   19.7771 H   0  0  0  0  0  0
  -29.7194  -11.8101   17.4009 H   0  0  0  0  0  0
  -29.6572  -13.5137   17.7791 H   0  0  0  0  0  0
  -27.8153  -11.3212   18.7939 H   0  0  0  0  0  0
  -27.3572  -12.6685   17.7869 H   0  0  0  0  0  0
  -27.7209  -14.2575   19.6032 H   0  0  0  0  0  0
  -28.6710  -11.9097   21.3123 H   0  0  0  0  0  0
  -28.4567  -13.5296   21.8864 H   0  0  0  0  0  0
  -25.2760   -9.5687   22.4750 H   0  0  0  0  0  0
  -24.0001   -7.4638   22.7473 H   0  0  0  0  0  0
  -21.0837   -8.8772   19.8952 H   0  0  0  0  0  0
  -22.3691  -10.9672   19.6160 H   0  0  0  0  0  0
  -21.2003   -7.6147   23.9715 H   0  0  0  0  0  0
  -21.1477   -6.0523   25.9077 H   0  0  0  0  0  0
  -22.0602   -2.7611   23.2845 H   0  0  0  0  0  0
  -22.4129  -11.9891   22.4776 H   0  0  0  0  0  0
  -21.1134  -13.1261   22.2611 H   0  0  0  0  0  0
  -24.6734  -15.8485   20.5289 H   0  0  0  0  0  0
  -26.3003  -15.6286   20.1273 H   0  0  0  0  0  0
  -26.7103  -32.5535   23.1178 H   0  0  0  0  0  0
  -25.0058  -33.9790   25.0495 H   0  0  0  0  0  0
  -22.6886  -31.3109   21.4144 H   0  0  0  0  0  0
  -23.3740  -35.9672   23.3308 H   0  0  0  0  0  0
  -24.3584  -36.8941   22.2052 H   0  0  0  0  0  0
  -23.7254  -37.6540   23.6651 H   0  0  0  0  0  0
  -26.0400  -31.6012   20.5968 H   0  0  0  0  0  0
  -26.8160  -30.8876   21.9829 H   0  0  0  0  0  0
  -28.0927  -29.1096   21.1594 H   0  0  0  0  0  0
  -26.0307  -25.9884   18.9863 H   0  0  0  0  0  0
  -23.9732  -27.3003   19.0326 H   0  0  0  0  0  0
  -23.7151  -30.6030   19.4065 H   0  0  0  0  0  0
  -22.7300  -29.2478   19.8700 H   0  0  0  0  0  0
  -25.1282  -36.1992   25.0830 H   0  0  0  0  0  0
  -20.9945  -28.3234   24.1443 H   0  0  0  0  0  0
  -20.5670  -26.2273   23.3602 H   0  0  0  0  0  0
  -21.6634  -26.7456   22.1208 H   0  0  0  0  0  0
  -19.6910  -25.6303   21.1226 H   0  0  0  0  0  0
  -19.6678  -27.3209   20.6750 H   0  0  0  0  0  0
  -17.4192  -26.6671   21.4018 H   0  0  0  0  0  0
  -18.0318  -26.0053   22.9007 H   0  0  0  0  0  0
  -19.7921  -30.7244   24.2301 H   0  0  0  0  0  0
  -17.5007  -31.6259   24.5172 H   0  0  0  0  0  0
  -15.5342  -30.2997   23.7634 H   0  0  0  0  0  0
  -15.8655  -28.0825   22.7057 H   0  0  0  0  0  0
  -24.5929  -30.7009   25.7831 H   0  0  0  0  0  0
  -24.8929  -32.2813   26.4969 H   0  0  0  0  0  0
  -25.8124  -30.8829   27.0230 H   0  0  0  0  0  0
  -26.2844  -29.6781   24.1190 H   0  0  0  0  0  0
  -27.4119  -29.7287   25.4549 H   0  0  0  0  0  0
  -27.8658  -30.4361   23.9221 H   0  0  0  0  0  0
  -27.2680  -33.3597   26.2104 H   0  0  0  0  0  0
  -28.3845  -32.6882   25.0306 H   0  0  0  0  0  0
  -28.0741  -31.8409   26.5380 H   0  0  0  0  0  0
  -28.2601  -38.0112   24.7512 H   0  0  0  0  0  0
  -28.1078  -36.2644   24.6288 H   0  0  0  0  0  0
  -27.2297  -37.1471   25.8864 H   0  0  0  0  0  0
  -20.9276  -29.8770   21.6966 H   0  0  0  0  0  0
  -26.0189  -38.2879   24.1396 H   0  0  0  0  0  0
  -29.5384  -22.3180   18.8549 H   0  0  0  0  0  0
  -29.4195  -22.5420   23.1580 H   0  0  0  0  0  0
  -27.8403  -21.0649   17.5254 H   0  0  0  0  0  0
  -28.8833  -20.0562   16.3937 H   0  0  0  0  0  0
  -28.2123  -17.9862   17.6202 H   0  0  0  0  0  0
  -27.1838  -18.9894   18.7701 H   0  0  0  0  0  0
  -30.2658  -19.2648   18.3426 H   0  0  0  0  0  0
  -27.6112  -19.1721   25.0620 H   0  0  0  0  0  0
  -27.2101  -18.9272   23.3654 H   0  0  0  0  0  0
  -27.0735  -20.5312   24.0809 H   0  0  0  0  0  0
  -29.5637  -20.5832   24.4403 H   0  0  0  0  0  0
  -29.7266  -19.0092   23.7361 H   0  0  0  0  0  0
  -30.2095  -17.2349   19.8134 H   0  0  0  0  0  0
  -31.1830  -18.3691   20.7111 H   0  0  0  0  0  0
  -30.4454  -16.8622   22.8463 H   0  0  0  0  0  0
  -31.8317  -16.5105   21.8660 H   0  0  0  0  0  0
  -27.6685  -24.8027   19.8962 H   0  0  0  0  0  0
  -28.3873  -25.5183   18.4540 H   0  0  0  0  0  0
  -30.5660  -25.5713   20.0840 H   0  0  0  0  0  0
  -30.2425  -24.2429   19.0475 H   0  0  0  0  0  0
  -28.8010  -18.0836   22.1139 H   0  0  0  0  0  0
  -29.3116  -15.0202   21.9141 H   0  0  0  0  0  0
  1 25  1  0  0  0
  1 30  2  0  0  0
  1 87  1  0  0  0
  2  3  1  0  0  0
  2 25  1  0  0  0
  2 89  1  0  0  0
  2 90  1  0  0  0
  3  4  1  0  0  0
  3 91  1  0  0  0
  3 92  1  0  0  0
  4  5  1  0  0  0
  4 93  1  0  0  0
  4 94  1  0  0  0
  5  6  1  0  0  0
  5 26  1  0  0  0
  5 95  1  0  0  0
  6 25  1  0  0  0
  6 96  1  0  0  0
  6 97  1  0  0  0
  7  8  2  0  0  0
  7 26  1  0  0  0
  7 29  1  0  0  0
  8  9  1  0  0  0
  8 22  1  0  0  0
  9 10  1  0  0  0
  9 27  2  0  0  0
 10 11  2  0  0  0
 10 15  1  0  0  0
 11 12  1  0  0  0
 11 98  1  0  0  0
 12 13  2  0  0  0
 12 99  1  0  0  0
 13 14  1  0  0  0
 13 31  1  0  0  0
 14 15  2  0  0  0
 14100  1  0  0  0
 15101  1  0  0  0
 16 17  2  0  0  0
 16 21  1  0  0  0
 16 31  1  0  0  0
 17 18  1  0  0  0
 17102  1  0  0  0
 18 19  2  0  0  0
 18103  1  0  0  0
 19 20  1  0  0  0
 19 24  1  0  0  0
 20 21  2  0  0  0
 20104  1  0  0  0
 21 23  1  0  0  0
 22 28  1  0  0  0
 22 32  2  0  0  0
 26 27  1  0  0  0
 28105  1  0  0  0
 28106  1  0  0  0
 29107  1  0  0  0
 29108  1  0  0  0
 33 34  1  0  0  0
 33 66  1  0  0  0
 33 70  2  0  0  0
 34 36  1  0  0  0
 34 59  1  0  0  0
 34109  1  0  0  0
 35 44  2  0  0  0
 35 45  1  0  0  0
 35 68  1  0  0  0
 36 56  1  0  0  0
 36110  1  0  0  0
 37 39  1  0  0  0
 37 47  1  0  0  0
 37 66  1  0  0  0
 37111  1  0  0  0
 38 43  2  0  0  0
 38 46  1  0  0  0
 38 47  1  0  0  0
 39 64  1  0  0  0
 39 67  2  0  0  0
 40 52  1  0  0  0
 40 53  2  0  0  0
 40 58  1  0  0  0
 41112  1  0  0  0
 41113  1  0  0  0
 41114  1  0  0  0
 41 48  1  0  0  0
 42 43  1  0  0  0
 42 66  1  0  0  0
 42115  1  0  0  0
 42116  1  0  0  0
 43 44  1  0  0  0
 44117  1  0  0  0
 45 46  2  0  0  0
 45118  1  0  0  0
 46119  1  0  0  0
 47120  1  0  0  0
 47121  1  0  0  0
 48 56  1  0  0  0
 48 65  1  0  0  0
 48122  1  0  0  0
 49 50  1  0  0  0
 49 53  1  0  0  0
 49 64  1  0  0  0
 49123  1  0  0  0
 50 51  1  0  0  0
 50124  1  0  0  0
 50125  1  0  0  0
 51 52  1  0  0  0
 51126  1  0  0  0
 51127  1  0  0  0
 52128  1  0  0  0
 52129  1  0  0  0
 53 54  1  0  0  0
 54 55  2  0  0  0
 54130  1  0  0  0
 55 57  1  0  0  0
 55131  1  0  0  0
 56 69  2  0  0  0
 57 58  2  0  0  0
 57132  1  0  0  0
 58133  1  0  0  0
 59 60  1  0  0  0
 59 61  1  0  0  0
 59 62  1  0  0  0
 60134  1  0  0  0
 60135  1  0  0  0
 60136  1  0  0  0
 61137  1  0  0  0
 61138  1  0  0  0
 61139  1  0  0  0
 62140  1  0  0  0
 62141  1  0  0  0
 62142  1  0  0  0
 63 65  1  0  0  0
 63143  1  0  0  0
 63144  1  0  0  0
 63145  1  0  0  0
 64146  1  0  0  0
 65147  1  0  0  0
 68 84  1  0  0  0
 71 73  2  0  0  0
 71 76  1  0  0  0
 71148  1  0  0  0
 72 74  1  0  0  0
 72 76  2  0  0  0
 72149  1  0  0  0
 73 75  1  0  0  0
 73 79  1  0  0  0
 74 75  2  0  0  0
 74 81  1  0  0  0
 75 86  1  0  0  0
 76 88  1  0  0  0
 77 78  1  0  0  0
 77 79  1  0  0  0
 77150  1  0  0  0
 77151  1  0  0  0
 78 79  1  0  0  0
 78152  1  0  0  0
 78153  1  0  0  0
 79154  1  0  0  0
 80 81  1  0  0  0
 80155  1  0  0  0
 80156  1  0  0  0
 80157  1  0  0  0
 81158  1  0  0  0
 81159  1  0  0  0
 82 83  1  0  0  0
 82 86  1  0  0  0
 82160  1  0  0  0
 82161  1  0  0  0
 83 87  1  0  0  0
 83162  1  0  0  0
 83163  1  0  0  0
 84 85  1  0  0  0
 84164  1  0  0  0
 84165  1  0  0  0
 85 88  1  0  0  0
 85166  1  0  0  0
 85167  1  0  0  0
 86168  1  0  0  0
 87169  1  0  0  0
M  ISO  4   1 100  68 101  84 101  87 100
M  END
> <chiral flag>
0

> <version>
0

> <s_m_source_file>
/data/baiqing/PycharmProjects/Reinvent-master-3.2/result/LINK_invent/BTK/process_docking_weight1_custom_sum_contain_oxygen_bond_distance_aromatic_linkinvent_7_9_3/rearranged_h_0142.sdf

> <i_m_source_file_index>
84

> <r_mmod_Potential_Energy-OPLS-2005>
-124.385566711426

> <r_mmod_Stretch_Energy-OPLS-2005>
35.473575592041

> <r_mmod_Bend_Energy-OPLS-2005>
109.087577819824

> <r_mmod_Torsional_Energy-OPLS-2005>
237.837829589844

> <r_mmod_Improper_Torsional_Energy-OPLS-2005>
6.56103897094727

> <r_mmod_Van_der_Waal_Energy-OPLS-2005>
159.029708862305

> <r_mmod_Electrostatic_Energy-OPLS-2005>
-468.254760742188

> <r_mmod_Solvation_Energy-OPLS-2005>
-212.585784912109

> <b_mmod_Minimization_Converged-OPLS-2005>
0

> <r_mmod_RMS_Derivative-OPLS-2005>
0.494580060243607

$$$$
85
                    3D
 Structure written by MMmdl.
161170  0  0  1  0            999 V2000
  -30.6792  -14.6387   20.4971 C   0  0  0  0  0  0
  -30.4188  -12.3954   19.4605 C   0  0  0  0  0  0
  -29.5003  -12.5005   18.2257 C   0  0  0  0  0  0
  -28.0254  -12.3422   18.6402 C   0  0  0  0  0  0
  -27.6462  -13.2295   19.8567 C   0  0  2  0  0  0
  -28.6918  -13.1320   20.9899 C   0  0  0  0  0  0
  -25.2523  -13.8202   20.5700 C   0  0  0  0  0  0
  -24.1808  -13.0446   20.9203 C   0  0  0  0  0  0
  -24.6396  -11.6924   20.8747 C   0  0  0  0  0  0
  -23.9072  -10.4298   21.0406 C   0  0  0  0  0  0
  -24.3621   -9.4212   21.9184 C   0  0  0  0  0  0
  -23.6296   -8.2247   22.0754 C   0  0  0  0  0  0
  -22.4278   -8.0283   21.3544 C   0  0  0  0  0  0
  -21.9915   -9.0257   20.4646 C   0  0  0  0  0  0
  -22.7243  -10.2137   20.3056 C   0  0  0  0  0  0
  -21.6855   -6.0737   22.5279 C   0  0  0  0  0  0
  -21.4016   -6.5641   23.8212 C   0  0  0  0  0  0
  -21.3660   -5.6793   24.9174 C   0  0  0  0  0  0
  -21.6044   -4.3056   24.7226 C   0  0  0  0  0  0
  -21.8819   -3.8148   23.4347 C   0  0  0  0  0  0
  -21.9193   -4.6964   22.3402 C   0  0  0  0  0  0
  -22.7827  -13.5226   21.1862 C   0  0  0  0  0  0
  -22.1661   -4.2149   21.0980 F   0  0  0  0  0  0
  -21.5628   -3.4540   25.7739 F   0  0  0  0  0  0
  -30.0027  -13.4491   20.4105 N   0  0  0  0  0  0
  -26.2958  -12.9410   20.3315 N   0  0  0  0  0  0
  -25.9329  -11.6552   20.5767 N   0  0  0  0  0  0
  -22.0475  -12.8213   22.0418 N   0  0  0  0  0  0
  -25.4214  -15.1925   20.4117 N   0  0  0  0  0  0
  -31.8533  -14.7121   20.1288 O   0  0  0  0  0  0
  -21.6641   -6.8881   21.4241 O   0  0  0  0  0  0
  -22.3509  -14.5531   20.6711 O   0  0  0  0  0  0
  -24.6276  -31.8603   23.2046 C   0  0  0  0  0  0
  -25.9123  -32.4781   23.8367 C   0  0  1  0  0  0
  -27.2125  -27.3066   20.1128 C   0  0  0  0  0  0
  -25.5938  -33.8582   24.2290 N   0  0  0  0  0  0
  -23.4209  -30.4872   21.5477 C   0  0  2  0  0  0
  -24.8651  -28.9491   20.1075 C   0  0  0  0  0  0
  -22.7483  -29.4628   22.4931 C   0  0  0  0  0  0
  -18.0290  -28.1385   22.8485 C   0  0  0  0  0  0
  -24.1492  -36.7294   23.2637 C   0  0  0  0  0  0
  -25.9651  -30.7859   21.3806 C   0  0  0  0  0  0
  -26.0363  -29.4149   20.7186 C   0  0  0  0  0  0
  -27.2126  -28.6043   20.7158 C   0  0  0  0  0  0
  -26.0201  -26.9124   19.4577 C   0  0  0  0  0  0
  -24.8599  -27.7034   19.4682 C   0  0  0  0  0  0
  -23.6351  -29.8304   20.1605 C   0  0  0  0  0  0
  -25.4117  -36.3085   24.0330 C   0  0  1  0  0  0
  -20.5892  -28.3692   23.1276 C   0  0  2  0  0  0
  -20.6781  -26.9414   22.5406 C   0  0  0  0  0  0
  -19.5756  -26.6385   21.5211 C   0  0  0  0  0  0
  -18.1935  -26.7927   22.1625 C   0  0  0  0  0  0
  -19.1543  -28.8855   23.2875 C   0  0  0  0  0  0
  -18.9466  -30.1456   23.8894 C   0  0  0  0  0  0
  -17.6466  -30.6586   24.0562 C   0  0  0  0  0  0
  -25.9056  -34.9453   23.5108 C   0  0  0  0  0  0
  -16.5357  -29.9084   23.6332 C   0  0  0  0  0  0
  -16.7278  -28.6502   23.0352 C   0  0  0  0  0  0
  -26.4502  -31.6590   25.0738 C   0  0  0  0  0  0
  -25.3731  -31.3727   26.1461 C   0  0  0  0  0  0
  -27.0348  -30.3011   24.6204 C   0  0  0  0  0  0
  -27.6063  -32.4323   25.7508 C   0  0  0  0  0  0
  -27.5581  -37.1803   24.8465 C   0  0  0  0  0  0
  -21.4196  -29.3045   22.3670 N   0  0  0  0  0  0
  -26.4296  -37.3778   23.9406 N   0  0  0  0  0  0
  -24.6900  -31.0606   22.1008 N   0  0  0  0  0  0
  -23.4204  -28.8159   23.3006 O   0  0  0  0  0  0
  -28.3067  -26.4213   20.1869 O   0  0  0  0  0  0
  -26.5618  -34.8917   22.4671 O   0  0  0  0  0  0
  -23.5437  -32.1412   23.7367 O   0  0  0  0  0  0
  -29.0402  -18.7908   19.4852 C   0  0  0  0  0  0
  -28.6178  -20.1414   19.2808 C   0  0  0  0  0  0
  -29.8023  -20.8816   21.2535 C   0  0  0  0  0  0
  -29.8579  -18.4769   20.5911 C   0  0  0  0  0  0
  -30.2000  -19.5233   21.4601 C   0  0  0  0  0  0
  -28.9959  -21.2241   20.1323 C   0  0  0  0  0  0
  -31.0723  -19.0108   22.5818 C   0  0  2  0  0  0
  -30.6034  -17.1563   20.9485 C   0  0  1  0  0  0
  -31.1213  -17.4617   22.3849 C   0  0  1  0  0  0
  -30.5759  -19.4309   23.9733 C   0  0  0  0  0  0
  -32.5058  -16.8694   22.6892 C   0  0  0  0  0  0
  -28.0337  -24.9806   19.9282 C   0  0  0  0  0  0
  -28.9705  -23.7769   20.3964 C   0  0  0  0  0  0
  -29.9921  -15.7807   20.8292 N   0  0  0  0  0  0
  -28.5244  -22.5115   19.7990 O   0  0  0  0  0  0
  -31.4638  -12.4870   19.1597 H   0  0  0  0  0  0
  -30.3298  -11.4118   19.9244 H   0  0  0  0  0  0
  -29.7656  -11.7396   17.4906 H   0  0  0  0  0  0
  -29.6453  -13.4648   17.7361 H   0  0  0  0  0  0
  -27.8658  -11.2917   18.8854 H   0  0  0  0  0  0
  -27.3699  -12.5588   17.7958 H   0  0  0  0  0  0
  -27.6526  -14.2580   19.4951 H   0  0  0  0  0  0
  -28.7026  -12.1305   21.4223 H   0  0  0  0  0  0
  -28.4434  -13.8129   21.8055 H   0  0  0  0  0  0
  -25.2766   -9.5688   22.4759 H   0  0  0  0  0  0
  -24.0005   -7.4639   22.7474 H   0  0  0  0  0  0
  -21.0846   -8.8777   19.8952 H   0  0  0  0  0  0
  -22.3701  -10.9676   19.6166 H   0  0  0  0  0  0
  -21.2009   -7.6149   23.9716 H   0  0  0  0  0  0
  -21.1483   -6.0524   25.9077 H   0  0  0  0  0  0
  -22.0597   -2.7610   23.2847 H   0  0  0  0  0  0
  -22.4096  -11.9875   22.4803 H   0  0  0  0  0  0
  -21.1092  -13.1234   22.2627 H   0  0  0  0  0  0
  -24.6539  -15.8462   20.5231 H   0  0  0  0  0  0
  -26.2708  -15.6341   20.0836 H   0  0  0  0  0  0
  -26.7190  -32.5445   23.1111 H   0  0  0  0  0  0
  -25.0089  -33.9728   25.0437 H   0  0  0  0  0  0
  -22.7154  -31.3090   21.4086 H   0  0  0  0  0  0
  -23.3754  -35.9626   23.3304 H   0  0  0  0  0  0
  -24.3583  -36.8911   22.2050 H   0  0  0  0  0  0
  -23.7245  -37.6497   23.6658 H   0  0  0  0  0  0
  -26.1025  -31.5511   20.6153 H   0  0  0  0  0  0
  -26.8434  -30.8292   22.0130 H   0  0  0  0  0  0
  -28.1061  -28.9520   21.2152 H   0  0  0  0  0  0
  -25.9416  -25.9704   18.9367 H   0  0  0  0  0  0
  -23.9655  -27.3449   18.9773 H   0  0  0  0  0  0
  -23.7563  -30.6111   19.4086 H   0  0  0  0  0  0
  -22.7539  -29.2634   19.8550 H   0  0  0  0  0  0
  -25.1296  -36.1941   25.0822 H   0  0  0  0  0  0
  -20.9985  -28.3270   24.1396 H   0  0  0  0  0  0
  -20.5691  -26.2301   23.3607 H   0  0  0  0  0  0
  -21.6648  -26.7448   22.1192 H   0  0  0  0  0  0
  -19.6919  -25.6295   21.1242 H   0  0  0  0  0  0
  -19.6693  -27.3196   20.6741 H   0  0  0  0  0  0
  -17.4204  -26.6674   21.4028 H   0  0  0  0  0  0
  -18.0335  -26.0070   22.9022 H   0  0  0  0  0  0
  -19.7942  -30.7270   24.2265 H   0  0  0  0  0  0
  -17.5021  -31.6267   24.5162 H   0  0  0  0  0  0
  -15.5357  -30.2984   23.7657 H   0  0  0  0  0  0
  -15.8679  -28.0820   22.7068 H   0  0  0  0  0  0
  -24.5913  -30.7070   25.7787 H   0  0  0  0  0  0
  -24.8915  -32.2891   26.4881 H   0  0  0  0  0  0
  -25.8051  -30.8909   27.0242 H   0  0  0  0  0  0
  -26.2928  -29.6758   24.1226 H   0  0  0  0  0  0
  -27.4035  -29.7271   25.4715 H   0  0  0  0  0  0
  -27.8805  -30.4291   23.9444 H   0  0  0  0  0  0
  -27.2678  -33.3627   26.2080 H   0  0  0  0  0  0
  -28.3876  -32.6875   25.0337 H   0  0  0  0  0  0
  -28.0728  -31.8452   26.5429 H   0  0  0  0  0  0
  -28.2598  -38.0100   24.7510 H   0  0  0  0  0  0
  -28.1077  -36.2630   24.6297 H   0  0  0  0  0  0
  -27.2297  -37.1460   25.8867 H   0  0  0  0  0  0
  -20.9373  -29.8777   21.6890 H   0  0  0  0  0  0
  -26.0179  -38.2856   24.1401 H   0  0  0  0  0  0
  -28.7652  -18.0213   18.7774 H   0  0  0  0  0  0
  -28.0003  -20.3570   18.4202 H   0  0  0  0  0  0
  -30.1211  -21.6444   21.9492 H   0  0  0  0  0  0
  -32.0660  -19.4306   22.4167 H   0  0  0  0  0  0
  -31.4603  -17.1851   20.2725 H   0  0  0  0  0  0
  -30.3985  -17.0282   23.0783 H   0  0  0  0  0  0
  -29.5618  -19.0749   24.1577 H   0  0  0  0  0  0
  -30.5726  -20.5154   24.0832 H   0  0  0  0  0  0
  -31.2194  -19.0260   24.7547 H   0  0  0  0  0  0
  -33.2593  -17.2421   21.9948 H   0  0  0  0  0  0
  -32.4966  -15.7821   22.6192 H   0  0  0  0  0  0
  -32.8267  -17.1277   23.6987 H   0  0  0  0  0  0
  -27.0629  -24.7330   20.3593 H   0  0  0  0  0  0
  -27.9248  -24.8842   18.8471 H   0  0  0  0  0  0
  -28.9649  -23.7035   21.4841 H   0  0  0  0  0  0
  -29.9996  -23.9637   20.0887 H   0  0  0  0  0  0
  -29.0150  -15.6870   21.0585 H   0  0  0  0  0  0
  1 25  1  0  0  0
  1 30  2  0  0  0
  1 84  1  0  0  0
  2  3  1  0  0  0
  2 25  1  0  0  0
  2 86  1  0  0  0
  2 87  1  0  0  0
  3  4  1  0  0  0
  3 88  1  0  0  0
  3 89  1  0  0  0
  4  5  1  0  0  0
  4 90  1  0  0  0
  4 91  1  0  0  0
  5  6  1  0  0  0
  5 26  1  0  0  0
  5 92  1  0  0  0
  6 25  1  0  0  0
  6 93  1  0  0  0
  6 94  1  0  0  0
  7  8  2  0  0  0
  7 26  1  0  0  0
  7 29  1  0  0  0
  8  9  1  0  0  0
  8 22  1  0  0  0
  9 10  1  0  0  0
  9 27  2  0  0  0
 10 11  2  0  0  0
 10 15  1  0  0  0
 11 12  1  0  0  0
 11 95  1  0  0  0
 12 13  2  0  0  0
 12 96  1  0  0  0
 13 14  1  0  0  0
 13 31  1  0  0  0
 14 15  2  0  0  0
 14 97  1  0  0  0
 15 98  1  0  0  0
 16 17  2  0  0  0
 16 21  1  0  0  0
 16 31  1  0  0  0
 17 18  1  0  0  0
 17 99  1  0  0  0
 18 19  2  0  0  0
 18100  1  0  0  0
 19 20  1  0  0  0
 19 24  1  0  0  0
 20 21  2  0  0  0
 20101  1  0  0  0
 21 23  1  0  0  0
 22 28  1  0  0  0
 22 32  2  0  0  0
 26 27  1  0  0  0
 28102  1  0  0  0
 28103  1  0  0  0
 29104  1  0  0  0
 29105  1  0  0  0
 33 34  1  0  0  0
 33 66  1  0  0  0
 33 70  2  0  0  0
 34 36  1  0  0  0
 34 59  1  0  0  0
 34106  1  0  0  0
 35 44  2  0  0  0
 35 45  1  0  0  0
 35 68  1  0  0  0
 36 56  1  0  0  0
 36107  1  0  0  0
 37 39  1  0  0  0
 37 47  1  0  0  0
 37 66  1  0  0  0
 37108  1  0  0  0
 38 43  2  0  0  0
 38 46  1  0  0  0
 38 47  1  0  0  0
 39 64  1  0  0  0
 39 67  2  0  0  0
 40 52  1  0  0  0
 40 53  2  0  0  0
 40 58  1  0  0  0
 41109  1  0  0  0
 41110  1  0  0  0
 41111  1  0  0  0
 41 48  1  0  0  0
 42 43  1  0  0  0
 42 66  1  0  0  0
 42112  1  0  0  0
 42113  1  0  0  0
 43 44  1  0  0  0
 44114  1  0  0  0
 45 46  2  0  0  0
 45115  1  0  0  0
 46116  1  0  0  0
 47117  1  0  0  0
 47118  1  0  0  0
 48 56  1  0  0  0
 48 65  1  0  0  0
 48119  1  0  0  0
 49 50  1  0  0  0
 49 53  1  0  0  0
 49 64  1  0  0  0
 49120  1  0  0  0
 50 51  1  0  0  0
 50121  1  0  0  0
 50122  1  0  0  0
 51 52  1  0  0  0
 51123  1  0  0  0
 51124  1  0  0  0
 52125  1  0  0  0
 52126  1  0  0  0
 53 54  1  0  0  0
 54 55  2  0  0  0
 54127  1  0  0  0
 55 57  1  0  0  0
 55128  1  0  0  0
 56 69  2  0  0  0
 57 58  2  0  0  0
 57129  1  0  0  0
 58130  1  0  0  0
 59 60  1  0  0  0
 59 61  1  0  0  0
 59 62  1  0  0  0
 60131  1  0  0  0
 60132  1  0  0  0
 60133  1  0  0  0
 61134  1  0  0  0
 61135  1  0  0  0
 61136  1  0  0  0
 62137  1  0  0  0
 62138  1  0  0  0
 62139  1  0  0  0
 63 65  1  0  0  0
 63140  1  0  0  0
 63141  1  0  0  0
 63142  1  0  0  0
 64143  1  0  0  0
 65144  1  0  0  0
 68 82  1  0  0  0
 71 72  2  0  0  0
 71 74  1  0  0  0
 71145  1  0  0  0
 72 76  1  0  0  0
 72146  1  0  0  0
 73 75  1  0  0  0
 73 76  2  0  0  0
 73147  1  0  0  0
 74 75  2  0  0  0
 74 78  1  0  0  0
 75 77  1  0  0  0
 76 85  1  0  0  0
 77 79  1  0  0  0
 77 80  1  0  0  0
 77148  1  0  0  0
 78 79  1  0  0  0
 78 84  1  0  0  0
 78149  1  0  0  0
 79 81  1  0  0  0
 79150  1  0  0  0
 80151  1  0  0  0
 80152  1  0  0  0
 80153  1  0  0  0
 81154  1  0  0  0
 81155  1  0  0  0
 81156  1  0  0  0
 82 83  1  0  0  0
 82157  1  0  0  0
 82158  1  0  0  0
 83 85  1  0  0  0
 83159  1  0  0  0
 83160  1  0  0  0
 84161  1  0  0  0
M  ISO  4   1 100  68 101  82 101  84 100
M  END
> <chiral flag>
0

> <version>
0

> <s_m_source_file>
/data/baiqing/PycharmProjects/Reinvent-master-3.2/result/LINK_invent/BTK/process_docking_weight1_custom_sum_contain_oxygen_bond_distance_aromatic_linkinvent_7_9_3/rearranged_h_0142.sdf

> <i_m_source_file_index>
85

> <r_mmod_Potential_Energy-OPLS-2005>
65.7992401123047

> <r_mmod_Stretch_Energy-OPLS-2005>
80.5527191162109

> <r_mmod_Bend_Energy-OPLS-2005>
203.706008911133

> <r_mmod_Torsional_Energy-OPLS-2005>
206.354187011719

> <r_mmod_Improper_Torsional_Energy-OPLS-2005>
4.26099395751953

> <r_mmod_Van_der_Waal_Energy-OPLS-2005>
142.704620361328

> <r_mmod_Electrostatic_Energy-OPLS-2005>
-424.170227050781

> <r_mmod_Solvation_Energy-OPLS-2005>
-203.738845825195

> <b_mmod_Minimization_Converged-OPLS-2005>
0

> <r_mmod_RMS_Derivative-OPLS-2005>
0.258974969387054

$$$$
86
                    3D
 Structure written by MMmdl.
173182  0  0  1  0            999 V2000
  -30.7473  -14.3508   20.6700 C   0  0  0  0  0  0
  -30.4195  -12.2716   19.3929 C   0  0  0  0  0  0
  -29.4866  -12.5243   18.1925 C   0  0  0  0  0  0
  -28.0088  -12.3866   18.6065 C   0  0  0  0  0  0
  -27.6699  -13.1972   19.8851 C   0  0  2  0  0  0
  -28.7052  -12.9117   20.9960 C   0  0  0  0  0  0
  -25.2625  -13.8151   20.5664 C   0  0  0  0  0  0
  -24.1855  -13.0441   20.9154 C   0  0  0  0  0  0
  -24.6389  -11.6902   20.8715 C   0  0  0  0  0  0
  -23.9048  -10.4293   21.0395 C   0  0  0  0  0  0
  -24.3606   -9.4212   21.9175 C   0  0  0  0  0  0
  -23.6286   -8.2249   22.0751 C   0  0  0  0  0  0
  -22.4268   -8.0283   21.3542 C   0  0  0  0  0  0
  -21.9899   -9.0251   20.4645 C   0  0  0  0  0  0
  -22.7224  -10.2133   20.3047 C   0  0  0  0  0  0
  -21.6853   -6.0732   22.5277 C   0  0  0  0  0  0
  -21.4013   -6.5636   23.8212 C   0  0  0  0  0  0
  -21.3659   -5.6789   24.9175 C   0  0  0  0  0  0
  -21.6045   -4.3051   24.7226 C   0  0  0  0  0  0
  -21.8820   -3.8144   23.4348 C   0  0  0  0  0  0
  -21.9194   -4.6959   22.3405 C   0  0  0  0  0  0
  -22.7880  -13.5254   21.1827 C   0  0  0  0  0  0
  -22.1661   -4.2147   21.0981 F   0  0  0  0  0  0
  -21.5631   -3.4536   25.7739 F   0  0  0  0  0  0
  -30.0518  -13.2048   20.4662 N   0  0  0  0  0  0
  -26.3059  -12.9301   20.3390 N   0  0  0  0  0  0
  -25.9314  -11.6467   20.5749 N   0  0  0  0  0  0
  -22.0511  -12.8247   22.0380 N   0  0  0  0  0  0
  -25.4375  -15.1863   20.4079 N   0  0  0  0  0  0
  -31.7755  -14.6456   20.0509 O   0  0  0  0  0  0
  -21.6637   -6.8876   21.4241 O   0  0  0  0  0  0
  -22.3568  -14.5565   20.6684 O   0  0  0  0  0  0
  -24.6056  -31.8700   23.2104 C   0  0  0  0  0  0
  -25.8978  -32.4835   23.8382 C   0  0  1  0  0  0
  -27.2765  -27.5075   20.1063 C   0  0  0  0  0  0
  -25.5849  -33.8624   24.2330 N   0  0  0  0  0  0
  -23.3895  -30.4881   21.5503 C   0  0  2  0  0  0
  -24.8400  -28.9555   20.1180 C   0  0  0  0  0  0
  -22.7368  -29.4650   22.5048 C   0  0  0  0  0  0
  -18.0257  -28.1366   22.8501 C   0  0  0  0  0  0
  -24.1478  -36.7335   23.2645 C   0  0  0  0  0  0
  -25.9018  -30.8719   21.3357 C   0  0  0  0  0  0
  -25.9888  -29.5090   20.6874 C   0  0  0  0  0  0
  -27.2037  -28.8095   20.6540 C   0  0  0  0  0  0
  -26.1033  -26.9508   19.5493 C   0  0  0  0  0  0
  -24.8902  -27.6741   19.5364 C   0  0  0  0  0  0
  -23.5920  -29.8062   20.1674 C   0  0  0  0  0  0
  -25.4096  -36.3122   24.0353 C   0  0  1  0  0  0
  -20.5841  -28.3626   23.1367 C   0  0  2  0  0  0
  -20.6748  -26.9378   22.5436 C   0  0  0  0  0  0
  -19.5737  -26.6384   21.5219 C   0  0  0  0  0  0
  -18.1912  -26.7921   22.1621 C   0  0  0  0  0  0
  -19.1505  -28.8818   23.2933 C   0  0  0  0  0  0
  -18.9436  -30.1433   23.8932 C   0  0  0  0  0  0
  -17.6439  -30.6581   24.0564 C   0  0  0  0  0  0
  -25.9018  -34.9485   23.5149 C   0  0  0  0  0  0
  -16.5330  -29.9086   23.6313 C   0  0  0  0  0  0
  -16.7249  -28.6500   23.0338 C   0  0  0  0  0  0
  -26.4457  -31.6595   25.0671 C   0  0  0  0  0  0
  -25.3770  -31.3677   26.1458 C   0  0  0  0  0  0
  -27.0273  -30.3058   24.5955 C   0  0  0  0  0  0
  -27.6040  -32.4326   25.7418 C   0  0  0  0  0  0
  -27.5588  -37.1815   24.8461 C   0  0  0  0  0  0
  -21.4109  -29.3002   22.3792 N   0  0  0  0  0  0
  -26.4291  -37.3799   23.9416 N   0  0  0  0  0  0
  -24.6511  -31.0892   22.0935 N   0  0  0  0  0  0
  -23.4185  -28.8209   23.3065 O   0  0  0  0  0  0
  -28.4292  -26.7459   20.0980 O   0  0  0  0  0  0
  -26.5591  -34.8939   22.4715 O   0  0  0  0  0  0
  -23.5281  -32.1388   23.7584 O   0  0  0  0  0  0
  -31.5522  -23.4967   22.9097 C   0  0  0  0  0  0
  -31.7153  -24.8538   22.5908 C   0  0  0  0  0  0
  -29.2572  -23.9444   23.5806 C   0  0  0  0  0  0
  -30.3101  -23.0309   23.3818 C   0  0  0  0  0  0
  -29.4259  -25.3182   23.3022 C   0  0  0  0  0  0
  -30.6605  -25.7730   22.7528 C   0  0  0  0  0  0
  -29.5574  -17.3953   20.7981 C   0  0  0  0  0  0
  -30.3821  -17.0611   23.1580 C   0  0  0  0  0  0
  -29.8464  -18.8949   20.8934 C   0  0  0  0  0  0
  -30.6805  -18.5665   23.2763 C   0  0  0  0  0  0
  -30.5127  -16.5939   21.6987 C   0  0  1  0  0  0
  -29.7762  -19.4142   22.3455 C   0  0  1  0  0  0
  -28.2785  -26.2402   23.6789 C   0  0  0  0  0  0
  -30.1040  -21.5508   23.6394 C   0  0  0  0  0  0
  -29.6942  -27.4024   20.2732 C   0  0  0  0  0  0
  -30.0473  -27.8786   21.7104 C   0  0  0  0  0  0
  -30.2035  -15.1782   21.5701 N   0  0  0  0  0  0
  -30.1366  -20.8469   22.3467 N   0  3  0  0  0  0
  -30.9780  -27.0678   22.4168 O   0  0  0  0  0  0
  -31.4632  -12.3741   19.0899 H   0  0  0  0  0  0
  -30.3155  -11.2448   19.7462 H   0  0  0  0  0  0
  -29.7149  -11.8264   17.3858 H   0  0  0  0  0  0
  -29.6643  -13.5237   17.7918 H   0  0  0  0  0  0
  -27.8064  -11.3276   18.7729 H   0  0  0  0  0  0
  -27.3594  -12.6932   17.7851 H   0  0  0  0  0  0
  -27.7375  -14.2543   19.6281 H   0  0  0  0  0  0
  -28.6604  -11.8615   21.2879 H   0  0  0  0  0  0
  -28.4544  -13.4649   21.9014 H   0  0  0  0  0  0
  -25.2754   -9.5694   22.4741 H   0  0  0  0  0  0
  -24.0000   -7.4642   22.7467 H   0  0  0  0  0  0
  -21.0832   -8.8765   19.8947 H   0  0  0  0  0  0
  -22.3681  -10.9667   19.6151 H   0  0  0  0  0  0
  -21.1999   -7.6142   23.9717 H   0  0  0  0  0  0
  -21.1481   -6.0516   25.9078 H   0  0  0  0  0  0
  -22.0598   -2.7606   23.2849 H   0  0  0  0  0  0
  -22.4113  -11.9907   22.4776 H   0  0  0  0  0  0
  -21.1126  -13.1277   22.2569 H   0  0  0  0  0  0
  -24.6755  -15.8473   20.5145 H   0  0  0  0  0  0
  -26.2989  -15.6208   20.1014 H   0  0  0  0  0  0
  -26.7051  -32.5604   23.1164 H   0  0  0  0  0  0
  -24.9971  -33.9764   25.0458 H   0  0  0  0  0  0
  -22.6736  -31.2998   21.4097 H   0  0  0  0  0  0
  -23.3726  -35.9682   23.3310 H   0  0  0  0  0  0
  -24.3576  -36.8950   22.2061 H   0  0  0  0  0  0
  -23.7240  -37.6551   23.6648 H   0  0  0  0  0  0
  -25.9881  -31.6393   20.5647 H   0  0  0  0  0  0
  -26.7970  -30.9409   21.9415 H   0  0  0  0  0  0
  -28.0652  -29.3180   21.0493 H   0  0  0  0  0  0
  -26.1343  -25.9580   19.1221 H   0  0  0  0  0  0
  -24.0056  -27.2351   19.0963 H   0  0  0  0  0  0
  -23.6828  -30.5709   19.3957 H   0  0  0  0  0  0
  -22.7218  -29.2110   19.8864 H   0  0  0  0  0  0
  -25.1270  -36.1992   25.0847 H   0  0  0  0  0  0
  -20.9928  -28.3156   24.1489 H   0  0  0  0  0  0
  -20.5647  -26.2228   23.3605 H   0  0  0  0  0  0
  -21.6619  -26.7424   22.1235 H   0  0  0  0  0  0
  -19.6899  -25.6299   21.1241 H   0  0  0  0  0  0
  -19.6687  -27.3196   20.6753 H   0  0  0  0  0  0
  -17.4192  -26.6681   21.4006 H   0  0  0  0  0  0
  -18.0292  -26.0049   22.9000 H   0  0  0  0  0  0
  -19.7906  -30.7250   24.2316 H   0  0  0  0  0  0
  -17.4985  -31.6265   24.5158 H   0  0  0  0  0  0
  -15.5333  -30.3001   23.7620 H   0  0  0  0  0  0
  -15.8644  -28.0841   22.7026 H   0  0  0  0  0  0
  -24.5879  -30.7099   25.7798 H   0  0  0  0  0  0
  -24.9034  -32.2836   26.5005 H   0  0  0  0  0  0
  -25.8153  -30.8753   27.0148 H   0  0  0  0  0  0
  -26.2763  -29.6822   24.1089 H   0  0  0  0  0  0
  -27.4176  -29.7280   25.4346 H   0  0  0  0  0  0
  -27.8534  -30.4418   23.8970 H   0  0  0  0  0  0
  -27.2628  -33.3577   26.2081 H   0  0  0  0  0  0
  -28.3778  -32.6992   25.0205 H   0  0  0  0  0  0
  -28.0790  -31.8420   26.5259 H   0  0  0  0  0  0
  -28.2597  -38.0120   24.7514 H   0  0  0  0  0  0
  -28.1090  -36.2655   24.6260 H   0  0  0  0  0  0
  -27.2317  -37.1449   25.8867 H   0  0  0  0  0  0
  -20.9265  -29.8719   21.7013 H   0  0  0  0  0  0
  -26.0190  -38.2880   24.1421 H   0  0  0  0  0  0
  -32.3819  -22.8186   22.7674 H   0  0  0  0  0  0
  -32.6685  -25.1932   22.2093 H   0  0  0  0  0  0
  -28.3137  -23.5904   23.9740 H   0  0  0  0  0  0
  -29.6578  -17.0758   19.7592 H   0  0  0  0  0  0
  -28.5205  -17.2023   21.0794 H   0  0  0  0  0  0
  -29.3780  -16.8564   23.5340 H   0  0  0  0  0  0
  -31.0694  -16.5022   23.7946 H   0  0  0  0  0  0
  -29.1372  -19.4341   20.2633 H   0  0  0  0  0  0
  -30.8363  -19.0873   20.4758 H   0  0  0  0  0  0
  -31.7307  -18.7419   23.0392 H   0  0  0  0  0  0
  -30.5444  -18.8636   24.3169 H   0  0  0  0  0  0
  -31.5416  -16.7757   21.3789 H   0  0  0  0  0  0
  -28.7448  -19.3271   22.6928 H   0  0  0  0  0  0
  -28.6427  -27.1291   24.1944 H   0  0  0  0  0  0
  -27.7007  -26.5275   22.8012 H   0  0  0  0  0  0
  -27.5897  -25.7488   24.3650 H   0  0  0  0  0  0
  -29.1487  -21.3808   24.1387 H   0  0  0  0  0  0
  -30.8891  -21.1890   24.3040 H   0  0  0  0  0  0
  -30.4769  -26.7315   19.9168 H   0  0  0  0  0  0
  -29.7265  -28.2545   19.5930 H   0  0  0  0  0  0
  -29.1915  -28.1337   22.3218 H   0  0  0  0  0  0
  -30.5664  -28.8310   21.5989 H   0  0  0  0  0  0
  -29.3935  -14.8311   22.0618 H   0  0  0  0  0  0
  -29.4922  -21.3279   21.7403 H   0  0  0  0  0  0
  -31.0555  -20.9615   21.9534 H   0  0  0  0  0  0
  1 25  1  0  0  0
  1 30  2  0  0  0
  1 87  1  0  0  0
  2  3  1  0  0  0
  2 25  1  0  0  0
  2 90  1  0  0  0
  2 91  1  0  0  0
  3  4  1  0  0  0
  3 92  1  0  0  0
  3 93  1  0  0  0
  4  5  1  0  0  0
  4 94  1  0  0  0
  4 95  1  0  0  0
  5  6  1  0  0  0
  5 26  1  0  0  0
  5 96  1  0  0  0
  6 25  1  0  0  0
  6 97  1  0  0  0
  6 98  1  0  0  0
  7  8  2  0  0  0
  7 26  1  0  0  0
  7 29  1  0  0  0
  8  9  1  0  0  0
  8 22  1  0  0  0
  9 10  1  0  0  0
  9 27  2  0  0  0
 10 11  2  0  0  0
 10 15  1  0  0  0
 11 12  1  0  0  0
 11 99  1  0  0  0
 12 13  2  0  0  0
 12100  1  0  0  0
 13 14  1  0  0  0
 13 31  1  0  0  0
 14 15  2  0  0  0
 14101  1  0  0  0
 15102  1  0  0  0
 16 17  2  0  0  0
 16 21  1  0  0  0
 16 31  1  0  0  0
 17 18  1  0  0  0
 17103  1  0  0  0
 18 19  2  0  0  0
 18104  1  0  0  0
 19 20  1  0  0  0
 19 24  1  0  0  0
 20 21  2  0  0  0
 20105  1  0  0  0
 21 23  1  0  0  0
 22 28  1  0  0  0
 22 32  2  0  0  0
 26 27  1  0  0  0
 28106  1  0  0  0
 28107  1  0  0  0
 29108  1  0  0  0
 29109  1  0  0  0
 33 34  1  0  0  0
 33 66  1  0  0  0
 33 70  2  0  0  0
 34 36  1  0  0  0
 34 59  1  0  0  0
 34110  1  0  0  0
 35 44  2  0  0  0
 35 45  1  0  0  0
 35 68  1  0  0  0
 36 56  1  0  0  0
 36111  1  0  0  0
 37 39  1  0  0  0
 37 47  1  0  0  0
 37 66  1  0  0  0
 37112  1  0  0  0
 38 43  2  0  0  0
 38 46  1  0  0  0
 38 47  1  0  0  0
 39 64  1  0  0  0
 39 67  2  0  0  0
 40 52  1  0  0  0
 40 53  2  0  0  0
 40 58  1  0  0  0
 41113  1  0  0  0
 41114  1  0  0  0
 41115  1  0  0  0
 41 48  1  0  0  0
 42 43  1  0  0  0
 42 66  1  0  0  0
 42116  1  0  0  0
 42117  1  0  0  0
 43 44  1  0  0  0
 44118  1  0  0  0
 45 46  2  0  0  0
 45119  1  0  0  0
 46120  1  0  0  0
 47121  1  0  0  0
 47122  1  0  0  0
 48 56  1  0  0  0
 48 65  1  0  0  0
 48123  1  0  0  0
 49 50  1  0  0  0
 49 53  1  0  0  0
 49 64  1  0  0  0
 49124  1  0  0  0
 50 51  1  0  0  0
 50125  1  0  0  0
 50126  1  0  0  0
 51 52  1  0  0  0
 51127  1  0  0  0
 51128  1  0  0  0
 52129  1  0  0  0
 52130  1  0  0  0
 53 54  1  0  0  0
 54 55  2  0  0  0
 54131  1  0  0  0
 55 57  1  0  0  0
 55132  1  0  0  0
 56 69  2  0  0  0
 57 58  2  0  0  0
 57133  1  0  0  0
 58134  1  0  0  0
 59 60  1  0  0  0
 59 61  1  0  0  0
 59 62  1  0  0  0
 60135  1  0  0  0
 60136  1  0  0  0
 60137  1  0  0  0
 61138  1  0  0  0
 61139  1  0  0  0
 61140  1  0  0  0
 62141  1  0  0  0
 62142  1  0  0  0
 62143  1  0  0  0
 63 65  1  0  0  0
 63144  1  0  0  0
 63145  1  0  0  0
 63146  1  0  0  0
 64147  1  0  0  0
 65148  1  0  0  0
 68 85  1  0  0  0
 71 72  2  0  0  0
 71 74  1  0  0  0
 71149  1  0  0  0
 72 76  1  0  0  0
 72150  1  0  0  0
 73 74  2  0  0  0
 73 75  1  0  0  0
 73151  1  0  0  0
 74 84  1  0  0  0
 75 76  2  0  0  0
 75 83  1  0  0  0
 76 89  1  0  0  0
 77 79  1  0  0  0
 77 81  1  0  0  0
 77152  1  0  0  0
 77153  1  0  0  0
 78 80  1  0  0  0
 78 81  1  0  0  0
 78154  1  0  0  0
 78155  1  0  0  0
 79 82  1  0  0  0
 79156  1  0  0  0
 79157  1  0  0  0
 80 82  1  0  0  0
 80158  1  0  0  0
 80159  1  0  0  0
 81 87  1  0  0  0
 81160  1  0  0  0
 82 88  1  0  0  0
 82161  1  0  0  0
 83162  1  0  0  0
 83163  1  0  0  0
 83164  1  0  0  0
 84 88  1  0  0  0
 84165  1  0  0  0
 84166  1  0  0  0
 85 86  1  0  0  0
 85167  1  0  0  0
 85168  1  0  0  0
 86 89  1  0  0  0
 86169  1  0  0  0
 86170  1  0  0  0
 87171  1  0  0  0
 88172  1  0  0  0
 88173  1  0  0  0
M  CHG  1  88   1
M  ISO  4   1 100  68 101  85 101  87 100
M  END
> <chiral flag>
0

> <version>
0

> <s_m_source_file>
/data/baiqing/PycharmProjects/Reinvent-master-3.2/result/LINK_invent/BTK/process_docking_weight1_custom_sum_contain_oxygen_bond_distance_aromatic_linkinvent_7_9_3/rearranged_h_0142.sdf

> <i_m_source_file_index>
86

> <r_mmod_Potential_Energy-OPLS-2005>
-248.349822998047

> <r_mmod_Stretch_Energy-OPLS-2005>
34.6373481750488

> <r_mmod_Bend_Energy-OPLS-2005>
123.253929138184

> <r_mmod_Torsional_Energy-OPLS-2005>
213.421295166016

> <r_mmod_Improper_Torsional_Energy-OPLS-2005>
2.71670579910278

> <r_mmod_Van_der_Waal_Energy-OPLS-2005>
161.386184692383

> <r_mmod_Electrostatic_Energy-OPLS-2005>
-330.951690673828

> <r_mmod_Solvation_Energy-OPLS-2005>
-459.980133056641

> <b_mmod_Minimization_Converged-OPLS-2005>
0

> <r_mmod_RMS_Derivative-OPLS-2005>
1.21543622016907

$$$$
87
                    3D
 Structure written by MMmdl.
159167  0  0  1  0            999 V2000
  -30.6415  -14.6905   20.4758 C   0  0  0  0  0  0
  -30.4495  -12.4288   19.4455 C   0  0  0  0  0  0
  -29.5122  -12.4818   18.2180 C   0  0  0  0  0  0
  -28.0415  -12.3090   18.6489 C   0  0  0  0  0  0
  -27.6505  -13.2188   19.8442 C   0  0  2  0  0  0
  -28.7017  -13.1376   20.9736 C   0  0  0  0  0  0
  -25.2577  -13.8194   20.5635 C   0  0  0  0  0  0
  -24.1833  -13.0474   20.9175 C   0  0  0  0  0  0
  -24.6414  -11.6932   20.8763 C   0  0  0  0  0  0
  -23.9082  -10.4311   21.0454 C   0  0  0  0  0  0
  -24.3632   -9.4222   21.9231 C   0  0  0  0  0  0
  -23.6278   -8.2279   22.0805 C   0  0  0  0  0  0
  -22.4264   -8.0324   21.3593 C   0  0  0  0  0  0
  -21.9900   -9.0305   20.4709 C   0  0  0  0  0  0
  -22.7247  -10.2180   20.3104 C   0  0  0  0  0  0
  -21.6850   -6.0756   22.5287 C   0  0  0  0  0  0
  -21.4018   -6.5651   23.8224 C   0  0  0  0  0  0
  -21.3649   -5.6802   24.9184 C   0  0  0  0  0  0
  -21.6042   -4.3061   24.7221 C   0  0  0  0  0  0
  -21.8820   -3.8163   23.4336 C   0  0  0  0  0  0
  -21.9182   -4.6984   22.3398 C   0  0  0  0  0  0
  -22.7872  -13.5296   21.1773 C   0  0  0  0  0  0
  -22.1654   -4.2189   21.0972 F   0  0  0  0  0  0
  -21.5611   -3.4533   25.7716 F   0  0  0  0  0  0
  -30.0046  -13.4780   20.3861 N   0  0  0  0  0  0
  -26.2999  -12.9369   20.3263 N   0  0  0  0  0  0
  -25.9343  -11.6529   20.5774 N   0  0  0  0  0  0
  -22.0448  -12.8393   22.0342 N   0  0  0  0  0  0
  -25.4288  -15.1915   20.4017 N   0  0  0  0  0  0
  -31.8334  -14.8046   20.1855 O   0  0  0  0  0  0
  -21.6635   -6.8915   21.4265 O   0  0  0  0  0  0
  -22.3576  -14.5598   20.6558 O   0  0  0  0  0  0
  -24.6291  -31.8581   23.1989 C   0  0  0  0  0  0
  -25.9126  -32.4771   23.8320 C   0  0  1  0  0  0
  -27.2331  -27.3111   20.1182 C   0  0  0  0  0  0
  -25.5939  -33.8572   24.2246 N   0  0  0  0  0  0
  -23.4244  -30.4794   21.5418 C   0  0  2  0  0  0
  -24.8730  -28.9282   20.1150 C   0  0  0  0  0  0
  -22.7485  -29.4608   22.4907 C   0  0  0  0  0  0
  -18.0296  -28.1400   22.8482 C   0  0  0  0  0  0
  -24.1494  -36.7278   23.2634 C   0  0  0  0  0  0
  -25.9663  -30.7845   21.3725 C   0  0  0  0  0  0
  -26.0433  -29.4114   20.7143 C   0  0  0  0  0  0
  -27.2305  -28.6168   20.7008 C   0  0  0  0  0  0
  -26.0406  -26.8759   19.5031 C   0  0  0  0  0  0
  -24.8724  -27.6649   19.5019 C   0  0  0  0  0  0
  -23.6426  -29.8117   20.1586 C   0  0  0  0  0  0
  -25.4124  -36.3067   24.0318 C   0  0  1  0  0  0
  -20.5896  -28.3694   23.1280 C   0  0  2  0  0  0
  -20.6776  -26.9416   22.5411 C   0  0  0  0  0  0
  -19.5754  -26.6394   21.5210 C   0  0  0  0  0  0
  -18.1935  -26.7945   22.1615 C   0  0  0  0  0  0
  -19.1545  -28.8866   23.2882 C   0  0  0  0  0  0
  -18.9473  -30.1455   23.8912 C   0  0  0  0  0  0
  -17.6467  -30.6590   24.0581 C   0  0  0  0  0  0
  -25.9064  -34.9452   23.5078 C   0  0  0  0  0  0
  -16.5358  -29.9092   23.6331 C   0  0  0  0  0  0
  -16.7278  -28.6516   23.0345 C   0  0  0  0  0  0
  -26.4528  -31.6598   25.0693 C   0  0  0  0  0  0
  -25.3774  -31.3764   26.1427 C   0  0  0  0  0  0
  -27.0368  -30.3022   24.6158 C   0  0  0  0  0  0
  -27.6091  -32.4361   25.7430 C   0  0  0  0  0  0
  -27.5591  -37.1769   24.8452 C   0  0  0  0  0  0
  -21.4200  -29.3048   22.3653 N   0  0  0  0  0  0
  -26.4291  -37.3775   23.9419 N   0  0  0  0  0  0
  -24.6916  -31.0580   22.0947 N   0  0  0  0  0  0
  -23.4198  -28.8152   23.3001 O   0  0  0  0  0  0
  -28.3469  -26.4545   20.1076 O   0  0  0  0  0  0
  -26.5636  -34.8925   22.4643 O   0  0  0  0  0  0
  -23.5449  -32.1387   23.7306 O   0  0  0  0  0  0
  -30.7081  -22.1152   19.8663 C   0  0  0  0  0  0
  -30.3667  -23.6356   20.0036 C   0  0  0  0  0  0
  -28.4309  -22.3694   20.5923 C   0  0  0  0  0  0
  -29.4190  -21.2683   20.0409 C   0  0  2  0  0  0
  -28.8334  -23.7905   20.0297 C   0  0  1  0  0  0
  -28.6498  -25.3097   22.1808 C   0  0  0  0  0  0
  -29.6077  -19.9035   20.8819 C   0  0  0  0  0  0
  -29.6661  -18.4583   20.1819 C   0  0  0  0  0  0
  -30.2483  -17.2310   21.0409 C   0  0  0  0  0  0
  -28.1976  -25.1084   20.7235 C   0  0  1  0  0  0
  -29.8621  -15.8024   20.7101 N   0  0  0  0  0  0
  -31.4860  -12.5673   19.1331 H   0  0  0  0  0  0
  -30.4076  -11.4514   19.9279 H   0  0  0  0  0  0
  -29.7794  -11.7003   17.5055 H   0  0  0  0  0  0
  -29.6394  -13.4303   17.6923 H   0  0  0  0  0  0
  -27.9075  -11.2630   18.9275 H   0  0  0  0  0  0
  -27.3767  -12.4797   17.8012 H   0  0  0  0  0  0
  -27.6485  -14.2401   19.4620 H   0  0  0  0  0  0
  -28.7304  -12.1365   21.4038 H   0  0  0  0  0  0
  -28.4444  -13.8150   21.7909 H   0  0  0  0  0  0
  -25.2806   -9.5677   22.4778 H   0  0  0  0  0  0
  -23.9982   -7.4670   22.7536 H   0  0  0  0  0  0
  -21.0811   -8.8856   19.9017 H   0  0  0  0  0  0
  -22.3743  -10.9723   19.6200 H   0  0  0  0  0  0
  -21.2041   -7.6168   23.9747 H   0  0  0  0  0  0
  -21.1451   -6.0527   25.9091 H   0  0  0  0  0  0
  -22.0601   -2.7626   23.2826 H   0  0  0  0  0  0
  -22.3953  -12.0087   22.4872 H   0  0  0  0  0  0
  -21.1099  -13.1585   22.2459 H   0  0  0  0  0  0
  -24.6605  -15.8465   20.5121 H   0  0  0  0  0  0
  -26.2723  -15.6317   20.0592 H   0  0  0  0  0  0
  -26.7188  -32.5442   23.1059 H   0  0  0  0  0  0
  -25.0102  -33.9718   25.0403 H   0  0  0  0  0  0
  -22.7206  -31.3020   21.3954 H   0  0  0  0  0  0
  -23.3769  -35.9596   23.3282 H   0  0  0  0  0  0
  -24.3580  -36.8922   22.2051 H   0  0  0  0  0  0
  -23.7238  -37.6467   23.6679 H   0  0  0  0  0  0
  -26.1055  -31.5491   20.6071 H   0  0  0  0  0  0
  -26.8441  -30.8310   22.0042 H   0  0  0  0  0  0
  -28.1333  -28.9873   21.1668 H   0  0  0  0  0  0
  -26.0047  -25.9061   19.0278 H   0  0  0  0  0  0
  -23.9744  -27.2873   19.0324 H   0  0  0  0  0  0
  -23.7677  -30.5899   19.4041 H   0  0  0  0  0  0
  -22.7622  -29.2455   19.8509 H   0  0  0  0  0  0
  -25.1307  -36.1900   25.0809 H   0  0  0  0  0  0
  -21.0000  -28.3281   24.1394 H   0  0  0  0  0  0
  -20.5669  -26.2308   23.3612 H   0  0  0  0  0  0
  -21.6643  -26.7429   22.1215 H   0  0  0  0  0  0
  -19.6916  -25.6305   21.1233 H   0  0  0  0  0  0
  -19.6709  -27.3210   20.6749 H   0  0  0  0  0  0
  -17.4207  -26.6706   21.4013 H   0  0  0  0  0  0
  -18.0325  -26.0086   22.9004 H   0  0  0  0  0  0
  -19.7943  -30.7275   24.2296 H   0  0  0  0  0  0
  -17.5020  -31.6266   24.5176 H   0  0  0  0  0  0
  -15.5362  -30.3002   23.7651 H   0  0  0  0  0  0
  -15.8673  -28.0838   22.7053 H   0  0  0  0  0  0
  -24.5847  -30.7249   25.7721 H   0  0  0  0  0  0
  -24.9099  -32.2964   26.4954 H   0  0  0  0  0  0
  -25.8076  -30.8805   27.0133 H   0  0  0  0  0  0
  -26.2919  -29.6746   24.1238 H   0  0  0  0  0  0
  -27.4132  -29.7314   25.4655 H   0  0  0  0  0  0
  -27.8774  -30.4306   23.9330 H   0  0  0  0  0  0
  -27.2676  -33.3612   26.2089 H   0  0  0  0  0  0
  -28.3820  -32.7029   25.0205 H   0  0  0  0  0  0
  -28.0868  -31.8466   26.5264 H   0  0  0  0  0  0
  -28.2588  -38.0090   24.7549 H   0  0  0  0  0  0
  -28.1111  -36.2627   24.6210 H   0  0  0  0  0  0
  -27.2318  -37.1330   25.8855 H   0  0  0  0  0  0
  -20.9370  -29.8773   21.6867 H   0  0  0  0  0  0
  -26.0164  -38.2834   24.1486 H   0  0  0  0  0  0
  -31.4514  -21.8541   20.6221 H   0  0  0  0  0  0
  -31.1797  -21.9055   18.9059 H   0  0  0  0  0  0
  -30.8078  -24.2206   19.1951 H   0  0  0  0  0  0
  -30.7959  -24.0067   20.9338 H   0  0  0  0  0  0
  -28.4874  -22.3774   21.6803 H   0  0  0  0  0  0
  -27.3990  -22.1273   20.3315 H   0  0  0  0  0  0
  -29.0593  -21.0008   19.0462 H   0  0  0  0  0  0
  -28.5071  -23.8055   18.9881 H   0  0  0  0  0  0
  -28.5612  -24.4033   22.7778 H   0  0  0  0  0  0
  -28.0354  -26.0709   22.6637 H   0  0  0  0  0  0
  -29.6831  -25.6509   22.2346 H   0  0  0  0  0  0
  -28.7893  -19.8579   21.6016 H   0  0  0  0  0  0
  -30.4967  -20.0065   21.5068 H   0  0  0  0  0  0
  -30.2583  -18.5383   19.2703 H   0  0  0  0  0  0
  -28.6578  -18.2117   19.8509 H   0  0  0  0  0  0
  -29.9239  -17.3778   22.0718 H   0  0  0  0  0  0
  -31.3345  -17.3161   21.0820 H   0  0  0  0  0  0
  -27.1327  -24.8834   20.7809 H   0  0  0  0  0  0
  -28.8809  -15.5956   20.8160 H   0  0  0  0  0  0
  1 25  1  0  0  0
  1 30  2  0  0  0
  1 81  1  0  0  0
  2  3  1  0  0  0
  2 25  1  0  0  0
  2 82  1  0  0  0
  2 83  1  0  0  0
  3  4  1  0  0  0
  3 84  1  0  0  0
  3 85  1  0  0  0
  4  5  1  0  0  0
  4 86  1  0  0  0
  4 87  1  0  0  0
  5  6  1  0  0  0
  5 26  1  0  0  0
  5 88  1  0  0  0
  6 25  1  0  0  0
  6 89  1  0  0  0
  6 90  1  0  0  0
  7  8  2  0  0  0
  7 26  1  0  0  0
  7 29  1  0  0  0
  8  9  1  0  0  0
  8 22  1  0  0  0
  9 10  1  0  0  0
  9 27  2  0  0  0
 10 11  2  0  0  0
 10 15  1  0  0  0
 11 12  1  0  0  0
 11 91  1  0  0  0
 12 13  2  0  0  0
 12 92  1  0  0  0
 13 14  1  0  0  0
 13 31  1  0  0  0
 14 15  2  0  0  0
 14 93  1  0  0  0
 15 94  1  0  0  0
 16 17  2  0  0  0
 16 21  1  0  0  0
 16 31  1  0  0  0
 17 18  1  0  0  0
 17 95  1  0  0  0
 18 19  2  0  0  0
 18 96  1  0  0  0
 19 20  1  0  0  0
 19 24  1  0  0  0
 20 21  2  0  0  0
 20 97  1  0  0  0
 21 23  1  0  0  0
 22 28  1  0  0  0
 22 32  2  0  0  0
 26 27  1  0  0  0
 28 98  1  0  0  0
 28 99  1  0  0  0
 29100  1  0  0  0
 29101  1  0  0  0
 33 34  1  0  0  0
 33 66  1  0  0  0
 33 70  2  0  0  0
 34 36  1  0  0  0
 34 59  1  0  0  0
 34102  1  0  0  0
 35 44  2  0  0  0
 35 45  1  0  0  0
 35 68  1  0  0  0
 36 56  1  0  0  0
 36103  1  0  0  0
 37 39  1  0  0  0
 37 47  1  0  0  0
 37 66  1  0  0  0
 37104  1  0  0  0
 38 43  2  0  0  0
 38 46  1  0  0  0
 38 47  1  0  0  0
 39 64  1  0  0  0
 39 67  2  0  0  0
 40 52  1  0  0  0
 40 53  2  0  0  0
 40 58  1  0  0  0
 41105  1  0  0  0
 41106  1  0  0  0
 41107  1  0  0  0
 41 48  1  0  0  0
 42 43  1  0  0  0
 42 66  1  0  0  0
 42108  1  0  0  0
 42109  1  0  0  0
 43 44  1  0  0  0
 44110  1  0  0  0
 45 46  2  0  0  0
 45111  1  0  0  0
 46112  1  0  0  0
 47113  1  0  0  0
 47114  1  0  0  0
 48 56  1  0  0  0
 48 65  1  0  0  0
 48115  1  0  0  0
 49 50  1  0  0  0
 49 53  1  0  0  0
 49 64  1  0  0  0
 49116  1  0  0  0
 50 51  1  0  0  0
 50117  1  0  0  0
 50118  1  0  0  0
 51 52  1  0  0  0
 51119  1  0  0  0
 51120  1  0  0  0
 52121  1  0  0  0
 52122  1  0  0  0
 53 54  1  0  0  0
 54 55  2  0  0  0
 54123  1  0  0  0
 55 57  1  0  0  0
 55124  1  0  0  0
 56 69  2  0  0  0
 57 58  2  0  0  0
 57125  1  0  0  0
 58126  1  0  0  0
 59 60  1  0  0  0
 59 61  1  0  0  0
 59 62  1  0  0  0
 60127  1  0  0  0
 60128  1  0  0  0
 60129  1  0  0  0
 61130  1  0  0  0
 61131  1  0  0  0
 61132  1  0  0  0
 62133  1  0  0  0
 62134  1  0  0  0
 62135  1  0  0  0
 63 65  1  0  0  0
 63136  1  0  0  0
 63137  1  0  0  0
 63138  1  0  0  0
 64139  1  0  0  0
 65140  1  0  0  0
 68 80  1  0  0  0
 71 72  1  0  0  0
 71 74  1  0  0  0
 71141  1  0  0  0
 71142  1  0  0  0
 72143  1  0  0  0
 72144  1  0  0  0
 72 75  1  0  0  0
 73 74  1  0  0  0
 73 75  1  0  0  0
 73145  1  0  0  0
 73146  1  0  0  0
 74 77  1  0  0  0
 74147  1  0  0  0
 75 80  1  0  0  0
 75148  1  0  0  0
 76149  1  0  0  0
 76150  1  0  0  0
 76151  1  0  0  0
 76 80  1  0  0  0
 77 78  1  0  0  0
 77152  1  0  0  0
 77153  1  0  0  0
 78 79  1  0  0  0
 78154  1  0  0  0
 78155  1  0  0  0
 79 81  1  0  0  0
 79156  1  0  0  0
 79157  1  0  0  0
 80158  1  0  0  0
 81159  1  0  0  0
M  ISO  4   1 100  68 101  80 101  81 100
M  END
> <chiral flag>
0

> <version>
0

> <s_m_source_file>
/data/baiqing/PycharmProjects/Reinvent-master-3.2/result/LINK_invent/BTK/process_docking_weight1_custom_sum_contain_oxygen_bond_distance_aromatic_linkinvent_7_9_3/rearranged_h_0142.sdf

> <i_m_source_file_index>
87

> <r_mmod_Potential_Energy-OPLS-2005>
178.490005493164

> <r_mmod_Stretch_Energy-OPLS-2005>
95.618034362793

> <r_mmod_Bend_Energy-OPLS-2005>
174.393402099609

> <r_mmod_Torsional_Energy-OPLS-2005>
295.728088378906

> <r_mmod_Improper_Torsional_Energy-OPLS-2005>
4.22389507293701

> <r_mmod_Van_der_Waal_Energy-OPLS-2005>
114.675743103027

> <r_mmod_Electrostatic_Energy-OPLS-2005>
-371.556060791016

> <r_mmod_Solvation_Energy-OPLS-2005>
-196.868301391602

> <b_mmod_Minimization_Converged-OPLS-2005>
0

> <r_mmod_RMS_Derivative-OPLS-2005>
3.9281542301178

$$$$
88
                    3D
 Structure written by MMmdl.
174184  0  0  1  0            999 V2000
  -30.6189  -14.5619   20.5208 C   0  0  0  0  0  0
  -30.4214  -12.3439   19.4574 C   0  0  0  0  0  0
  -29.5093  -12.5026   18.2201 C   0  0  0  0  0  0
  -28.0240  -12.3622   18.6104 C   0  0  0  0  0  0
  -27.6497  -13.2111   19.8587 C   0  0  2  0  0  0
  -28.6776  -13.0325   20.9958 C   0  0  0  0  0  0
  -25.2532  -13.8202   20.5709 C   0  0  0  0  0  0
  -24.1808  -13.0467   20.9175 C   0  0  0  0  0  0
  -24.6363  -11.6936   20.8732 C   0  0  0  0  0  0
  -23.9026  -10.4322   21.0385 C   0  0  0  0  0  0
  -24.3606   -9.4230   21.9149 C   0  0  0  0  0  0
  -23.6305   -8.2249   22.0714 C   0  0  0  0  0  0
  -22.4271   -8.0269   21.3538 C   0  0  0  0  0  0
  -21.9905   -9.0209   20.4610 C   0  0  0  0  0  0
  -22.7196  -10.2118   20.3019 C   0  0  0  0  0  0
  -21.6845   -6.0748   22.5274 C   0  0  0  0  0  0
  -21.3981   -6.5634   23.8194 C   0  0  0  0  0  0
  -21.3672   -5.6793   24.9159 C   0  0  0  0  0  0
  -21.6037   -4.3056   24.7212 C   0  0  0  0  0  0
  -21.8827   -3.8156   23.4323 C   0  0  0  0  0  0
  -21.9187   -4.6982   22.3381 C   0  0  0  0  0  0
  -22.7787  -13.5162   21.1815 C   0  0  0  0  0  0
  -22.1710   -4.2167   21.0967 F   0  0  0  0  0  0
  -21.5609   -3.4536   25.7726 F   0  0  0  0  0  0
  -30.0034  -13.3490   20.4482 N   0  0  0  0  0  0
  -26.2947  -12.9385   20.3272 N   0  0  0  0  0  0
  -25.9294  -11.6542   20.5738 N   0  0  0  0  0  0
  -22.0440  -12.8151   22.0377 N   0  0  0  0  0  0
  -25.4287  -15.1936   20.4082 N   0  0  0  0  0  0
  -31.7807  -14.7309   20.1392 O   0  0  0  0  0  0
  -21.6603   -6.8902   21.4263 O   0  0  0  0  0  0
  -22.3472  -14.5508   20.6698 O   0  0  0  0  0  0
  -24.6147  -31.8693   23.2125 C   0  0  0  0  0  0
  -25.9022  -32.4841   23.8393 C   0  0  1  0  0  0
  -27.2286  -27.4600   20.0536 C   0  0  0  0  0  0
  -25.5856  -33.8644   24.2317 N   0  0  0  0  0  0
  -23.3970  -30.4909   21.5645 C   0  0  2  0  0  0
  -24.8335  -28.9588   20.1188 C   0  0  0  0  0  0
  -22.7360  -29.4606   22.5074 C   0  0  0  0  0  0
  -18.0157  -28.1457   22.8467 C   0  0  0  0  0  0
  -24.1477  -36.7339   23.2635 C   0  0  0  0  0  0
  -25.9255  -30.8409   21.3555 C   0  0  0  0  0  0
  -25.9974  -29.4760   20.6995 C   0  0  0  0  0  0
  -27.1966  -28.7325   20.6622 C   0  0  0  0  0  0
  -26.0456  -26.9525   19.4628 C   0  0  0  0  0  0
  -24.8493  -27.6949   19.5039 C   0  0  0  0  0  0
  -23.5959  -29.8289   20.1783 C   0  0  0  0  0  0
  -25.4098  -36.3117   24.0314 C   0  0  1  0  0  0
  -20.5767  -28.3638   23.1324 C   0  0  2  0  0  0
  -20.6592  -26.9367   22.5379 C   0  0  0  0  0  0
  -19.5493  -26.6310   21.5246 C   0  0  0  0  0  0
  -18.1651  -26.8020   22.1513 C   0  0  0  0  0  0
  -19.1464  -28.8843   23.2871 C   0  0  0  0  0  0
  -18.9491  -30.1440   23.8907 C   0  0  0  0  0  0
  -17.6578  -30.6722   24.0528 C   0  0  0  0  0  0
  -25.9007  -34.9478   23.5102 C   0  0  0  0  0  0
  -16.5404  -29.9266   23.6438 C   0  0  0  0  0  0
  -16.7195  -28.6660   23.0439 C   0  0  0  0  0  0
  -26.4442  -31.6588   25.0699 C   0  0  0  0  0  0
  -25.3690  -31.3726   26.1451 C   0  0  0  0  0  0
  -27.0282  -30.3031   24.6027 C   0  0  0  0  0  0
  -27.6010  -32.4306   25.7479 C   0  0  0  0  0  0
  -27.5581  -37.1821   24.8469 C   0  0  0  0  0  0
  -21.4091  -29.3064   22.3827 N   0  0  0  0  0  0
  -26.4305  -37.3803   23.9389 N   0  0  0  0  0  0
  -24.6638  -31.0818   22.1024 N   0  0  0  0  0  0
  -23.4098  -28.8106   23.3079 O   0  0  0  0  0  0
  -28.4223  -26.7714   20.0382 O   0  0  0  0  0  0
  -26.5654  -34.8948   22.4706 O   0  0  0  0  0  0
  -23.5335  -32.1363   23.7546 O   0  0  0  0  0  0
  -25.6206  -22.2914   18.5143 C   0  0  0  0  0  0
  -26.8156  -23.0215   18.4342 C   0  0  0  0  0  0
  -27.9731  -21.2322   19.5978 C   0  0  0  0  0  0
  -25.5819  -21.0242   19.1397 C   0  0  0  0  0  0
  -26.7828  -20.4654   19.6779 C   0  0  0  0  0  0
  -28.0030  -22.5153   19.0080 C   0  0  0  0  0  0
  -23.7855  -19.2625   18.3158 C   0  0  0  0  0  0
  -23.0587  -20.5883   18.3662 C   0  0  0  0  0  0
  -26.0837  -19.1743   21.8209 C   0  0  0  0  0  0
  -24.2454  -20.3366   19.2811 C   0  0  0  0  0  0
  -26.7241  -19.1081   20.4275 C   0  0  1  0  0  0
  -27.7979  -18.1676   21.0994 C   0  0  1  0  0  0
  -27.2531  -17.7298   23.4903 C   0  0  0  0  0  0
  -29.3557  -18.1988   21.0462 C   0  0  0  0  0  0
  -30.0905  -17.0118   20.3334 C   0  0  0  0  0  0
  -28.3840  -25.3429   20.1208 C   0  0  0  0  0  0
  -29.1204  -24.6721   18.9433 C   0  0  0  0  0  0
  -29.8168  -15.6238   20.7871 N   0  0  0  0  0  0
  -27.3451  -18.7060   22.3856 N   0  3  2  0  0  0
  -29.1791  -23.2414   19.0634 O   0  0  0  0  0  0
  -31.4716  -12.4508   19.1672 H   0  0  0  0  0  0
  -30.3158  -11.3495   19.8930 H   0  0  0  0  0  0
  -29.7634  -11.7508   17.4739 H   0  0  0  0  0  0
  -29.6661  -13.4757   17.7432 H   0  0  0  0  0  0
  -27.8187  -11.3068   18.8050 H   0  0  0  0  0  0
  -27.3935  -12.6405   17.7647 H   0  0  0  0  0  0
  -27.6871  -14.2523   19.5450 H   0  0  0  0  0  0
  -28.6708  -12.0044   21.3526 H   0  0  0  0  0  0
  -28.4317  -13.6516   21.8586 H   0  0  0  0  0  0
  -25.2743   -9.5692   22.4747 H   0  0  0  0  0  0
  -23.9975   -7.4619   22.7424 H   0  0  0  0  0  0
  -21.0823   -8.8658   19.8962 H   0  0  0  0  0  0
  -22.3561  -10.9641   19.6144 H   0  0  0  0  0  0
  -21.1981   -7.6128   23.9696 H   0  0  0  0  0  0
  -21.1499   -6.0516   25.9045 H   0  0  0  0  0  0
  -22.0607   -2.7620   23.2791 H   0  0  0  0  0  0
  -22.4041  -11.9868   22.4881 H   0  0  0  0  0  0
  -21.1070  -13.1235   22.2603 H   0  0  0  0  0  0
  -24.6102  -15.7929   20.3943 H   0  0  0  0  0  0
  -26.1961  -15.5529   19.8538 H   0  0  0  0  0  0
  -26.7094  -32.5535   23.1154 H   0  0  0  0  0  0
  -24.9992  -33.9798   25.0462 H   0  0  0  0  0  0
  -22.6825  -31.3079   21.4332 H   0  0  0  0  0  0
  -23.3734  -35.9690   23.3324 H   0  0  0  0  0  0
  -24.3581  -36.8932   22.2052 H   0  0  0  0  0  0
  -23.7248  -37.6542   23.6653 H   0  0  0  0  0  0
  -26.0301  -31.6053   20.5843 H   0  0  0  0  0  0
  -26.8301  -30.9001   21.9552 H   0  0  0  0  0  0
  -28.0965  -29.1467   21.0904 H   0  0  0  0  0  0
  -26.0267  -25.9975   18.9568 H   0  0  0  0  0  0
  -23.9513  -27.2907   19.0555 H   0  0  0  0  0  0
  -23.7067  -30.5999   19.4187 H   0  0  0  0  0  0
  -22.7196  -29.2485   19.8900 H   0  0  0  0  0  0
  -25.1284  -36.1995   25.0822 H   0  0  0  0  0  0
  -20.9831  -28.2961   24.1465 H   0  0  0  0  0  0
  -20.5564  -26.2252   23.3590 H   0  0  0  0  0  0
  -21.6433  -26.7317   22.1194 H   0  0  0  0  0  0
  -19.6471  -25.6161   21.1352 H   0  0  0  0  0  0
  -19.6424  -27.3072   20.6741 H   0  0  0  0  0  0
  -17.3984  -26.7096   21.3837 H   0  0  0  0  0  0
  -17.9929  -25.9963   22.8682 H   0  0  0  0  0  0
  -19.8004  -30.7228   24.2322 H   0  0  0  0  0  0
  -17.5244  -31.6480   24.5031 H   0  0  0  0  0  0
  -15.5489  -30.3244   23.7956 H   0  0  0  0  0  0
  -15.8519  -28.1052   22.7332 H   0  0  0  0  0  0
  -24.5837  -30.7082   25.7829 H   0  0  0  0  0  0
  -24.8907  -32.2898   26.4886 H   0  0  0  0  0  0
  -25.7994  -30.8911   27.0243 H   0  0  0  0  0  0
  -26.2834  -29.6792   24.1063 H   0  0  0  0  0  0
  -27.4082  -29.7229   25.4461 H   0  0  0  0  0  0
  -27.8635  -30.4407   23.9159 H   0  0  0  0  0  0
  -27.2601  -33.3598   26.2087 H   0  0  0  0  0  0
  -28.3803  -32.6879   25.0288 H   0  0  0  0  0  0
  -28.0694  -31.8417   26.5372 H   0  0  0  0  0  0
  -28.2623  -38.0100   24.7503 H   0  0  0  0  0  0
  -28.1043  -36.2622   24.6316 H   0  0  0  0  0  0
  -27.2296  -37.1515   25.8877 H   0  0  0  0  0  0
  -20.9219  -29.8821   21.7114 H   0  0  0  0  0  0
  -26.0177  -38.2886   24.1385 H   0  0  0  0  0  0
  -24.7180  -22.7494   18.1272 H   0  0  0  0  0  0
  -26.7844  -23.9877   17.9532 H   0  0  0  0  0  0
  -28.8688  -20.8768   20.0677 H   0  0  0  0  0  0
  -24.4228  -19.0504   17.4552 H   0  0  0  0  0  0
  -23.2602  -18.4043   18.7360 H   0  0  0  0  0  0
  -22.0846  -20.6194   18.8519 H   0  0  0  0  0  0
  -23.1432  -21.2275   17.4907 H   0  0  0  0  0  0
  -25.2557  -18.4742   21.9702 H   0  0  0  0  0  0
  -25.8279  -20.1758   22.1714 H   0  0  0  0  0  0
  -24.0146  -20.2011   20.3353 H   0  0  0  0  0  0
  -26.0997  -18.4579   19.8061 H   0  0  0  0  0  0
  -27.4446  -17.1383   21.0111 H   0  0  0  0  0  0
  -26.6163  -16.8873   23.2206 H   0  0  0  0  0  0
  -26.8749  -18.1759   24.4075 H   0  0  0  0  0  0
  -28.2407  -17.3421   23.7313 H   0  0  0  0  0  0
  -29.7554  -18.2345   22.0619 H   0  0  0  0  0  0
  -29.7132  -19.1241   20.6155 H   0  0  0  0  0  0
  -31.1655  -17.1892   20.4503 H   0  0  0  0  0  0
  -29.8974  -17.0708   19.2632 H   0  0  0  0  0  0
  -27.3844  -24.9385   20.2373 H   0  0  0  0  0  0
  -28.8894  -25.0666   21.0425 H   0  0  0  0  0  0
  -30.1500  -25.0236   18.9718 H   0  0  0  0  0  0
  -28.7403  -24.9987   17.9735 H   0  0  0  0  0  0
  -28.8708  -15.3995   21.0628 H   0  0  0  0  0  0
  -27.9177  -19.4920   22.6582 H   0  0  0  0  0  0
  1 25  1  0  0  0
  1 30  2  0  0  0
  1 88  1  0  0  0
  2  3  1  0  0  0
  2 25  1  0  0  0
  2 91  1  0  0  0
  2 92  1  0  0  0
  3  4  1  0  0  0
  3 93  1  0  0  0
  3 94  1  0  0  0
  4  5  1  0  0  0
  4 95  1  0  0  0
  4 96  1  0  0  0
  5  6  1  0  0  0
  5 26  1  0  0  0
  5 97  1  0  0  0
  6 25  1  0  0  0
  6 98  1  0  0  0
  6 99  1  0  0  0
  7  8  2  0  0  0
  7 26  1  0  0  0
  7 29  1  0  0  0
  8  9  1  0  0  0
  8 22  1  0  0  0
  9 10  1  0  0  0
  9 27  2  0  0  0
 10 11  2  0  0  0
 10 15  1  0  0  0
 11 12  1  0  0  0
 11100  1  0  0  0
 12 13  2  0  0  0
 12101  1  0  0  0
 13 14  1  0  0  0
 13 31  1  0  0  0
 14 15  2  0  0  0
 14102  1  0  0  0
 15103  1  0  0  0
 16 17  2  0  0  0
 16 21  1  0  0  0
 16 31  1  0  0  0
 17 18  1  0  0  0
 17104  1  0  0  0
 18 19  2  0  0  0
 18105  1  0  0  0
 19 20  1  0  0  0
 19 24  1  0  0  0
 20 21  2  0  0  0
 20106  1  0  0  0
 21 23  1  0  0  0
 22 28  1  0  0  0
 22 32  2  0  0  0
 26 27  1  0  0  0
 28107  1  0  0  0
 28108  1  0  0  0
 29109  1  0  0  0
 29110  1  0  0  0
 33 34  1  0  0  0
 33 66  1  0  0  0
 33 70  2  0  0  0
 34 36  1  0  0  0
 34 59  1  0  0  0
 34111  1  0  0  0
 35 44  2  0  0  0
 35 45  1  0  0  0
 35 68  1  0  0  0
 36 56  1  0  0  0
 36112  1  0  0  0
 37 39  1  0  0  0
 37 47  1  0  0  0
 37 66  1  0  0  0
 37113  1  0  0  0
 38 43  2  0  0  0
 38 46  1  0  0  0
 38 47  1  0  0  0
 39 64  1  0  0  0
 39 67  2  0  0  0
 40 52  1  0  0  0
 40 53  2  0  0  0
 40 58  1  0  0  0
 41114  1  0  0  0
 41115  1  0  0  0
 41116  1  0  0  0
 41 48  1  0  0  0
 42 43  1  0  0  0
 42 66  1  0  0  0
 42117  1  0  0  0
 42118  1  0  0  0
 43 44  1  0  0  0
 44119  1  0  0  0
 45 46  2  0  0  0
 45120  1  0  0  0
 46121  1  0  0  0
 47122  1  0  0  0
 47123  1  0  0  0
 48 56  1  0  0  0
 48 65  1  0  0  0
 48124  1  0  0  0
 49 50  1  0  0  0
 49 53  1  0  0  0
 49 64  1  0  0  0
 49125  1  0  0  0
 50 51  1  0  0  0
 50126  1  0  0  0
 50127  1  0  0  0
 51 52  1  0  0  0
 51128  1  0  0  0
 51129  1  0  0  0
 52130  1  0  0  0
 52131  1  0  0  0
 53 54  1  0  0  0
 54 55  2  0  0  0
 54132  1  0  0  0
 55 57  1  0  0  0
 55133  1  0  0  0
 56 69  2  0  0  0
 57 58  2  0  0  0
 57134  1  0  0  0
 58135  1  0  0  0
 59 60  1  0  0  0
 59 61  1  0  0  0
 59 62  1  0  0  0
 60136  1  0  0  0
 60137  1  0  0  0
 60138  1  0  0  0
 61139  1  0  0  0
 61140  1  0  0  0
 61141  1  0  0  0
 62142  1  0  0  0
 62143  1  0  0  0
 62144  1  0  0  0
 63 65  1  0  0  0
 63145  1  0  0  0
 63146  1  0  0  0
 63147  1  0  0  0
 64148  1  0  0  0
 65149  1  0  0  0
 68 86  1  0  0  0
 71 72  2  0  0  0
 71 74  1  0  0  0
 71150  1  0  0  0
 72 76  1  0  0  0
 72151  1  0  0  0
 73 75  1  0  0  0
 73 76  2  0  0  0
 73152  1  0  0  0
 74 75  2  0  0  0
 74 80  1  0  0  0
 75 81  1  0  0  0
 76 90  1  0  0  0
 77 78  1  0  0  0
 77 80  1  0  0  0
 77153  1  0  0  0
 77154  1  0  0  0
 78 80  1  0  0  0
 78155  1  0  0  0
 78156  1  0  0  0
 79 81  1  0  0  0
 79 89  1  0  0  0
 79157  1  0  0  0
 79158  1  0  0  0
 80159  1  0  0  0
 81 82  1  0  0  0
 81160  1  0  0  0
 82 84  1  0  0  0
 82 89  1  0  0  0
 82161  1  0  0  0
 83162  1  0  0  0
 83163  1  0  0  0
 83164  1  0  0  0
 83 89  1  0  0  0
 84 85  1  0  0  0
 84165  1  0  0  0
 84166  1  0  0  0
 85 88  1  0  0  0
 85167  1  0  0  0
 85168  1  0  0  0
 86 87  1  0  0  0
 86169  1  0  0  0
 86170  1  0  0  0
 87 90  1  0  0  0
 87171  1  0  0  0
 87172  1  0  0  0
 88173  1  0  0  0
 89174  1  0  0  0
M  CHG  1  89   1
M  ISO  4   1 100  68 101  86 101  88 100
M  END
> <chiral flag>
0

> <version>
0

> <s_m_source_file>
/data/baiqing/PycharmProjects/Reinvent-master-3.2/result/LINK_invent/BTK/process_docking_weight1_custom_sum_contain_oxygen_bond_distance_aromatic_linkinvent_7_9_3/rearranged_h_0142.sdf

> <i_m_source_file_index>
88

> <r_mmod_Potential_Energy-OPLS-2005>
-67.8528137207031

> <r_mmod_Stretch_Energy-OPLS-2005>
48.2392845153809

> <r_mmod_Bend_Energy-OPLS-2005>
155.442291259766

> <r_mmod_Torsional_Energy-OPLS-2005>
320.512664794922

> <r_mmod_Improper_Torsional_Energy-OPLS-2005>
9.83016300201416

> <r_mmod_Van_der_Waal_Energy-OPLS-2005>
147.09765625

> <r_mmod_Electrostatic_Energy-OPLS-2005>
-298.873718261719

> <r_mmod_Solvation_Energy-OPLS-2005>
-472.162200927734

> <b_mmod_Minimization_Converged-OPLS-2005>
0

> <r_mmod_RMS_Derivative-OPLS-2005>
10.9255619049072

$$$$
89
                    3D
 Structure written by MMmdl.
166175  0  0  1  0            999 V2000
  -30.7262  -14.4765   20.5397 C   0  0  0  0  0  0
  -30.4090  -12.3023   19.4309 C   0  0  0  0  0  0
  -29.4899  -12.4891   18.2075 C   0  0  0  0  0  0
  -28.0116  -12.3550   18.6207 C   0  0  0  0  0  0
  -27.6540  -13.2135   19.8643 C   0  0  2  0  0  0
  -28.6955  -13.0341   20.9891 C   0  0  0  0  0  0
  -25.2563  -13.8183   20.5687 C   0  0  0  0  0  0
  -24.1823  -13.0447   20.9176 C   0  0  0  0  0  0
  -24.6387  -11.6916   20.8735 C   0  0  0  0  0  0
  -23.9061  -10.4297   21.0402 C   0  0  0  0  0  0
  -24.3615   -9.4214   21.9181 C   0  0  0  0  0  0
  -23.6292   -8.2248   22.0753 C   0  0  0  0  0  0
  -22.4273   -8.0283   21.3546 C   0  0  0  0  0  0
  -21.9912   -9.0253   20.4643 C   0  0  0  0  0  0
  -22.7236  -10.2133   20.3050 C   0  0  0  0  0  0
  -21.6854   -6.0737   22.5281 C   0  0  0  0  0  0
  -21.4014   -6.5639   23.8215 C   0  0  0  0  0  0
  -21.3659   -5.6789   24.9176 C   0  0  0  0  0  0
  -21.6043   -4.3053   24.7224 C   0  0  0  0  0  0
  -21.8820   -3.8147   23.4345 C   0  0  0  0  0  0
  -21.9192   -4.6965   22.3403 C   0  0  0  0  0  0
  -22.7845  -13.5237   21.1846 C   0  0  0  0  0  0
  -22.1660   -4.2153   21.0981 F   0  0  0  0  0  0
  -21.5630   -3.4536   25.7737 F   0  0  0  0  0  0
  -30.0209  -13.3180   20.4231 N   0  0  0  0  0  0
  -26.2989  -12.9363   20.3338 N   0  0  0  0  0  0
  -25.9312  -11.6516   20.5763 N   0  0  0  0  0  0
  -22.0491  -12.8220   22.0398 N   0  0  0  0  0  0
  -25.4307  -15.1899   20.4123 N   0  0  0  0  0  0
  -31.8980  -14.5609   20.1562 O   0  0  0  0  0  0
  -21.6639   -6.8879   21.4243 O   0  0  0  0  0  0
  -22.3529  -14.5549   20.6706 O   0  0  0  0  0  0
  -24.6147  -31.8679   23.2092 C   0  0  0  0  0  0
  -25.9039  -32.4822   23.8387 C   0  0  1  0  0  0
  -27.2284  -27.4300   20.1030 C   0  0  0  0  0  0
  -25.5895  -33.8619   24.2320 N   0  0  0  0  0  0
  -23.4019  -30.4918   21.5499 C   0  0  2  0  0  0
  -24.8467  -28.9577   20.1146 C   0  0  0  0  0  0
  -22.7411  -29.4660   22.4989 C   0  0  0  0  0  0
  -18.0271  -28.1379   22.8487 C   0  0  0  0  0  0
  -24.1490  -36.7310   23.2638 C   0  0  0  0  0  0
  -25.9310  -30.8349   21.3604 C   0  0  0  0  0  0
  -26.0085  -29.4702   20.7059 C   0  0  0  0  0  0
  -27.2048  -28.7164   20.6897 C   0  0  0  0  0  0
  -26.0483  -26.9326   19.5079 C   0  0  0  0  0  0
  -24.8619  -27.6889   19.5114 C   0  0  0  0  0  0
  -23.6091  -29.8245   20.1647 C   0  0  0  0  0  0
  -25.4113  -36.3108   24.0337 C   0  0  1  0  0  0
  -20.5860  -28.3665   23.1320 C   0  0  2  0  0  0
  -20.6762  -26.9403   22.5415 C   0  0  0  0  0  0
  -19.5741  -26.6389   21.5211 C   0  0  0  0  0  0
  -18.1917  -26.7925   22.1620 C   0  0  0  0  0  0
  -19.1519  -28.8837   23.2900 C   0  0  0  0  0  0
  -18.9450  -30.1442   23.8913 C   0  0  0  0  0  0
  -17.6452  -30.6581   24.0570 C   0  0  0  0  0  0
  -25.9042  -34.9476   23.5128 C   0  0  0  0  0  0
  -16.5343  -29.9085   23.6332 C   0  0  0  0  0  0
  -16.7260  -28.6506   23.0346 C   0  0  0  0  0  0
  -26.4471  -31.6604   25.0715 C   0  0  0  0  0  0
  -25.3740  -31.3695   26.1466 C   0  0  0  0  0  0
  -27.0314  -30.3060   24.6074 C   0  0  0  0  0  0
  -27.6041  -32.4332   25.7477 C   0  0  0  0  0  0
  -27.5584  -37.1804   24.8463 C   0  0  0  0  0  0
  -21.4137  -29.3032   22.3728 N   0  0  0  0  0  0
  -26.4298  -37.3794   23.9409 N   0  0  0  0  0  0
  -24.6676  -31.0790   22.0984 N   0  0  0  0  0  0
  -23.4187  -28.8203   23.3029 O   0  0  0  0  0  0
  -28.3942  -26.6914   20.1134 O   0  0  0  0  0  0
  -26.5607  -34.8924   22.4692 O   0  0  0  0  0  0
  -23.5342  -32.1426   23.7498 O   0  0  0  0  0  0
  -29.9897  -23.5858   21.4470 C   0  0  0  0  0  0
  -28.2658  -22.8636   19.7184 C   0  0  0  0  0  0
  -29.3769  -25.0043   21.5486 C   0  0  0  0  0  0
  -28.4236  -24.3483   19.2941 C   0  0  0  0  0  0
  -29.3742  -17.9207   19.8078 C   0  0  0  0  0  0
  -28.9737  -17.4161   22.1814 C   0  0  0  0  0  0
  -30.2658  -16.6704   19.6955 C   0  0  0  0  0  0
  -29.8726  -16.1550   22.0814 C   0  0  0  0  0  0
  -28.9660  -22.4954   21.0577 C   0  0  1  0  0  0
  -29.4506  -18.5167   21.2168 C   0  0  0  0  0  0
  -28.2885  -25.3056   20.4937 C   0  0  2  0  0  0
  -29.6294  -21.0873   21.0288 C   0  0  0  0  0  0
  -28.7076  -19.8783   21.3374 C   0  0  0  0  0  0
  -30.0040  -15.6191   20.7101 N   0  0  0  0  0  0
  -31.4554  -12.3757   19.1299 H   0  0  0  0  0  0
  -30.2922  -11.3022   19.8512 H   0  0  0  0  0  0
  -29.7303  -11.7533   17.4389 H   0  0  0  0  0  0
  -29.6606  -13.4692   17.7585 H   0  0  0  0  0  0
  -27.8253  -11.3016   18.8327 H   0  0  0  0  0  0
  -27.3604  -12.6137   17.7849 H   0  0  0  0  0  0
  -27.6875  -14.2558   19.5455 H   0  0  0  0  0  0
  -28.6709  -12.0153   21.3787 H   0  0  0  0  0  0
  -28.4585  -13.6812   21.8318 H   0  0  0  0  0  0
  -25.2760   -9.5693   22.4753 H   0  0  0  0  0  0
  -24.0004   -7.4642   22.7471 H   0  0  0  0  0  0
  -21.0848   -8.8766   19.8945 H   0  0  0  0  0  0
  -22.3696  -10.9668   19.6155 H   0  0  0  0  0  0
  -21.2007   -7.6146   23.9721 H   0  0  0  0  0  0
  -21.1479   -6.0518   25.9079 H   0  0  0  0  0  0
  -22.0599   -2.7610   23.2843 H   0  0  0  0  0  0
  -22.4105  -11.9869   22.4767 H   0  0  0  0  0  0
  -21.1111  -13.1245   22.2619 H   0  0  0  0  0  0
  -24.6725  -15.8522   20.5329 H   0  0  0  0  0  0
  -26.3002  -15.6274   20.1334 H   0  0  0  0  0  0
  -26.7102  -32.5537   23.1145 H   0  0  0  0  0  0
  -25.0043  -33.9781   25.0463 H   0  0  0  0  0  0
  -22.6907  -31.3087   21.4107 H   0  0  0  0  0  0
  -23.3756  -35.9639   23.3310 H   0  0  0  0  0  0
  -24.3582  -36.8926   22.2050 H   0  0  0  0  0  0
  -23.7238  -37.6513   23.6654 H   0  0  0  0  0  0
  -26.0447  -31.6026   20.5935 H   0  0  0  0  0  0
  -26.8182  -30.8861   21.9800 H   0  0  0  0  0  0
  -28.1038  -29.1074   21.1459 H   0  0  0  0  0  0
  -26.0325  -25.9602   19.0400 H   0  0  0  0  0  0
  -23.9685  -27.2876   19.0528 H   0  0  0  0  0  0
  -23.7162  -30.5990   19.4038 H   0  0  0  0  0  0
  -22.7326  -29.2440   19.8705 H   0  0  0  0  0  0
  -25.1291  -36.1976   25.0830 H   0  0  0  0  0  0
  -20.9950  -28.3228   24.1442 H   0  0  0  0  0  0
  -20.5683  -26.2265   23.3597 H   0  0  0  0  0  0
  -21.6629  -26.7457   22.1194 H   0  0  0  0  0  0
  -19.6911  -25.6311   21.1219 H   0  0  0  0  0  0
  -19.6683  -27.3218   20.6755 H   0  0  0  0  0  0
  -17.4190  -26.6679   21.4016 H   0  0  0  0  0  0
  -18.0314  -26.0064   22.9013 H   0  0  0  0  0  0
  -19.7929  -30.7249   24.2288 H   0  0  0  0  0  0
  -17.5013  -31.6262   24.5171 H   0  0  0  0  0  0
  -15.5347  -30.2992   23.7651 H   0  0  0  0  0  0
  -15.8659  -28.0834   22.7048 H   0  0  0  0  0  0
  -24.5906  -30.7054   25.7798 H   0  0  0  0  0  0
  -24.8935  -32.2841   26.4946 H   0  0  0  0  0  0
  -25.8093  -30.8838   27.0206 H   0  0  0  0  0  0
  -26.2853  -29.6807   24.1154 H   0  0  0  0  0  0
  -27.4139  -29.7306   25.4514 H   0  0  0  0  0  0
  -27.8656  -30.4406   23.9184 H   0  0  0  0  0  0
  -27.2657  -33.3628   26.2063 H   0  0  0  0  0  0
  -28.3836  -32.6904   25.0293 H   0  0  0  0  0  0
  -28.0717  -31.8454   26.5385 H   0  0  0  0  0  0
  -28.2595  -38.0107   24.7534 H   0  0  0  0  0  0
  -28.1086  -36.2642   24.6268 H   0  0  0  0  0  0
  -27.2300  -37.1433   25.8863 H   0  0  0  0  0  0
  -20.9298  -29.8765   21.6959 H   0  0  0  0  0  0
  -26.0193  -38.2875   24.1410 H   0  0  0  0  0  0
  -30.4671  -23.3391   22.3961 H   0  0  0  0  0  0
  -30.7910  -23.5971   20.7066 H   0  0  0  0  0  0
  -28.6364  -22.2386   18.9053 H   0  0  0  0  0  0
  -27.2050  -22.6246   19.8073 H   0  0  0  0  0  0
  -30.1874  -25.7292   21.4650 H   0  0  0  0  0  0
  -28.9521  -25.1548   22.5420 H   0  0  0  0  0  0
  -27.6979  -24.5840   18.5171 H   0  0  0  0  0  0
  -29.4022  -24.4939   18.8344 H   0  0  0  0  0  0
  -28.3428  -17.6660   19.5595 H   0  0  0  0  0  0
  -29.6925  -18.6591   19.0705 H   0  0  0  0  0  0
  -28.9927  -17.7871   23.2072 H   0  0  0  0  0  0
  -27.9359  -17.1526   21.9708 H   0  0  0  0  0  0
  -31.3071  -16.9924   19.7685 H   0  0  0  0  0  0
  -30.1487  -16.2462   18.6960 H   0  0  0  0  0  0
  -29.4926  -15.3897   22.7582 H   0  0  0  0  0  0
  -30.8706  -16.4022   22.4493 H   0  0  0  0  0  0
  -28.2109  -22.4942   21.8460 H   0  0  0  0  0  0
  -30.5000  -18.7019   21.4537 H   0  0  0  0  0  0
  -27.3244  -25.1106   20.9679 H   0  0  0  0  0  0
  -30.4292  -21.0672   21.7706 H   0  0  0  0  0  0
  -30.1322  -20.9379   20.0726 H   0  0  0  0  0  0
  -28.3274  -19.9936   22.3536 H   0  0  0  0  0  0
  -27.8311  -19.8904   20.6887 H   0  0  0  0  0  0
  1 25  1  0  0  0
  1 30  2  0  0  0
  1 84  1  0  0  0
  2  3  1  0  0  0
  2 25  1  0  0  0
  2 85  1  0  0  0
  2 86  1  0  0  0
  3  4  1  0  0  0
  3 87  1  0  0  0
  3 88  1  0  0  0
  4  5  1  0  0  0
  4 89  1  0  0  0
  4 90  1  0  0  0
  5  6  1  0  0  0
  5 26  1  0  0  0
  5 91  1  0  0  0
  6 25  1  0  0  0
  6 92  1  0  0  0
  6 93  1  0  0  0
  7  8  2  0  0  0
  7 26  1  0  0  0
  7 29  1  0  0  0
  8  9  1  0  0  0
  8 22  1  0  0  0
  9 10  1  0  0  0
  9 27  2  0  0  0
 10 11  2  0  0  0
 10 15  1  0  0  0
 11 12  1  0  0  0
 11 94  1  0  0  0
 12 13  2  0  0  0
 12 95  1  0  0  0
 13 14  1  0  0  0
 13 31  1  0  0  0
 14 15  2  0  0  0
 14 96  1  0  0  0
 15 97  1  0  0  0
 16 17  2  0  0  0
 16 21  1  0  0  0
 16 31  1  0  0  0
 17 18  1  0  0  0
 17 98  1  0  0  0
 18 19  2  0  0  0
 18 99  1  0  0  0
 19 20  1  0  0  0
 19 24  1  0  0  0
 20 21  2  0  0  0
 20100  1  0  0  0
 21 23  1  0  0  0
 22 28  1  0  0  0
 22 32  2  0  0  0
 26 27  1  0  0  0
 28101  1  0  0  0
 28102  1  0  0  0
 29103  1  0  0  0
 29104  1  0  0  0
 33 34  1  0  0  0
 33 66  1  0  0  0
 33 70  2  0  0  0
 34 36  1  0  0  0
 34 59  1  0  0  0
 34105  1  0  0  0
 35 44  2  0  0  0
 35 45  1  0  0  0
 35 68  1  0  0  0
 36 56  1  0  0  0
 36106  1  0  0  0
 37 39  1  0  0  0
 37 47  1  0  0  0
 37 66  1  0  0  0
 37107  1  0  0  0
 38 43  2  0  0  0
 38 46  1  0  0  0
 38 47  1  0  0  0
 39 64  1  0  0  0
 39 67  2  0  0  0
 40 52  1  0  0  0
 40 53  2  0  0  0
 40 58  1  0  0  0
 41108  1  0  0  0
 41109  1  0  0  0
 41110  1  0  0  0
 41 48  1  0  0  0
 42 43  1  0  0  0
 42 66  1  0  0  0
 42111  1  0  0  0
 42112  1  0  0  0
 43 44  1  0  0  0
 44113  1  0  0  0
 45 46  2  0  0  0
 45114  1  0  0  0
 46115  1  0  0  0
 47116  1  0  0  0
 47117  1  0  0  0
 48 56  1  0  0  0
 48 65  1  0  0  0
 48118  1  0  0  0
 49 50  1  0  0  0
 49 53  1  0  0  0
 49 64  1  0  0  0
 49119  1  0  0  0
 50 51  1  0  0  0
 50120  1  0  0  0
 50121  1  0  0  0
 51 52  1  0  0  0
 51122  1  0  0  0
 51123  1  0  0  0
 52124  1  0  0  0
 52125  1  0  0  0
 53 54  1  0  0  0
 54 55  2  0  0  0
 54126  1  0  0  0
 55 57  1  0  0  0
 55127  1  0  0  0
 56 69  2  0  0  0
 57 58  2  0  0  0
 57128  1  0  0  0
 58129  1  0  0  0
 59 60  1  0  0  0
 59 61  1  0  0  0
 59 62  1  0  0  0
 60130  1  0  0  0
 60131  1  0  0  0
 60132  1  0  0  0
 61133  1  0  0  0
 61134  1  0  0  0
 61135  1  0  0  0
 62136  1  0  0  0
 62137  1  0  0  0
 62138  1  0  0  0
 63 65  1  0  0  0
 63139  1  0  0  0
 63140  1  0  0  0
 63141  1  0  0  0
 64142  1  0  0  0
 65143  1  0  0  0
 68 81  1  0  0  0
 71 73  1  0  0  0
 71 79  1  0  0  0
 71144  1  0  0  0
 71145  1  0  0  0
 72 74  1  0  0  0
 72 79  1  0  0  0
 72146  1  0  0  0
 72147  1  0  0  0
 73 81  1  0  0  0
 73148  1  0  0  0
 73149  1  0  0  0
 74 81  1  0  0  0
 74150  1  0  0  0
 74151  1  0  0  0
 75 77  1  0  0  0
 75 80  1  0  0  0
 75152  1  0  0  0
 75153  1  0  0  0
 76 78  1  0  0  0
 76 80  1  0  0  0
 76154  1  0  0  0
 76155  1  0  0  0
 77 84  1  0  0  0
 77156  1  0  0  0
 77157  1  0  0  0
 78 84  1  0  0  0
 78158  1  0  0  0
 78159  1  0  0  0
 79 82  1  0  0  0
 79160  1  0  0  0
 80 83  1  0  0  0
 80161  1  0  0  0
 81162  1  0  0  0
 82 83  1  0  0  0
 82163  1  0  0  0
 82164  1  0  0  0
 83165  1  0  0  0
 83166  1  0  0  0
M  ISO  4   1 100  68 101  81 101  84 100
M  END
> <chiral flag>
0

> <version>
0

> <s_m_source_file>
/data/baiqing/PycharmProjects/Reinvent-master-3.2/result/LINK_invent/BTK/process_docking_weight1_custom_sum_contain_oxygen_bond_distance_aromatic_linkinvent_7_9_3/rearranged_h_0142.sdf

> <i_m_source_file_index>
89

> <r_mmod_Potential_Energy-OPLS-2005>
250.842498779297

> <r_mmod_Stretch_Energy-OPLS-2005>
40.8426818847656

> <r_mmod_Bend_Energy-OPLS-2005>
110.682876586914

> <r_mmod_Torsional_Energy-OPLS-2005>
384.348388671875

> <r_mmod_Improper_Torsional_Energy-OPLS-2005>
14.4676942825317

> <r_mmod_Van_der_Waal_Energy-OPLS-2005>
144.609268188477

> <r_mmod_Electrostatic_Energy-OPLS-2005>
-286.035095214844

> <r_mmod_Solvation_Energy-OPLS-2005>
-176.018692016602

> <b_mmod_Minimization_Converged-OPLS-2005>
0

> <r_mmod_RMS_Derivative-OPLS-2005>
0.711692035198212

$$$$
91
                    3D
 Structure written by MMmdl.
171181  0  0  1  0            999 V2000
  -30.6844  -14.5664   20.5066 C   0  0  0  0  0  0
  -30.4230  -12.3531   19.4308 C   0  0  0  0  0  0
  -29.4918  -12.4931   18.2096 C   0  0  0  0  0  0
  -28.0166  -12.3317   18.6293 C   0  0  0  0  0  0
  -27.6453  -13.1966   19.8621 C   0  0  2  0  0  0
  -28.6988  -13.0701   20.9855 C   0  0  0  0  0  0
  -25.2554  -13.8107   20.5710 C   0  0  0  0  0  0
  -24.1804  -13.0403   20.9200 C   0  0  0  0  0  0
  -24.6352  -11.6868   20.8757 C   0  0  0  0  0  0
  -23.9018  -10.4272   21.0421 C   0  0  0  0  0  0
  -24.3582   -9.4194   21.9196 C   0  0  0  0  0  0
  -23.6271   -8.2227   22.0759 C   0  0  0  0  0  0
  -22.4259   -8.0262   21.3543 C   0  0  0  0  0  0
  -21.9884   -9.0231   20.4644 C   0  0  0  0  0  0
  -22.7200  -10.2116   20.3061 C   0  0  0  0  0  0
  -21.6847   -6.0721   22.5277 C   0  0  0  0  0  0
  -21.4009   -6.5629   23.8207 C   0  0  0  0  0  0
  -21.3657   -5.6786   24.9172 C   0  0  0  0  0  0
  -21.6046   -4.3052   24.7226 C   0  0  0  0  0  0
  -21.8822   -3.8139   23.4349 C   0  0  0  0  0  0
  -21.9194   -4.6951   22.3404 C   0  0  0  0  0  0
  -22.7838  -13.5226   21.1853 C   0  0  0  0  0  0
  -22.1666   -4.2136   21.0981 F   0  0  0  0  0  0
  -21.5629   -3.4540   25.7741 F   0  0  0  0  0  0
  -30.0154  -13.3790   20.4059 N   0  0  0  0  0  0
  -26.2952  -12.9237   20.3367 N   0  0  0  0  0  0
  -25.9271  -11.6416   20.5798 N   0  0  0  0  0  0
  -22.0465  -12.8222   22.0400 N   0  0  0  0  0  0
  -25.4288  -15.1827   20.4117 N   0  0  0  0  0  0
  -31.8635  -14.6833   20.1625 O   0  0  0  0  0  0
  -21.6631   -6.8858   21.4237 O   0  0  0  0  0  0
  -22.3547  -14.5544   20.6706 O   0  0  0  0  0  0
  -24.6200  -31.8627   23.2061 C   0  0  0  0  0  0
  -25.9075  -32.4791   23.8366 C   0  0  1  0  0  0
  -27.2373  -27.3808   20.0979 C   0  0  0  0  0  0
  -25.5912  -33.8589   24.2296 N   0  0  0  0  0  0
  -23.4101  -30.4867   21.5468 C   0  0  2  0  0  0
  -24.8561  -28.9446   20.1141 C   0  0  0  0  0  0
  -22.7440  -29.4634   22.4957 C   0  0  0  0  0  0
  -18.0278  -28.1366   22.8490 C   0  0  0  0  0  0
  -24.1489  -36.7301   23.2641 C   0  0  0  0  0  0
  -25.9445  -30.8113   21.3670 C   0  0  0  0  0  0
  -26.0193  -29.4414   20.7131 C   0  0  0  0  0  0
  -27.2083  -28.6672   20.7021 C   0  0  0  0  0  0
  -26.0473  -26.9095   19.4958 C   0  0  0  0  0  0
  -24.8676  -27.6785   19.5042 C   0  0  0  0  0  0
  -23.6212  -29.8187   20.1619 C   0  0  0  0  0  0
  -25.4111  -36.3089   24.0331 C   0  0  1  0  0  0
  -20.5876  -28.3657   23.1301 C   0  0  2  0  0  0
  -20.6768  -26.9383   22.5414 C   0  0  0  0  0  0
  -19.5742  -26.6369   21.5216 C   0  0  0  0  0  0
  -18.1919  -26.7909   22.1622 C   0  0  0  0  0  0
  -19.1534  -28.8829   23.2894 C   0  0  0  0  0  0
  -18.9463  -30.1440   23.8899 C   0  0  0  0  0  0
  -17.6467  -30.6571   24.0568 C   0  0  0  0  0  0
  -25.9042  -34.9457   23.5113 C   0  0  0  0  0  0
  -16.5354  -29.9074   23.6335 C   0  0  0  0  0  0
  -16.7271  -28.6495   23.0348 C   0  0  0  0  0  0
  -26.4488  -31.6587   25.0716 C   0  0  0  0  0  0
  -25.3741  -31.3704   26.1459 C   0  0  0  0  0  0
  -27.0339  -30.3030   24.6118 C   0  0  0  0  0  0
  -27.6052  -32.4318   25.7481 C   0  0  0  0  0  0
  -27.5581  -37.1801   24.8462 C   0  0  0  0  0  0
  -21.4161  -29.3026   22.3711 N   0  0  0  0  0  0
  -26.4287  -37.3784   23.9414 N   0  0  0  0  0  0
  -24.6765  -31.0695   22.0975 N   0  0  0  0  0  0
  -23.4194  -28.8175   23.3014 O   0  0  0  0  0  0
  -28.4070  -26.6259   20.1282 O   0  0  0  0  0  0
  -26.5612  -34.8916   22.4681 O   0  0  0  0  0  0
  -23.5382  -32.1392   23.7433 O   0  0  0  0  0  0
  -31.7794  -21.9523   19.4056 C   0  0  0  0  0  0
  -32.7476  -21.1001   18.9809 C   0  0  0  0  0  0
  -32.3161  -19.7836   19.2980 C   0  0  0  0  0  0
  -31.0842  -19.8661   19.9232 C   0  0  0  0  0  0
  -29.7546  -17.7378   19.3784 C   0  0  0  0  0  0
  -31.0263  -17.8572   21.5484 C   0  0  0  0  0  0
  -29.7907  -24.5641   19.6699 C   0  0  0  0  0  0
  -27.8736  -24.0940   20.3111 C   0  0  0  0  0  0
  -29.1288  -16.4069   19.8782 C   0  0  0  0  0  0
  -30.3158  -16.5448   21.9846 C   0  0  0  0  0  0
  -30.2570  -18.6982   20.4877 C   0  0  0  0  0  0
  -29.0236  -23.2112   19.7432 C   0  0  2  0  0  0
  -28.4420  -25.3030   19.5280 C   0  0  1  0  0  0
  -34.0430  -21.4884   18.3153 C   0  0  0  0  0  0
  -33.1566  -18.5630   18.9826 C   0  0  0  0  0  0
  -29.5274  -21.9264   20.5062 C   0  0  0  0  0  0
  -30.7223  -21.2421   19.9456 N   0  0  0  0  0  0
  -29.9549  -15.6688   20.8568 N   0  0  0  0  0  0
  -31.4651  -12.4587   19.1233 H   0  0  0  0  0  0
  -30.3392  -11.3578   19.8699 H   0  0  0  0  0  0
  -29.7473  -11.7497   17.4533 H   0  0  0  0  0  0
  -29.6378  -13.4678   17.7413 H   0  0  0  0  0  0
  -27.8506  -11.2779   18.8546 H   0  0  0  0  0  0
  -27.3590  -12.5695   17.7923 H   0  0  0  0  0  0
  -27.6374  -14.2211   19.5120 H   0  0  0  0  0  0
  -28.7006  -12.0612   21.4006 H   0  0  0  0  0  0
  -28.4585  -13.7378   21.8143 H   0  0  0  0  0  0
  -25.2724   -9.5682   22.4772 H   0  0  0  0  0  0
  -23.9981   -7.4623   22.7482 H   0  0  0  0  0  0
  -21.0819   -8.8742   19.8952 H   0  0  0  0  0  0
  -22.3656  -10.9654   19.6174 H   0  0  0  0  0  0
  -21.1997   -7.6135   23.9704 H   0  0  0  0  0  0
  -21.1477   -6.0519   25.9072 H   0  0  0  0  0  0
  -22.0604   -2.7599   23.2856 H   0  0  0  0  0  0
  -22.4069  -11.9871   22.4774 H   0  0  0  0  0  0
  -21.1086  -13.1266   22.2602 H   0  0  0  0  0  0
  -24.6659  -15.8409   20.5249 H   0  0  0  0  0  0
  -26.2880  -15.6202   20.1057 H   0  0  0  0  0  0
  -26.7139  -32.5475   23.1114 H   0  0  0  0  0  0
  -25.0098  -33.9746   25.0465 H   0  0  0  0  0  0
  -22.7008  -31.3050   21.4050 H   0  0  0  0  0  0
  -23.3752  -35.9634   23.3291 H   0  0  0  0  0  0
  -24.3587  -36.8931   22.2060 H   0  0  0  0  0  0
  -23.7238  -37.6497   23.6667 H   0  0  0  0  0  0
  -26.0661  -31.5751   20.5978 H   0  0  0  0  0  0
  -26.8291  -30.8617   21.9897 H   0  0  0  0  0  0
  -28.1051  -29.0490   21.1704 H   0  0  0  0  0  0
  -26.0024  -25.9398   19.0226 H   0  0  0  0  0  0
  -23.9717  -27.2866   19.0434 H   0  0  0  0  0  0
  -23.7341  -30.5938   19.4026 H   0  0  0  0  0  0
  -22.7426  -29.2432   19.8645 H   0  0  0  0  0  0
  -25.1291  -36.1947   25.0822 H   0  0  0  0  0  0
  -20.9977  -28.3220   24.1419 H   0  0  0  0  0  0
  -20.5678  -26.2263   23.3609 H   0  0  0  0  0  0
  -21.6633  -26.7416   22.1199 H   0  0  0  0  0  0
  -19.6909  -25.6288   21.1227 H   0  0  0  0  0  0
  -19.6683  -27.3199   20.6765 H   0  0  0  0  0  0
  -17.4197  -26.6683   21.4013 H   0  0  0  0  0  0
  -18.0300  -26.0033   22.9000 H   0  0  0  0  0  0
  -19.7943  -30.7266   24.2249 H   0  0  0  0  0  0
  -17.5017  -31.6252   24.5165 H   0  0  0  0  0  0
  -15.5355  -30.2986   23.7643 H   0  0  0  0  0  0
  -15.8665  -28.0830   22.7046 H   0  0  0  0  0  0
  -24.5923  -30.7037   25.7801 H   0  0  0  0  0  0
  -24.8926  -32.2865   26.4890 H   0  0  0  0  0  0
  -25.8088  -30.8892   27.0229 H   0  0  0  0  0  0
  -26.2899  -29.6762   24.1187 H   0  0  0  0  0  0
  -27.4134  -29.7292   25.4582 H   0  0  0  0  0  0
  -27.8713  -30.4354   23.9262 H   0  0  0  0  0  0
  -27.2676  -33.3641   26.2019 H   0  0  0  0  0  0
  -28.3882  -32.6833   25.0315 H   0  0  0  0  0  0
  -28.0686  -31.8458   26.5428 H   0  0  0  0  0  0
  -28.2577  -38.0117   24.7527 H   0  0  0  0  0  0
  -28.1094  -36.2646   24.6261 H   0  0  0  0  0  0
  -27.2300  -37.1415   25.8864 H   0  0  0  0  0  0
  -20.9321  -29.8782   21.6959 H   0  0  0  0  0  0
  -26.0170  -38.2856   24.1428 H   0  0  0  0  0  0
  -31.7710  -23.0293   19.3625 H   0  0  0  0  0  0
  -29.0323  -18.2647   18.7535 H   0  0  0  0  0  0
  -30.5655  -17.4776   18.7033 H   0  0  0  0  0  0
  -32.0109  -17.5799   21.1816 H   0  0  0  0  0  0
  -31.2156  -18.4758   22.4263 H   0  0  0  0  0  0
  -30.4376  -24.6842   18.7999 H   0  0  0  0  0  0
  -30.3198  -24.8074   20.5933 H   0  0  0  0  0  0
  -27.9308  -24.2246   21.3932 H   0  0  0  0  0  0
  -26.8730  -23.7845   20.0061 H   0  0  0  0  0  0
  -28.9495  -15.7944   18.9946 H   0  0  0  0  0  0
  -28.1552  -16.6026   20.3285 H   0  0  0  0  0  0
  -29.4034  -16.7887   22.5309 H   0  0  0  0  0  0
  -30.9472  -16.0021   22.6907 H   0  0  0  0  0  0
  -29.3749  -19.0937   20.9906 H   0  0  0  0  0  0
  -28.7552  -22.9253   18.7236 H   0  0  0  0  0  0
  -28.1256  -25.3131   18.4827 H   0  0  0  0  0  0
  -34.1667  -22.5719   18.3020 H   0  0  0  0  0  0
  -34.0659  -21.1309   17.2856 H   0  0  0  0  0  0
  -34.8908  -21.0553   18.8468 H   0  0  0  0  0  0
  -33.5049  -18.6067   17.9503 H   0  0  0  0  0  0
  -32.6377  -17.6165   19.1020 H   0  0  0  0  0  0
  -34.0334  -18.5410   19.6301 H   0  0  0  0  0  0
  -28.7136  -21.2034   20.5503 H   0  0  0  0  0  0
  -29.7565  -22.1772   21.5423 H   0  0  0  0  0  0
  1 25  1  0  0  0
  1 30  2  0  0  0
  1 88  1  0  0  0
  2  3  1  0  0  0
  2 25  1  0  0  0
  2 89  1  0  0  0
  2 90  1  0  0  0
  3  4  1  0  0  0
  3 91  1  0  0  0
  3 92  1  0  0  0
  4  5  1  0  0  0
  4 93  1  0  0  0
  4 94  1  0  0  0
  5  6  1  0  0  0
  5 26  1  0  0  0
  5 95  1  0  0  0
  6 25  1  0  0  0
  6 96  1  0  0  0
  6 97  1  0  0  0
  7  8  2  0  0  0
  7 26  1  0  0  0
  7 29  1  0  0  0
  8  9  1  0  0  0
  8 22  1  0  0  0
  9 10  1  0  0  0
  9 27  2  0  0  0
 10 11  2  0  0  0
 10 15  1  0  0  0
 11 12  1  0  0  0
 11 98  1  0  0  0
 12 13  2  0  0  0
 12 99  1  0  0  0
 13 14  1  0  0  0
 13 31  1  0  0  0
 14 15  2  0  0  0
 14100  1  0  0  0
 15101  1  0  0  0
 16 17  2  0  0  0
 16 21  1  0  0  0
 16 31  1  0  0  0
 17 18  1  0  0  0
 17102  1  0  0  0
 18 19  2  0  0  0
 18103  1  0  0  0
 19 20  1  0  0  0
 19 24  1  0  0  0
 20 21  2  0  0  0
 20104  1  0  0  0
 21 23  1  0  0  0
 22 28  1  0  0  0
 22 32  2  0  0  0
 26 27  1  0  0  0
 28105  1  0  0  0
 28106  1  0  0  0
 29107  1  0  0  0
 29108  1  0  0  0
 33 34  1  0  0  0
 33 66  1  0  0  0
 33 70  2  0  0  0
 34 36  1  0  0  0
 34 59  1  0  0  0
 34109  1  0  0  0
 35 44  2  0  0  0
 35 45  1  0  0  0
 35 68  1  0  0  0
 36 56  1  0  0  0
 36110  1  0  0  0
 37 39  1  0  0  0
 37 47  1  0  0  0
 37 66  1  0  0  0
 37111  1  0  0  0
 38 43  2  0  0  0
 38 46  1  0  0  0
 38 47  1  0  0  0
 39 64  1  0  0  0
 39 67  2  0  0  0
 40 52  1  0  0  0
 40 53  2  0  0  0
 40 58  1  0  0  0
 41112  1  0  0  0
 41113  1  0  0  0
 41114  1  0  0  0
 41 48  1  0  0  0
 42 43  1  0  0  0
 42 66  1  0  0  0
 42115  1  0  0  0
 42116  1  0  0  0
 43 44  1  0  0  0
 44117  1  0  0  0
 45 46  2  0  0  0
 45118  1  0  0  0
 46119  1  0  0  0
 47120  1  0  0  0
 47121  1  0  0  0
 48 56  1  0  0  0
 48 65  1  0  0  0
 48122  1  0  0  0
 49 50  1  0  0  0
 49 53  1  0  0  0
 49 64  1  0  0  0
 49123  1  0  0  0
 50 51  1  0  0  0
 50124  1  0  0  0
 50125  1  0  0  0
 51 52  1  0  0  0
 51126  1  0  0  0
 51127  1  0  0  0
 52128  1  0  0  0
 52129  1  0  0  0
 53 54  1  0  0  0
 54 55  2  0  0  0
 54130  1  0  0  0
 55 57  1  0  0  0
 55131  1  0  0  0
 56 69  2  0  0  0
 57 58  2  0  0  0
 57132  1  0  0  0
 58133  1  0  0  0
 59 60  1  0  0  0
 59 61  1  0  0  0
 59 62  1  0  0  0
 60134  1  0  0  0
 60135  1  0  0  0
 60136  1  0  0  0
 61137  1  0  0  0
 61138  1  0  0  0
 61139  1  0  0  0
 62140  1  0  0  0
 62141  1  0  0  0
 62142  1  0  0  0
 63 65  1  0  0  0
 63143  1  0  0  0
 63144  1  0  0  0
 63145  1  0  0  0
 64146  1  0  0  0
 65147  1  0  0  0
 68 83  1  0  0  0
 71 72  2  0  0  0
 71 87  1  0  0  0
 71148  1  0  0  0
 72 73  1  0  0  0
 72 84  1  0  0  0
 73 74  2  0  0  0
 73 85  1  0  0  0
 74 87  1  0  0  0
 74 81  1  0  0  0
 75 79  1  0  0  0
 75 81  1  0  0  0
 75149  1  0  0  0
 75150  1  0  0  0
 76 80  1  0  0  0
 76 81  1  0  0  0
 76151  1  0  0  0
 76152  1  0  0  0
 77 82  1  0  0  0
 77 83  1  0  0  0
 77153  1  0  0  0
 77154  1  0  0  0
 78 82  1  0  0  0
 78 83  1  0  0  0
 78155  1  0  0  0
 78156  1  0  0  0
 79 88  1  0  0  0
 79157  1  0  0  0
 79158  1  0  0  0
 80 88  1  0  0  0
 80159  1  0  0  0
 80160  1  0  0  0
 81161  1  0  0  0
 82 86  1  0  0  0
 82162  1  0  0  0
 83163  1  0  0  0
 84164  1  0  0  0
 84165  1  0  0  0
 84166  1  0  0  0
 85167  1  0  0  0
 85168  1  0  0  0
 85169  1  0  0  0
 86 87  1  0  0  0
 86170  1  0  0  0
 86171  1  0  0  0
M  ISO  4   1 100  68 101  83 101  88 100
M  END
> <chiral flag>
0

> <version>
0

> <s_m_source_file>
/data/baiqing/PycharmProjects/Reinvent-master-3.2/result/LINK_invent/BTK/process_docking_weight1_custom_sum_contain_oxygen_bond_distance_aromatic_linkinvent_7_9_3/rearranged_h_0142.sdf

> <i_m_source_file_index>
90

> <r_mmod_Potential_Energy-OPLS-2005>
220.429000854492

> <r_mmod_Stretch_Energy-OPLS-2005>
58.0173454284668

> <r_mmod_Bend_Energy-OPLS-2005>
153.559631347656

> <r_mmod_Torsional_Energy-OPLS-2005>
353.832122802734

> <r_mmod_Improper_Torsional_Energy-OPLS-2005>
5.0455002784729

> <r_mmod_Van_der_Waal_Energy-OPLS-2005>
126.620307922363

> <r_mmod_Electrostatic_Energy-OPLS-2005>
-305.617126464844

> <r_mmod_Solvation_Energy-OPLS-2005>
-199.640411376953

> <b_mmod_Minimization_Converged-OPLS-2005>
0

> <r_mmod_RMS_Derivative-OPLS-2005>
1.06797850131989

$$$$
93
                    3D
 Structure written by MMmdl.
179189  0  0  1  0            999 V2000
  -30.6931  -14.4643   20.5925 C   0  0  0  0  0  0
  -30.4279  -12.3101   19.4082 C   0  0  0  0  0  0
  -29.4884  -12.5069   18.1995 C   0  0  0  0  0  0
  -28.0117  -12.3675   18.6171 C   0  0  0  0  0  0
  -27.6628  -13.2029   19.8775 C   0  0  2  0  0  0
  -28.7056  -12.9598   20.9914 C   0  0  0  0  0  0
  -25.2603  -13.8176   20.5731 C   0  0  0  0  0  0
  -24.1841  -13.0439   20.9188 C   0  0  0  0  0  0
  -24.6385  -11.6904   20.8727 C   0  0  0  0  0  0
  -23.9052  -10.4291   21.0395 C   0  0  0  0  0  0
  -24.3609   -9.4215   21.9182 C   0  0  0  0  0  0
  -23.6297   -8.2242   22.0763 C   0  0  0  0  0  0
  -22.4279   -8.0277   21.3547 C   0  0  0  0  0  0
  -21.9907   -9.0247   20.4653 C   0  0  0  0  0  0
  -22.7221  -10.2136   20.3056 C   0  0  0  0  0  0
  -21.6856   -6.0736   22.5286 C   0  0  0  0  0  0
  -21.4006   -6.5639   23.8212 C   0  0  0  0  0  0
  -21.3660   -5.6801   24.9183 C   0  0  0  0  0  0
  -21.6041   -4.3065   24.7231 C   0  0  0  0  0  0
  -21.8812   -3.8148   23.4357 C   0  0  0  0  0  0
  -21.9191   -4.6961   22.3412 C   0  0  0  0  0  0
  -22.7859  -13.5225   21.1848 C   0  0  0  0  0  0
  -22.1663   -4.2148   21.0988 F   0  0  0  0  0  0
  -21.5636   -3.4542   25.7737 F   0  0  0  0  0  0
  -30.0384  -13.2784   20.4452 N   0  0  0  0  0  0
  -26.3025  -12.9326   20.3389 N   0  0  0  0  0  0
  -25.9315  -11.6490   20.5779 N   0  0  0  0  0  0
  -22.0504  -12.8212   22.0419 N   0  0  0  0  0  0
  -25.4356  -15.1896   20.4201 N   0  0  0  0  0  0
  -31.7988  -14.6819   20.0837 O   0  0  0  0  0  0
  -21.6643   -6.8871   21.4242 O   0  0  0  0  0  0
  -22.3519  -14.5510   20.6694 O   0  0  0  0  0  0
  -24.6114  -31.8688   23.2109 C   0  0  0  0  0  0
  -25.9017  -32.4832   23.8414 C   0  0  1  0  0  0
  -27.2466  -27.4503   20.1076 C   0  0  0  0  0  0
  -25.5887  -33.8631   24.2344 N   0  0  0  0  0  0
  -23.4013  -30.4895   21.5474 C   0  0  2  0  0  0
  -24.8542  -28.9546   20.1186 C   0  0  0  0  0  0
  -22.7409  -29.4657   22.4979 C   0  0  0  0  0  0
  -18.0276  -28.1390   22.8495 C   0  0  0  0  0  0
  -24.1492  -36.7320   23.2634 C   0  0  0  0  0  0
  -25.9265  -30.8395   21.3639 C   0  0  0  0  0  0
  -26.0081  -29.4703   20.7225 C   0  0  0  0  0  0
  -27.2071  -28.7241   20.7234 C   0  0  0  0  0  0
  -26.0834  -26.9523   19.4893 C   0  0  0  0  0  0
  -24.8845  -27.6911   19.5020 C   0  0  0  0  0  0
  -23.6131  -29.8169   20.1638 C   0  0  0  0  0  0
  -25.4106  -36.3111   24.0340 C   0  0  1  0  0  0
  -20.5867  -28.3671   23.1326 C   0  0  2  0  0  0
  -20.6769  -26.9409   22.5418 C   0  0  0  0  0  0
  -19.5741  -26.6395   21.5222 C   0  0  0  0  0  0
  -18.1920  -26.7939   22.1628 C   0  0  0  0  0  0
  -19.1524  -28.8846   23.2912 C   0  0  0  0  0  0
  -18.9447  -30.1456   23.8921 C   0  0  0  0  0  0
  -17.6447  -30.6594   24.0572 C   0  0  0  0  0  0
  -25.9032  -34.9481   23.5143 C   0  0  0  0  0  0
  -16.5342  -29.9099   23.6324 C   0  0  0  0  0  0
  -16.7264  -28.6518   23.0343 C   0  0  0  0  0  0
  -26.4469  -31.6599   25.0728 C   0  0  0  0  0  0
  -25.3762  -31.3725   26.1507 C   0  0  0  0  0  0
  -27.0271  -30.3031   24.6089 C   0  0  0  0  0  0
  -27.6075  -32.4307   25.7458 C   0  0  0  0  0  0
  -27.5597  -37.1795   24.8447 C   0  0  0  0  0  0
  -21.4138  -29.3038   22.3725 N   0  0  0  0  0  0
  -26.4283  -37.3801   23.9431 N   0  0  0  0  0  0
  -24.6637  -31.0812   22.0995 N   0  0  0  0  0  0
  -23.4188  -28.8189   23.3008 O   0  0  0  0  0  0
  -28.3802  -26.6724   20.0528 O   0  0  0  0  0  0
  -26.5591  -34.8925   22.4702 O   0  0  0  0  0  0
  -23.5313  -32.1420   23.7517 O   0  0  0  0  0  0
  -30.9263  -18.8099   22.4268 C   0  0  0  0  0  0
  -30.4040  -19.6040   21.4118 C   0  0  0  0  0  0
  -30.8307  -17.4024   22.4031 C   0  0  0  0  0  0
  -29.7837  -18.9263   20.3271 C   0  0  0  0  0  0
  -30.2113  -16.8015   21.2805 C   0  0  0  0  0  0
  -31.5708  -19.6301   23.4938 C   0  0  0  0  0  0
  -29.2879  -21.8195   22.0097 C   0  0  0  0  0  0
  -31.2314  -21.8329   20.4457 C   0  0  0  0  0  0
  -29.3124  -23.3748   22.0484 C   0  0  0  0  0  0
  -31.3090  -23.3672   20.5566 C   0  0  0  0  0  0
  -31.6571  -21.0630   22.9183 C   0  0  1  0  0  0
  -30.6370  -21.1155   21.6872 C   0  0  2  0  0  0
  -31.3928  -16.5659   23.5481 C   0  0  0  0  0  0
  -29.1700  -19.6119   19.1181 C   0  0  0  0  0  0
  -32.4637  -21.7458   25.3031 C   0  0  0  0  0  0
  -30.2446  -25.4962   21.1027 C   0  0  0  0  0  0
  -28.9944  -26.3855   21.3082 C   0  0  0  0  0  0
  -31.6027  -22.1110   24.0786 C   0  0  1  0  0  0
  -29.6985  -17.5701   20.2855 N   0  0  0  0  0  0
  -30.0163  -15.3957   21.2879 N   0  0  0  0  0  0
  -30.0160  -24.0279   20.9038 N   0  3  2  0  0  0
  -32.1057  -23.3678   23.6689 O   0  0  0  0  0  0
  -31.4675  -12.4247   19.0954 H   0  0  0  0  0  0
  -30.3474  -11.2941   19.7973 H   0  0  0  0  0  0
  -29.7234  -11.7841   17.4161 H   0  0  0  0  0  0
  -29.6543  -13.4930   17.7622 H   0  0  0  0  0  0
  -27.8208  -11.3114   18.8130 H   0  0  0  0  0  0
  -27.3583  -12.6417   17.7884 H   0  0  0  0  0  0
  -27.7121  -14.2537   19.5917 H   0  0  0  0  0  0
  -28.6827  -11.9159   21.3048 H   0  0  0  0  0  0
  -28.4605  -13.5274   21.8900 H   0  0  0  0  0  0
  -25.2769   -9.5708   22.4742 H   0  0  0  0  0  0
  -24.0018   -7.4643   22.7492 H   0  0  0  0  0  0
  -21.0840   -8.8766   19.8958 H   0  0  0  0  0  0
  -22.3689  -10.9670   19.6162 H   0  0  0  0  0  0
  -21.1987   -7.6142   23.9706 H   0  0  0  0  0  0
  -21.1492   -6.0543   25.9085 H   0  0  0  0  0  0
  -22.0585   -2.7604   23.2870 H   0  0  0  0  0  0
  -22.4102  -11.9860   22.4784 H   0  0  0  0  0  0
  -21.1118  -13.1240   22.2608 H   0  0  0  0  0  0
  -24.6835  -15.8564   20.5555 H   0  0  0  0  0  0
  -26.3000  -15.6275   20.1276 H   0  0  0  0  0  0
  -26.7096  -32.5565   23.1195 H   0  0  0  0  0  0
  -25.0062  -33.9795   25.0504 H   0  0  0  0  0  0
  -22.6887  -31.3039   21.4046 H   0  0  0  0  0  0
  -23.3777  -35.9621   23.3209 H   0  0  0  0  0  0
  -24.3614  -36.9027   22.2068 H   0  0  0  0  0  0
  -23.7197  -37.6480   23.6706 H   0  0  0  0  0  0
  -26.0355  -31.6009   20.5898 H   0  0  0  0  0  0
  -26.8161  -30.9014   21.9791 H   0  0  0  0  0  0
  -28.0944  -29.1381   21.1815 H   0  0  0  0  0  0
  -26.1068  -25.9852   19.0069 H   0  0  0  0  0  0
  -23.9998  -27.2863   19.0308 H   0  0  0  0  0  0
  -23.7201  -30.5877   19.4001 H   0  0  0  0  0  0
  -22.7411  -29.2302   19.8701 H   0  0  0  0  0  0
  -25.1273  -36.1973   25.0827 H   0  0  0  0  0  0
  -20.9969  -28.3242   24.1441 H   0  0  0  0  0  0
  -20.5701  -26.2274   23.3598 H   0  0  0  0  0  0
  -21.6633  -26.7465   22.1191 H   0  0  0  0  0  0
  -19.6898  -25.6311   21.1239 H   0  0  0  0  0  0
  -19.6688  -27.3218   20.6763 H   0  0  0  0  0  0
  -17.4194  -26.6705   21.4024 H   0  0  0  0  0  0
  -18.0305  -26.0085   22.9024 H   0  0  0  0  0  0
  -19.7920  -30.7275   24.2301 H   0  0  0  0  0  0
  -17.4996  -31.6272   24.5174 H   0  0  0  0  0  0
  -15.5342  -30.3004   23.7633 H   0  0  0  0  0  0
  -15.8666  -28.0848   22.7034 H   0  0  0  0  0  0
  -24.5815  -30.7225   25.7829 H   0  0  0  0  0  0
  -24.9113  -32.2910   26.5103 H   0  0  0  0  0  0
  -25.8107  -30.8730   27.0175 H   0  0  0  0  0  0
  -26.2778  -29.6797   24.1193 H   0  0  0  0  0  0
  -27.4079  -29.7275   25.4536 H   0  0  0  0  0  0
  -27.8613  -30.4334   23.9191 H   0  0  0  0  0  0
  -27.2733  -33.3625   26.2034 H   0  0  0  0  0  0
  -28.3870  -32.6835   25.0259 H   0  0  0  0  0  0
  -28.0750  -31.8426   26.5364 H   0  0  0  0  0  0
  -28.2550  -38.0157   24.7593 H   0  0  0  0  0  0
  -28.1159  -36.2697   24.6140 H   0  0  0  0  0  0
  -27.2337  -37.1284   25.8849 H   0  0  0  0  0  0
  -20.9292  -29.8764   21.6955 H   0  0  0  0  0  0
  -26.0171  -38.2863   24.1497 H   0  0  0  0  0  0
  -32.5526  -19.2414   23.7645 H   0  0  0  0  0  0
  -30.9243  -19.5823   24.3701 H   0  0  0  0  0  0
  -28.5467  -21.5433   21.2639 H   0  0  0  0  0  0
  -28.8822  -21.4395   22.9482 H   0  0  0  0  0  0
  -32.2179  -21.4306   20.2148 H   0  0  0  0  0  0
  -30.6335  -21.6448   19.5605 H   0  0  0  0  0  0
  -29.7320  -23.7308   22.9842 H   0  0  0  0  0  0
  -28.2767  -23.7149   22.0618 H   0  0  0  0  0  0
  -31.6417  -23.7620   19.5951 H   0  0  0  0  0  0
  -32.0922  -23.6498   21.2545 H   0  0  0  0  0  0
  -32.6576  -21.1107   22.4859 H   0  0  0  0  0  0
  -31.4392  -17.1304   24.4791 H   0  0  0  0  0  0
  -32.4013  -16.2309   23.3030 H   0  0  0  0  0  0
  -30.7840  -15.6845   23.7461 H   0  0  0  0  0  0
  -28.6992  -20.5594   19.3648 H   0  0  0  0  0  0
  -28.3961  -18.9913   18.6685 H   0  0  0  0  0  0
  -29.9310  -19.7873   18.3576 H   0  0  0  0  0  0
  -32.0537  -20.8958   25.8467 H   0  0  0  0  0  0
  -32.5061  -22.5659   26.0213 H   0  0  0  0  0  0
  -33.4870  -21.4942   25.0239 H   0  0  0  0  0  0
  -30.8990  -25.6219   21.9677 H   0  0  0  0  0  0
  -30.8009  -25.8939   20.2527 H   0  0  0  0  0  0
  -29.3254  -27.3194   21.7629 H   0  0  0  0  0  0
  -28.2802  -25.9482   22.0053 H   0  0  0  0  0  0
  -30.5781  -22.2283   24.4296 H   0  0  0  0  0  0
  -29.1524  -15.0783   21.6963 H   0  0  0  0  0  0
  -29.4163  -23.9279   20.0964 H   0  0  0  0  0  0
  -33.0553  -23.3078   23.6160 H   0  0  0  0  0  0
  1 25  1  0  0  0
  1 30  2  0  0  0
  1 90  1  0  0  0
  2  3  1  0  0  0
  2 25  1  0  0  0
  2 93  1  0  0  0
  2 94  1  0  0  0
  3  4  1  0  0  0
  3 95  1  0  0  0
  3 96  1  0  0  0
  4  5  1  0  0  0
  4 97  1  0  0  0
  4 98  1  0  0  0
  5  6  1  0  0  0
  5 26  1  0  0  0
  5 99  1  0  0  0
  6 25  1  0  0  0
  6100  1  0  0  0
  6101  1  0  0  0
  7  8  2  0  0  0
  7 26  1  0  0  0
  7 29  1  0  0  0
  8  9  1  0  0  0
  8 22  1  0  0  0
  9 10  1  0  0  0
  9 27  2  0  0  0
 10 11  2  0  0  0
 10 15  1  0  0  0
 11 12  1  0  0  0
 11102  1  0  0  0
 12 13  2  0  0  0
 12103  1  0  0  0
 13 14  1  0  0  0
 13 31  1  0  0  0
 14 15  2  0  0  0
 14104  1  0  0  0
 15105  1  0  0  0
 16 17  2  0  0  0
 16 21  1  0  0  0
 16 31  1  0  0  0
 17 18  1  0  0  0
 17106  1  0  0  0
 18 19  2  0  0  0
 18107  1  0  0  0
 19 20  1  0  0  0
 19 24  1  0  0  0
 20 21  2  0  0  0
 20108  1  0  0  0
 21 23  1  0  0  0
 22 28  1  0  0  0
 22 32  2  0  0  0
 26 27  1  0  0  0
 28109  1  0  0  0
 28110  1  0  0  0
 29111  1  0  0  0
 29112  1  0  0  0
 33 34  1  0  0  0
 33 66  1  0  0  0
 33 70  2  0  0  0
 34 36  1  0  0  0
 34 59  1  0  0  0
 34113  1  0  0  0
 35 44  2  0  0  0
 35 45  1  0  0  0
 35 68  1  0  0  0
 36 56  1  0  0  0
 36114  1  0  0  0
 37 39  1  0  0  0
 37 47  1  0  0  0
 37 66  1  0  0  0
 37115  1  0  0  0
 38 43  2  0  0  0
 38 46  1  0  0  0
 38 47  1  0  0  0
 39 64  1  0  0  0
 39 67  2  0  0  0
 40 52  1  0  0  0
 40 53  2  0  0  0
 40 58  1  0  0  0
 41116  1  0  0  0
 41117  1  0  0  0
 41118  1  0  0  0
 41 48  1  0  0  0
 42 43  1  0  0  0
 42 66  1  0  0  0
 42119  1  0  0  0
 42120  1  0  0  0
 43 44  1  0  0  0
 44121  1  0  0  0
 45 46  2  0  0  0
 45122  1  0  0  0
 46123  1  0  0  0
 47124  1  0  0  0
 47125  1  0  0  0
 48 56  1  0  0  0
 48 65  1  0  0  0
 48126  1  0  0  0
 49 50  1  0  0  0
 49 53  1  0  0  0
 49 64  1  0  0  0
 49127  1  0  0  0
 50 51  1  0  0  0
 50128  1  0  0  0
 50129  1  0  0  0
 51 52  1  0  0  0
 51130  1  0  0  0
 51131  1  0  0  0
 52132  1  0  0  0
 52133  1  0  0  0
 53 54  1  0  0  0
 54 55  2  0  0  0
 54134  1  0  0  0
 55 57  1  0  0  0
 55135  1  0  0  0
 56 69  2  0  0  0
 57 58  2  0  0  0
 57136  1  0  0  0
 58137  1  0  0  0
 59 60  1  0  0  0
 59 61  1  0  0  0
 59 62  1  0  0  0
 60138  1  0  0  0
 60139  1  0  0  0
 60140  1  0  0  0
 61141  1  0  0  0
 61142  1  0  0  0
 61143  1  0  0  0
 62144  1  0  0  0
 62145  1  0  0  0
 62146  1  0  0  0
 63 65  1  0  0  0
 63147  1  0  0  0
 63148  1  0  0  0
 63149  1  0  0  0
 64150  1  0  0  0
 65151  1  0  0  0
 68 87  1  0  0  0
 71 72  1  0  0  0
 71 73  2  0  0  0
 71 76  1  0  0  0
 72 74  2  0  0  0
 72 82  1  0  0  0
 73 75  1  0  0  0
 73 83  1  0  0  0
 74 84  1  0  0  0
 74 89  1  0  0  0
 75 89  2  0  0  0
 75 90  1  0  0  0
 76152  1  0  0  0
 76153  1  0  0  0
 76 81  1  0  0  0
 77 79  1  0  0  0
 77154  1  0  0  0
 77155  1  0  0  0
 77 82  1  0  0  0
 78 80  1  0  0  0
 78 82  1  0  0  0
 78156  1  0  0  0
 78157  1  0  0  0
 79 91  1  0  0  0
 79158  1  0  0  0
 79159  1  0  0  0
 80 91  1  0  0  0
 80160  1  0  0  0
 80161  1  0  0  0
 81 82  1  0  0  0
 81 88  1  0  0  0
 81162  1  0  0  0
 83163  1  0  0  0
 83164  1  0  0  0
 83165  1  0  0  0
 84166  1  0  0  0
 84167  1  0  0  0
 84168  1  0  0  0
 85169  1  0  0  0
 85170  1  0  0  0
 85171  1  0  0  0
 85 88  1  0  0  0
 86 87  1  0  0  0
 86172  1  0  0  0
 86173  1  0  0  0
 86 91  1  0  0  0
 87174  1  0  0  0
 87175  1  0  0  0
 88 92  1  0  0  0
 88176  1  0  0  0
 90177  1  0  0  0
 91178  1  0  0  0
 92179  1  0  0  0
M  CHG  1  91   1
M  ISO  4   1 100  68 101  87 101  90 100
M  END
> <chiral flag>
0

> <version>
0

> <s_m_source_file>
/data/baiqing/PycharmProjects/Reinvent-master-3.2/result/LINK_invent/BTK/process_docking_weight1_custom_sum_contain_oxygen_bond_distance_aromatic_linkinvent_7_9_3/rearranged_h_0142.sdf

> <i_m_source_file_index>
91

> <r_mmod_Potential_Energy-OPLS-2005>
-157.704055786133

> <r_mmod_Stretch_Energy-OPLS-2005>
50.7608375549316

> <r_mmod_Bend_Energy-OPLS-2005>
172.180877685547

> <r_mmod_Torsional_Energy-OPLS-2005>
315.973266601562

> <r_mmod_Improper_Torsional_Energy-OPLS-2005>
3.00754046440125

> <r_mmod_Van_der_Waal_Energy-OPLS-2005>
161.546325683594

> <r_mmod_Electrostatic_Energy-OPLS-2005>
-442.709381103516

> <r_mmod_Solvation_Energy-OPLS-2005>
-428.567413330078

> <b_mmod_Minimization_Converged-OPLS-2005>
0

> <r_mmod_RMS_Derivative-OPLS-2005>
2.28065037727356

$$$$
94
                    3D
 Structure written by MMmdl.
163172  0  0  1  0            999 V2000
  -30.5012  -15.0232   20.4086 C   0  0  0  0  0  0
  -30.4403  -12.6329   19.5255 C   0  0  0  0  0  0
  -29.5306  -12.5500   18.2753 C   0  0  0  0  0  0
  -28.0652  -12.3234   18.6835 C   0  0  0  0  0  0
  -27.6318  -13.2494   19.8472 C   0  0  2  0  0  0
  -28.6666  -13.2972   20.9925 C   0  0  0  0  0  0
  -25.2449  -13.8028   20.5566 C   0  0  0  0  0  0
  -24.1770  -13.0339   20.9205 C   0  0  0  0  0  0
  -24.6419  -11.6838   20.8775 C   0  0  0  0  0  0
  -23.9094  -10.4237   21.0417 C   0  0  0  0  0  0
  -24.3633   -9.4154   21.9202 C   0  0  0  0  0  0
  -23.6293   -8.2202   22.0761 C   0  0  0  0  0  0
  -22.4278   -8.0254   21.3544 C   0  0  0  0  0  0
  -21.9920   -9.0237   20.4648 C   0  0  0  0  0  0
  -22.7264  -10.2104   20.3066 C   0  0  0  0  0  0
  -21.6839   -6.0730   22.5284 C   0  0  0  0  0  0
  -21.4005   -6.5633   23.8217 C   0  0  0  0  0  0
  -21.3657   -5.6784   24.9177 C   0  0  0  0  0  0
  -21.6039   -4.3047   24.7226 C   0  0  0  0  0  0
  -21.8824   -3.8144   23.4347 C   0  0  0  0  0  0
  -21.9191   -4.6963   22.3402 C   0  0  0  0  0  0
  -22.7815  -13.5166   21.1871 C   0  0  0  0  0  0
  -22.1658   -4.2149   21.0978 F   0  0  0  0  0  0
  -21.5640   -3.4528   25.7740 F   0  0  0  0  0  0
  -29.9389  -13.7369   20.4061 N   0  0  0  0  0  0
  -26.2912  -12.9333   20.3254 N   0  0  0  0  0  0
  -25.9368  -11.6476   20.5802 N   0  0  0  0  0  0
  -22.0449  -12.8173   22.0431 N   0  0  0  0  0  0
  -25.4098  -15.1633   20.3679 N   0  0  0  0  0  0
  -31.6895  -15.0823   20.0618 O   0  0  0  0  0  0
  -21.6625   -6.8869   21.4244 O   0  0  0  0  0  0
  -22.3510  -14.5492   20.6737 O   0  0  0  0  0  0
  -24.6459  -31.8402   23.1848 C   0  0  0  0  0  0
  -25.9223  -32.4669   23.8246 C   0  0  1  0  0  0
  -27.2338  -27.1169   20.1656 C   0  0  0  0  0  0
  -25.5958  -33.8477   24.2163 N   0  0  0  0  0  0
  -23.4514  -30.4565   21.5304 C   0  0  2  0  0  0
  -24.9044  -28.8709   20.1187 C   0  0  0  0  0  0
  -22.7566  -29.4544   22.4866 C   0  0  0  0  0  0
  -18.0319  -28.1389   22.8511 C   0  0  0  0  0  0
  -24.1490  -36.7251   23.2644 C   0  0  0  0  0  0
  -26.0082  -30.7092   21.3840 C   0  0  0  0  0  0
  -26.0828  -29.3154   20.7313 C   0  0  0  0  0  0
  -27.2491  -28.4583   20.7300 C   0  0  0  0  0  0
  -26.0281  -26.7727   19.5176 C   0  0  0  0  0  0
  -24.8900  -27.6121   19.4954 C   0  0  0  0  0  0
  -23.6807  -29.7759   20.1548 C   0  0  0  0  0  0
  -25.4124  -36.3017   24.0310 C   0  0  1  0  0  0
  -20.5929  -28.3733   23.1251 C   0  0  2  0  0  0
  -20.6809  -26.9434   22.5415 C   0  0  0  0  0  0
  -19.5783  -26.6377   21.5231 C   0  0  0  0  0  0
  -18.1963  -26.7934   22.1647 C   0  0  0  0  0  0
  -19.1570  -28.8877   23.2877 C   0  0  0  0  0  0
  -18.9485  -30.1476   23.8894 C   0  0  0  0  0  0
  -17.6481  -30.6601   24.0560 C   0  0  0  0  0  0
  -25.9082  -34.9394   23.5049 C   0  0  0  0  0  0
  -16.5381  -29.9088   23.6340 C   0  0  0  0  0  0
  -16.7308  -28.6493   23.0376 C   0  0  0  0  0  0
  -26.4534  -31.6552   25.0703 C   0  0  0  0  0  0
  -25.3719  -31.3736   26.1396 C   0  0  0  0  0  0
  -27.0411  -30.2947   24.6305 C   0  0  0  0  0  0
  -27.6046  -32.4332   25.7511 C   0  0  0  0  0  0
  -27.5570  -37.1784   24.8467 C   0  0  0  0  0  0
  -21.4247  -29.3081   22.3625 N   0  0  0  0  0  0
  -26.4283  -37.3735   23.9405 N   0  0  0  0  0  0
  -24.7216  -31.0239   22.0883 N   0  0  0  0  0  0
  -23.4203  -28.8097   23.3030 O   0  0  0  0  0  0
  -28.3042  -26.1417   20.1737 O   0  0  0  0  0  0
  -26.5669  -34.8905   22.4625 O   0  0  0  0  0  0
  -23.5575  -32.1291   23.7057 O   0  0  0  0  0  0
  -27.2134  -18.2573   19.3616 C   0  0  0  0  0  0
  -27.6386  -18.5800   20.6761 C   0  0  0  0  0  0
  -29.0264  -18.8656   20.7464 C   0  0  0  0  0  0
  -28.2207  -17.9356   18.4130 C   0  0  0  0  0  0
  -29.6882  -17.6460   20.1408 C   0  0  0  0  0  0
  -25.4028  -17.8296   21.8957 C   0  0  0  0  0  0
  -25.4368  -19.3163   22.0500 C   0  0  0  0  0  0
  -26.7381  -18.5426   21.8947 C   0  0  0  0  0  0
  -27.8901  -17.7460   16.9488 C   0  0  0  0  0  0
  -27.4171  -21.5856   21.4425 C   0  0  0  0  0  0
  -28.8609  -23.1943   20.0616 C   0  0  0  0  0  0
  -28.1039  -24.6401   20.5874 C   0  0  0  0  0  0
  -28.8080  -21.6688   20.8390 C   0  0  2  0  0  0
  -29.4947  -17.6418   18.7994 N   0  0  0  0  0  0
  -29.7440  -16.2069   20.7158 N   0  0  0  0  0  0
  -29.2951  -20.2619   20.2830 O   0  0  0  0  0  0
  -31.4733  -12.7956   19.2141 H   0  0  0  0  0  0
  -30.4434  -11.6835   20.0636 H   0  0  0  0  0  0
  -29.8625  -11.7479   17.6150 H   0  0  0  0  0  0
  -29.6117  -13.4751   17.7028 H   0  0  0  0  0  0
  -27.9661  -11.2813   18.9877 H   0  0  0  0  0  0
  -27.4038  -12.4576   17.8268 H   0  0  0  0  0  0
  -27.5907  -14.2513   19.4182 H   0  0  0  0  0  0
  -28.7694  -12.3241   21.4760 H   0  0  0  0  0  0
  -28.3462  -13.9940   21.7675 H   0  0  0  0  0  0
  -25.2780   -9.5622   22.4768 H   0  0  0  0  0  0
  -23.9989   -7.4592   22.7485 H   0  0  0  0  0  0
  -21.0851   -8.8775   19.8952 H   0  0  0  0  0  0
  -22.3741  -10.9652   19.6171 H   0  0  0  0  0  0
  -21.1988   -7.6138   23.9723 H   0  0  0  0  0  0
  -21.1472   -6.0509   25.9080 H   0  0  0  0  0  0
  -22.0608   -2.7606   23.2847 H   0  0  0  0  0  0
  -22.4063  -11.9824   22.4801 H   0  0  0  0  0  0
  -21.1082  -13.1222   22.2668 H   0  0  0  0  0  0
  -24.6376  -15.8070   20.4923 H   0  0  0  0  0  0
  -26.2532  -15.6098   20.0342 H   0  0  0  0  0  0
  -26.7293  -32.5269   23.0975 H   0  0  0  0  0  0
  -25.0068  -33.9585   25.0289 H   0  0  0  0  0  0
  -22.7565  -31.2830   21.3690 H   0  0  0  0  0  0
  -23.3749  -35.9586   23.3292 H   0  0  0  0  0  0
  -24.3574  -36.8902   22.2063 H   0  0  0  0  0  0
  -23.7262  -37.6447   23.6697 H   0  0  0  0  0  0
  -26.1640  -31.4590   20.6074 H   0  0  0  0  0  0
  -26.8788  -30.7625   22.0266 H   0  0  0  0  0  0
  -28.1524  -28.8047   21.2123 H   0  0  0  0  0  0
  -25.9539  -25.8116   19.0292 H   0  0  0  0  0  0
  -23.9914  -27.2640   19.0041 H   0  0  0  0  0  0
  -23.8213  -30.5480   19.3973 H   0  0  0  0  0  0
  -22.7948  -29.2191   19.8439 H   0  0  0  0  0  0
  -25.1315  -36.1824   25.0803 H   0  0  0  0  0  0
  -21.0045  -28.3332   24.1373 H   0  0  0  0  0  0
  -20.5734  -26.2353   23.3643 H   0  0  0  0  0  0
  -21.6664  -26.7480   22.1179 H   0  0  0  0  0  0
  -19.6967  -25.6268   21.1283 H   0  0  0  0  0  0
  -19.6699  -27.3176   20.6746 H   0  0  0  0  0  0
  -17.4244  -26.6711   21.4038 H   0  0  0  0  0  0
  -18.0352  -26.0043   22.9020 H   0  0  0  0  0  0
  -19.7947  -30.7306   24.2269 H   0  0  0  0  0  0
  -17.5044  -31.6287   24.5161 H   0  0  0  0  0  0
  -15.5382  -30.2999   23.7665 H   0  0  0  0  0  0
  -15.8713  -28.0797   22.7118 H   0  0  0  0  0  0
  -24.5906  -30.7069   25.7725 H   0  0  0  0  0  0
  -24.8898  -32.2916   26.4768 H   0  0  0  0  0  0
  -25.8010  -30.8954   27.0210 H   0  0  0  0  0  0
  -26.3039  -29.6656   24.1298 H   0  0  0  0  0  0
  -27.4001  -29.7254   25.4889 H   0  0  0  0  0  0
  -27.8951  -30.4176   23.9642 H   0  0  0  0  0  0
  -27.2610  -33.3644   26.2027 H   0  0  0  0  0  0
  -28.3900  -32.6870   25.0380 H   0  0  0  0  0  0
  -28.0664  -31.8497   26.5489 H   0  0  0  0  0  0
  -28.2575  -38.0088   24.7496 H   0  0  0  0  0  0
  -28.1073  -36.2612   24.6301 H   0  0  0  0  0  0
  -27.2286  -37.1443   25.8871 H   0  0  0  0  0  0
  -20.9444  -29.8793   21.6816 H   0  0  0  0  0  0
  -26.0134  -38.2795   24.1399 H   0  0  0  0  0  0
  -26.1661  -18.2203   19.0966 H   0  0  0  0  0  0
  -24.9280  -17.5337   20.9666 H   0  0  0  0  0  0
  -25.1537  -17.2281   22.7679 H   0  0  0  0  0  0
  -25.1909  -19.7122   23.0333 H   0  0  0  0  0  0
  -25.0475  -19.8834   21.2083 H   0  0  0  0  0  0
  -27.3468  -18.4302   22.7897 H   0  0  0  0  0  0
  -27.2902  -18.5785   16.5827 H   0  0  0  0  0  0
  -27.3240  -16.8271   16.8021 H   0  0  0  0  0  0
  -28.7957  -17.6890   16.3421 H   0  0  0  0  0  0
  -27.4296  -20.9342   22.3106 H   0  0  0  0  0  0
  -26.7063  -21.2488   20.6905 H   0  0  0  0  0  0
  -27.0591  -22.5413   21.8199 H   0  0  0  0  0  0
  -29.9172  -23.4302   19.9296 H   0  0  0  0  0  0
  -28.5002  -23.0280   19.0476 H   0  0  0  0  0  0
  -28.3015  -24.6701   21.6595 H   0  0  0  0  0  0
  -27.0338  -24.4486   20.5281 H   0  0  0  0  0  0
  -29.4683  -21.8121   21.6962 H   0  0  0  0  0  0
  -28.9346  -15.9915   21.2749 H   0  0  0  0  0  0
  1 25  1  0  0  0
  1 30  2  0  0  0
  1 85  1  0  0  0
  2  3  1  0  0  0
  2 25  1  0  0  0
  2 87  1  0  0  0
  2 88  1  0  0  0
  3  4  1  0  0  0
  3 89  1  0  0  0
  3 90  1  0  0  0
  4  5  1  0  0  0
  4 91  1  0  0  0
  4 92  1  0  0  0
  5  6  1  0  0  0
  5 26  1  0  0  0
  5 93  1  0  0  0
  6 25  1  0  0  0
  6 94  1  0  0  0
  6 95  1  0  0  0
  7  8  2  0  0  0
  7 26  1  0  0  0
  7 29  1  0  0  0
  8  9  1  0  0  0
  8 22  1  0  0  0
  9 10  1  0  0  0
  9 27  2  0  0  0
 10 11  2  0  0  0
 10 15  1  0  0  0
 11 12  1  0  0  0
 11 96  1  0  0  0
 12 13  2  0  0  0
 12 97  1  0  0  0
 13 14  1  0  0  0
 13 31  1  0  0  0
 14 15  2  0  0  0
 14 98  1  0  0  0
 15 99  1  0  0  0
 16 17  2  0  0  0
 16 21  1  0  0  0
 16 31  1  0  0  0
 17 18  1  0  0  0
 17100  1  0  0  0
 18 19  2  0  0  0
 18101  1  0  0  0
 19 20  1  0  0  0
 19 24  1  0  0  0
 20 21  2  0  0  0
 20102  1  0  0  0
 21 23  1  0  0  0
 22 28  1  0  0  0
 22 32  2  0  0  0
 26 27  1  0  0  0
 28103  1  0  0  0
 28104  1  0  0  0
 29105  1  0  0  0
 29106  1  0  0  0
 33 34  1  0  0  0
 33 66  1  0  0  0
 33 70  2  0  0  0
 34 36  1  0  0  0
 34 59  1  0  0  0
 34107  1  0  0  0
 35 44  2  0  0  0
 35 45  1  0  0  0
 35 68  1  0  0  0
 36 56  1  0  0  0
 36108  1  0  0  0
 37 39  1  0  0  0
 37 47  1  0  0  0
 37 66  1  0  0  0
 37109  1  0  0  0
 38 43  2  0  0  0
 38 46  1  0  0  0
 38 47  1  0  0  0
 39 64  1  0  0  0
 39 67  2  0  0  0
 40 52  1  0  0  0
 40 53  2  0  0  0
 40 58  1  0  0  0
 41110  1  0  0  0
 41111  1  0  0  0
 41112  1  0  0  0
 41 48  1  0  0  0
 42 43  1  0  0  0
 42 66  1  0  0  0
 42113  1  0  0  0
 42114  1  0  0  0
 43 44  1  0  0  0
 44115  1  0  0  0
 45 46  2  0  0  0
 45116  1  0  0  0
 46117  1  0  0  0
 47118  1  0  0  0
 47119  1  0  0  0
 48 56  1  0  0  0
 48 65  1  0  0  0
 48120  1  0  0  0
 49 50  1  0  0  0
 49 53  1  0  0  0
 49 64  1  0  0  0
 49121  1  0  0  0
 50 51  1  0  0  0
 50122  1  0  0  0
 50123  1  0  0  0
 51 52  1  0  0  0
 51124  1  0  0  0
 51125  1  0  0  0
 52126  1  0  0  0
 52127  1  0  0  0
 53 54  1  0  0  0
 54 55  2  0  0  0
 54128  1  0  0  0
 55 57  1  0  0  0
 55129  1  0  0  0
 56 69  2  0  0  0
 57 58  2  0  0  0
 57130  1  0  0  0
 58131  1  0  0  0
 59 60  1  0  0  0
 59 61  1  0  0  0
 59 62  1  0  0  0
 60132  1  0  0  0
 60133  1  0  0  0
 60134  1  0  0  0
 61135  1  0  0  0
 61136  1  0  0  0
 61137  1  0  0  0
 62138  1  0  0  0
 62139  1  0  0  0
 62140  1  0  0  0
 63 65  1  0  0  0
 63141  1  0  0  0
 63142  1  0  0  0
 63143  1  0  0  0
 64144  1  0  0  0
 65145  1  0  0  0
 68 82  1  0  0  0
 71 72  2  0  0  0
 71 74  1  0  0  0
 71146  1  0  0  0
 72 73  1  0  0  0
 72 78  1  0  0  0
 73 75  2  0  0  0
 73 86  1  0  0  0
 74 79  1  0  0  0
 74 84  2  0  0  0
 75 84  1  0  0  0
 75 85  1  0  0  0
 76 77  1  0  0  0
 76 78  1  0  0  0
 76147  1  0  0  0
 76148  1  0  0  0
 77 78  1  0  0  0
 77149  1  0  0  0
 77150  1  0  0  0
 78151  1  0  0  0
 79152  1  0  0  0
 79153  1  0  0  0
 79154  1  0  0  0
 80155  1  0  0  0
 80156  1  0  0  0
 80157  1  0  0  0
 80 83  1  0  0  0
 81 82  1  0  0  0
 81 83  1  0  0  0
 81158  1  0  0  0
 81159  1  0  0  0
 82160  1  0  0  0
 82161  1  0  0  0
 83 86  1  0  0  0
 83162  1  0  0  0
 85163  1  0  0  0
M  ISO  4   1 100  68 101  82 101  85 100
M  END
> <chiral flag>
0

> <version>
0

> <s_m_source_file>
/data/baiqing/PycharmProjects/Reinvent-master-3.2/result/LINK_invent/BTK/process_docking_weight1_custom_sum_contain_oxygen_bond_distance_aromatic_linkinvent_7_9_3/rearranged_h_0142.sdf

> <i_m_source_file_index>
92

> <r_mmod_Potential_Energy-OPLS-2005>
875.583862304688

> <r_mmod_Stretch_Energy-OPLS-2005>
339.686096191406

> <r_mmod_Bend_Energy-OPLS-2005>
362.038482666016

> <r_mmod_Torsional_Energy-OPLS-2005>
523.398864746094

> <r_mmod_Improper_Torsional_Energy-OPLS-2005>
40.212100982666

> <r_mmod_Van_der_Waal_Energy-OPLS-2005>
152.655822753906

> <r_mmod_Electrostatic_Energy-OPLS-2005>
-531.341003417969

> <r_mmod_Solvation_Energy-OPLS-2005>
-235.135559082031

> <b_mmod_Minimization_Converged-OPLS-2005>
0

> <r_mmod_RMS_Derivative-OPLS-2005>
2.22248578071594

$$$$
95
                    3D
 Structure written by MMmdl.
170179  0  0  1  0            999 V2000
  -30.7701  -14.3728   20.6948 C   0  0  0  0  0  0
  -30.4160  -12.3046   19.3891 C   0  0  0  0  0  0
  -29.4799  -12.5337   18.1880 C   0  0  0  0  0  0
  -28.0062  -12.3821   18.6082 C   0  0  0  0  0  0
  -27.6640  -13.2061   19.8765 C   0  0  2  0  0  0
  -28.7024  -12.9527   20.9907 C   0  0  0  0  0  0
  -25.2599  -13.8168   20.5669 C   0  0  0  0  0  0
  -24.1844  -13.0444   20.9159 C   0  0  0  0  0  0
  -24.6395  -11.6909   20.8726 C   0  0  0  0  0  0
  -23.9064  -10.4294   21.0399 C   0  0  0  0  0  0
  -24.3614   -9.4213   21.9184 C   0  0  0  0  0  0
  -23.6288   -8.2251   22.0759 C   0  0  0  0  0  0
  -22.4274   -8.0285   21.3543 C   0  0  0  0  0  0
  -21.9910   -9.0255   20.4647 C   0  0  0  0  0  0
  -22.7238  -10.2136   20.3047 C   0  0  0  0  0  0
  -21.6852   -6.0737   22.5280 C   0  0  0  0  0  0
  -21.4013   -6.5639   23.8212 C   0  0  0  0  0  0
  -21.3660   -5.6795   24.9176 C   0  0  0  0  0  0
  -21.6043   -4.3055   24.7229 C   0  0  0  0  0  0
  -21.8820   -3.8146   23.4348 C   0  0  0  0  0  0
  -21.9193   -4.6964   22.3403 C   0  0  0  0  0  0
  -22.7869  -13.5244   21.1828 C   0  0  0  0  0  0
  -22.1662   -4.2148   21.0979 F   0  0  0  0  0  0
  -21.5632   -3.4538   25.7742 F   0  0  0  0  0  0
  -30.0437  -13.2500   20.4524 N   0  0  0  0  0  0
  -26.3031  -12.9339   20.3366 N   0  0  0  0  0  0
  -25.9319  -11.6493   20.5749 N   0  0  0  0  0  0
  -22.0505  -12.8226   22.0377 N   0  0  0  0  0  0
  -25.4331  -15.1884   20.4079 N   0  0  0  0  0  0
  -31.7955  -14.6645   20.0721 O   0  0  0  0  0  0
  -21.6639   -6.8880   21.4239 O   0  0  0  0  0  0
  -22.3553  -14.5554   20.6692 O   0  0  0  0  0  0
  -24.6124  -31.8675   23.2136 C   0  0  0  0  0  0
  -25.9021  -32.4815   23.8419 C   0  0  1  0  0  0
  -27.2387  -27.4448   20.0762 C   0  0  0  0  0  0
  -25.5875  -33.8614   24.2340 N   0  0  0  0  0  0
  -23.3998  -30.4908   21.5556 C   0  0  2  0  0  0
  -24.8438  -28.9568   20.1178 C   0  0  0  0  0  0
  -22.7391  -29.4646   22.5032 C   0  0  0  0  0  0
  -18.0254  -28.1365   22.8492 C   0  0  0  0  0  0
  -24.1478  -36.7326   23.2638 C   0  0  0  0  0  0
  -25.9270  -30.8332   21.3650 C   0  0  0  0  0  0
  -26.0024  -29.4669   20.7148 C   0  0  0  0  0  0
  -27.1971  -28.7130   20.7005 C   0  0  0  0  0  0
  -26.0552  -26.9430   19.4855 C   0  0  0  0  0  0
  -24.8635  -27.6922   19.5060 C   0  0  0  0  0  0
  -23.6059  -29.8227   20.1698 C   0  0  0  0  0  0
  -25.4093  -36.3106   24.0339 C   0  0  1  0  0  0
  -20.5842  -28.3640   23.1336 C   0  0  2  0  0  0
  -20.6735  -26.9382   22.5422 C   0  0  0  0  0  0
  -19.5724  -26.6379   21.5205 C   0  0  0  0  0  0
  -18.1903  -26.7915   22.1617 C   0  0  0  0  0  0
  -19.1500  -28.8820   23.2906 C   0  0  0  0  0  0
  -18.9431  -30.1430   23.8908 C   0  0  0  0  0  0
  -17.6433  -30.6572   24.0561 C   0  0  0  0  0  0
  -25.9022  -34.9465   23.5140 C   0  0  0  0  0  0
  -16.5324  -29.9076   23.6323 C   0  0  0  0  0  0
  -16.7242  -28.6493   23.0341 C   0  0  0  0  0  0
  -26.4457  -31.6592   25.0739 C   0  0  0  0  0  0
  -25.3731  -31.3641   26.1485 C   0  0  0  0  0  0
  -27.0316  -30.3057   24.6089 C   0  0  0  0  0  0
  -27.6038  -32.4311   25.7497 C   0  0  0  0  0  0
  -27.5570  -37.1817   24.8457 C   0  0  0  0  0  0
  -21.4123  -29.3016   22.3766 N   0  0  0  0  0  0
  -26.4279  -37.3789   23.9405 N   0  0  0  0  0  0
  -24.6652  -31.0777   22.1040 N   0  0  0  0  0  0
  -23.4163  -28.8179   23.3067 O   0  0  0  0  0  0
  -28.4354  -26.7544   20.0767 O   0  0  0  0  0  0
  -26.5595  -34.8906   22.4709 O   0  0  0  0  0  0
  -23.5322  -32.1437   23.7533 O   0  0  0  0  0  0
  -29.4503  -20.5683   22.4038 C   0  0  0  0  0  0
  -29.3836  -21.9457   22.1184 C   0  0  0  0  0  0
  -29.1671  -21.4422   19.7543 C   0  0  0  0  0  0
  -29.3824  -19.6099   21.3708 C   0  0  0  0  0  0
  -29.2532  -20.0554   20.0286 C   0  0  0  0  0  0
  -29.2202  -22.4005   20.7963 C   0  0  0  0  0  0
  -26.7982  -16.9780   16.6733 C   0  0  0  0  0  0
  -28.1170  -17.4898   16.1376 C   0  0  0  0  0  0
  -27.9200  -17.3180   17.6235 C   0  0  0  0  0  0
  -29.4657  -18.1288   21.7458 C   0  0  0  0  0  0
  -29.2408  -19.0743   18.8628 C   0  0  0  0  0  0
  -27.8441  -18.5220   18.5420 C   0  0  0  0  0  0
  -30.9070  -17.5853   21.7282 C   0  0  0  0  0  0
  -31.0808  -16.1965   22.3776 C   0  0  0  0  0  0
  -28.6366  -25.6732   19.1561 C   0  0  0  0  0  0
  -28.2069  -24.2864   19.6879 C   0  0  0  0  0  0
  -30.3370  -15.1200   21.7197 N   0  0  0  0  0  0
  -29.1895  -23.7648   20.5871 O   0  0  0  0  0  0
  -31.4574  -12.4125   19.0798 H   0  0  0  0  0  0
  -30.3220  -11.2814   19.7565 H   0  0  0  0  0  0
  -29.7136  -11.8300   17.3879 H   0  0  0  0  0  0
  -29.6440  -13.5318   17.7775 H   0  0  0  0  0  0
  -27.8186  -11.3234   18.7921 H   0  0  0  0  0  0
  -27.3492  -12.6693   17.7866 H   0  0  0  0  0  0
  -27.7208  -14.2601   19.6018 H   0  0  0  0  0  0
  -28.6692  -11.9091   21.3076 H   0  0  0  0  0  0
  -28.4449  -13.5294   21.8791 H   0  0  0  0  0  0
  -25.2757   -9.5694   22.4758 H   0  0  0  0  0  0
  -23.9997   -7.4647   22.7479 H   0  0  0  0  0  0
  -21.0844   -8.8767   19.8948 H   0  0  0  0  0  0
  -22.3695  -10.9669   19.6152 H   0  0  0  0  0  0
  -21.2000   -7.6151   23.9715 H   0  0  0  0  0  0
  -21.1482   -6.0525   25.9079 H   0  0  0  0  0  0
  -22.0599   -2.7608   23.2849 H   0  0  0  0  0  0
  -22.4107  -11.9867   22.4734 H   0  0  0  0  0  0
  -21.1123  -13.1254   22.2582 H   0  0  0  0  0  0
  -24.6685  -15.8457   20.5122 H   0  0  0  0  0  0
  -26.2901  -15.6232   20.0906 H   0  0  0  0  0  0
  -26.7093  -32.5528   23.1187 H   0  0  0  0  0  0
  -24.9975  -33.9778   25.0451 H   0  0  0  0  0  0
  -22.6880  -31.3073   21.4187 H   0  0  0  0  0  0
  -23.3723  -35.9679   23.3301 H   0  0  0  0  0  0
  -24.3566  -36.8952   22.2054 H   0  0  0  0  0  0
  -23.7253  -37.6536   23.6661 H   0  0  0  0  0  0
  -26.0325  -31.5969   20.5935 H   0  0  0  0  0  0
  -26.8191  -30.8921   21.9776 H   0  0  0  0  0  0
  -28.0943  -29.1080   21.1569 H   0  0  0  0  0  0
  -26.0284  -25.9757   19.0061 H   0  0  0  0  0  0
  -23.9706  -27.2915   19.0465 H   0  0  0  0  0  0
  -23.7102  -30.5974   19.4095 H   0  0  0  0  0  0
  -22.7300  -29.2402   19.8780 H   0  0  0  0  0  0
  -25.1273  -36.1976   25.0837 H   0  0  0  0  0  0
  -20.9911  -28.3191   24.1464 H   0  0  0  0  0  0
  -20.5612  -26.2248   23.3599 H   0  0  0  0  0  0
  -21.6611  -26.7412   22.1238 H   0  0  0  0  0  0
  -19.6880  -25.6294   21.1222 H   0  0  0  0  0  0
  -19.6666  -27.3189   20.6735 H   0  0  0  0  0  0
  -17.4174  -26.6655   21.4021 H   0  0  0  0  0  0
  -18.0300  -26.0051   22.9003 H   0  0  0  0  0  0
  -19.7905  -30.7241   24.2285 H   0  0  0  0  0  0
  -17.4985  -31.6249   24.5165 H   0  0  0  0  0  0
  -15.5321  -30.2973   23.7645 H   0  0  0  0  0  0
  -15.8642  -28.0814   22.7049 H   0  0  0  0  0  0
  -24.5965  -30.6915   25.7824 H   0  0  0  0  0  0
  -24.8823  -32.2747   26.4926 H   0  0  0  0  0  0
  -25.8112  -30.8844   27.0248 H   0  0  0  0  0  0
  -26.2867  -29.6794   24.1160 H   0  0  0  0  0  0
  -27.4143  -29.7303   25.4528 H   0  0  0  0  0  0
  -27.8664  -30.4421   23.9211 H   0  0  0  0  0  0
  -27.2683  -33.3631   26.2057 H   0  0  0  0  0  0
  -28.3847  -32.6830   25.0311 H   0  0  0  0  0  0
  -28.0692  -31.8429   26.5420 H   0  0  0  0  0  0
  -28.2586  -38.0116   24.7499 H   0  0  0  0  0  0
  -28.1071  -36.2646   24.6290 H   0  0  0  0  0  0
  -27.2282  -37.1473   25.8858 H   0  0  0  0  0  0
  -20.9272  -29.8768   21.7020 H   0  0  0  0  0  0
  -26.0169  -38.2870   24.1401 H   0  0  0  0  0  0
  -29.5641  -20.2487   23.4307 H   0  0  0  0  0  0
  -29.4525  -22.6607   22.9263 H   0  0  0  0  0  0
  -29.0987  -21.7601   18.7239 H   0  0  0  0  0  0
  -26.5681  -15.9245   16.5247 H   0  0  0  0  0  0
  -25.9446  -17.6517   16.6302 H   0  0  0  0  0  0
  -28.1420  -18.5045   15.7440 H   0  0  0  0  0  0
  -28.7721  -16.7790   15.6362 H   0  0  0  0  0  0
  -28.4321  -16.4668   18.0707 H   0  0  0  0  0  0
  -28.8269  -17.5278   21.0993 H   0  0  0  0  0  0
  -29.0517  -18.0076   22.7482 H   0  0  0  0  0  0
  -29.9251  -18.2535   19.0695 H   0  0  0  0  0  0
  -29.6469  -19.5622   17.9759 H   0  0  0  0  0  0
  -27.3363  -18.2099   19.4548 H   0  0  0  0  0  0
  -27.2251  -19.3008   18.0937 H   0  0  0  0  0  0
  -31.5406  -18.2816   22.2791 H   0  0  0  0  0  0
  -31.2996  -17.5742   20.7124 H   0  0  0  0  0  0
  -30.7608  -16.2378   23.4196 H   0  0  0  0  0  0
  -32.1415  -15.9398   22.4069 H   0  0  0  0  0  0
  -28.1390  -25.8855   18.2090 H   0  0  0  0  0  0
  -29.6969  -25.6419   18.9059 H   0  0  0  0  0  0
  -28.0670  -23.6375   18.8253 H   0  0  0  0  0  0
  -27.2432  -24.3390   20.1948 H   0  0  0  0  0  0
  -29.4916  -14.8034   22.1722 H   0  0  0  0  0  0
  1 25  1  0  0  0
  1 30  2  0  0  0
  1 87  1  0  0  0
  2  3  1  0  0  0
  2 25  1  0  0  0
  2 89  1  0  0  0
  2 90  1  0  0  0
  3  4  1  0  0  0
  3 91  1  0  0  0
  3 92  1  0  0  0
  4  5  1  0  0  0
  4 93  1  0  0  0
  4 94  1  0  0  0
  5  6  1  0  0  0
  5 26  1  0  0  0
  5 95  1  0  0  0
  6 25  1  0  0  0
  6 96  1  0  0  0
  6 97  1  0  0  0
  7  8  2  0  0  0
  7 26  1  0  0  0
  7 29  1  0  0  0
  8  9  1  0  0  0
  8 22  1  0  0  0
  9 10  1  0  0  0
  9 27  2  0  0  0
 10 11  2  0  0  0
 10 15  1  0  0  0
 11 12  1  0  0  0
 11 98  1  0  0  0
 12 13  2  0  0  0
 12 99  1  0  0  0
 13 14  1  0  0  0
 13 31  1  0  0  0
 14 15  2  0  0  0
 14100  1  0  0  0
 15101  1  0  0  0
 16 17  2  0  0  0
 16 21  1  0  0  0
 16 31  1  0  0  0
 17 18  1  0  0  0
 17102  1  0  0  0
 18 19  2  0  0  0
 18103  1  0  0  0
 19 20  1  0  0  0
 19 24  1  0  0  0
 20 21  2  0  0  0
 20104  1  0  0  0
 21 23  1  0  0  0
 22 28  1  0  0  0
 22 32  2  0  0  0
 26 27  1  0  0  0
 28105  1  0  0  0
 28106  1  0  0  0
 29107  1  0  0  0
 29108  1  0  0  0
 33 34  1  0  0  0
 33 66  1  0  0  0
 33 70  2  0  0  0
 34 36  1  0  0  0
 34 59  1  0  0  0
 34109  1  0  0  0
 35 44  2  0  0  0
 35 45  1  0  0  0
 35 68  1  0  0  0
 36 56  1  0  0  0
 36110  1  0  0  0
 37 39  1  0  0  0
 37 47  1  0  0  0
 37 66  1  0  0  0
 37111  1  0  0  0
 38 43  2  0  0  0
 38 46  1  0  0  0
 38 47  1  0  0  0
 39 64  1  0  0  0
 39 67  2  0  0  0
 40 52  1  0  0  0
 40 53  2  0  0  0
 40 58  1  0  0  0
 41112  1  0  0  0
 41113  1  0  0  0
 41114  1  0  0  0
 41 48  1  0  0  0
 42 43  1  0  0  0
 42 66  1  0  0  0
 42115  1  0  0  0
 42116  1  0  0  0
 43 44  1  0  0  0
 44117  1  0  0  0
 45 46  2  0  0  0
 45118  1  0  0  0
 46119  1  0  0  0
 47120  1  0  0  0
 47121  1  0  0  0
 48 56  1  0  0  0
 48 65  1  0  0  0
 48122  1  0  0  0
 49 50  1  0  0  0
 49 53  1  0  0  0
 49 64  1  0  0  0
 49123  1  0  0  0
 50 51  1  0  0  0
 50124  1  0  0  0
 50125  1  0  0  0
 51 52  1  0  0  0
 51126  1  0  0  0
 51127  1  0  0  0
 52128  1  0  0  0
 52129  1  0  0  0
 53 54  1  0  0  0
 54 55  2  0  0  0
 54130  1  0  0  0
 55 57  1  0  0  0
 55131  1  0  0  0
 56 69  2  0  0  0
 57 58  2  0  0  0
 57132  1  0  0  0
 58133  1  0  0  0
 59 60  1  0  0  0
 59 61  1  0  0  0
 59 62  1  0  0  0
 60134  1  0  0  0
 60135  1  0  0  0
 60136  1  0  0  0
 61137  1  0  0  0
 61138  1  0  0  0
 61139  1  0  0  0
 62140  1  0  0  0
 62141  1  0  0  0
 62142  1  0  0  0
 63 65  1  0  0  0
 63143  1  0  0  0
 63144  1  0  0  0
 63145  1  0  0  0
 64146  1  0  0  0
 65147  1  0  0  0
 68 85  1  0  0  0
 71 72  2  0  0  0
 71 74  1  0  0  0
 71148  1  0  0  0
 72 76  1  0  0  0
 72149  1  0  0  0
 73 75  1  0  0  0
 73 76  2  0  0  0
 73150  1  0  0  0
 74 75  2  0  0  0
 74 80  1  0  0  0
 75 81  1  0  0  0
 76 88  1  0  0  0
 77 78  1  0  0  0
 77 79  1  0  0  0
 77151  1  0  0  0
 77152  1  0  0  0
 78 79  1  0  0  0
 78153  1  0  0  0
 78154  1  0  0  0
 79 82  1  0  0  0
 79155  1  0  0  0
 80 83  1  0  0  0
 80156  1  0  0  0
 80157  1  0  0  0
 81 82  1  0  0  0
 81158  1  0  0  0
 81159  1  0  0  0
 82160  1  0  0  0
 82161  1  0  0  0
 83 84  1  0  0  0
 83162  1  0  0  0
 83163  1  0  0  0
 84 87  1  0  0  0
 84164  1  0  0  0
 84165  1  0  0  0
 85 86  1  0  0  0
 85166  1  0  0  0
 85167  1  0  0  0
 86 88  1  0  0  0
 86168  1  0  0  0
 86169  1  0  0  0
 87170  1  0  0  0
M  ISO  4   1 100  68 101  85 101  87 100
M  END
> <chiral flag>
0

> <version>
0

> <s_m_source_file>
/data/baiqing/PycharmProjects/Reinvent-master-3.2/result/LINK_invent/BTK/process_docking_weight1_custom_sum_contain_oxygen_bond_distance_aromatic_linkinvent_7_9_3/rearranged_h_0142.sdf

> <i_m_source_file_index>
93

> <r_mmod_Potential_Energy-OPLS-2005>
-42.6780662536621

> <r_mmod_Stretch_Energy-OPLS-2005>
35.5377769470215

> <r_mmod_Bend_Energy-OPLS-2005>
103.672325134277

> <r_mmod_Torsional_Energy-OPLS-2005>
246.344924926758

> <r_mmod_Improper_Torsional_Energy-OPLS-2005>
2.38015508651733

> <r_mmod_Van_der_Waal_Energy-OPLS-2005>
142.170104980469

> <r_mmod_Electrostatic_Energy-OPLS-2005>
-369.922119140625

> <r_mmod_Solvation_Energy-OPLS-2005>
-210.843292236328

> <b_mmod_Minimization_Converged-OPLS-2005>
0

> <r_mmod_RMS_Derivative-OPLS-2005>
1.0808984041214

$$$$
96
                    3D
 Structure written by MMmdl.
163172  0  0  1  0            999 V2000
  -30.5944  -14.6888   20.5197 C   0  0  0  0  0  0
  -30.4403  -12.4246   19.4645 C   0  0  0  0  0  0
  -29.5104  -12.5052   18.2328 C   0  0  0  0  0  0
  -28.0349  -12.3297   18.6446 C   0  0  0  0  0  0
  -27.6500  -13.2122   19.8607 C   0  0  2  0  0  0
  -28.6919  -13.0936   20.9940 C   0  0  0  0  0  0
  -25.2531  -13.8066   20.5563 C   0  0  0  0  0  0
  -24.1823  -13.0388   20.9203 C   0  0  0  0  0  0
  -24.6402  -11.6868   20.8785 C   0  0  0  0  0  0
  -23.9060  -10.4268   21.0437 C   0  0  0  0  0  0
  -24.3610   -9.4182   21.9205 C   0  0  0  0  0  0
  -23.6284   -8.2220   22.0762 C   0  0  0  0  0  0
  -22.4268   -8.0270   21.3544 C   0  0  0  0  0  0
  -21.9909   -9.0245   20.4647 C   0  0  0  0  0  0
  -22.7241  -10.2125   20.3073 C   0  0  0  0  0  0
  -21.6844   -6.0730   22.5282 C   0  0  0  0  0  0
  -21.4001   -6.5635   23.8212 C   0  0  0  0  0  0
  -21.3651   -5.6792   24.9173 C   0  0  0  0  0  0
  -21.6050   -4.3054   24.7227 C   0  0  0  0  0  0
  -21.8817   -3.8147   23.4347 C   0  0  0  0  0  0
  -21.9187   -4.6961   22.3403 C   0  0  0  0  0  0
  -22.7867  -13.5220   21.1857 C   0  0  0  0  0  0
  -22.1663   -4.2151   21.0979 F   0  0  0  0  0  0
  -21.5631   -3.4542   25.7735 F   0  0  0  0  0  0
  -30.0002  -13.4523   20.4339 N   0  0  0  0  0  0
  -26.2977  -12.9282   20.3295 N   0  0  0  0  0  0
  -25.9330  -11.6453   20.5807 N   0  0  0  0  0  0
  -22.0487  -12.8223   22.0408 N   0  0  0  0  0  0
  -25.4190  -15.1714   20.3628 N   0  0  0  0  0  0
  -31.7477  -14.8369   20.1019 O   0  0  0  0  0  0
  -21.6630   -6.8878   21.4242 O   0  0  0  0  0  0
  -22.3586  -14.5538   20.6705 O   0  0  0  0  0  0
  -24.6261  -31.8579   23.1993 C   0  0  0  0  0  0
  -25.9120  -32.4761   23.8313 C   0  0  1  0  0  0
  -27.2362  -27.3137   20.1334 C   0  0  0  0  0  0
  -25.5956  -33.8561   24.2257 N   0  0  0  0  0  0
  -23.4198  -30.4772   21.5426 C   0  0  2  0  0  0
  -24.8686  -28.9168   20.1216 C   0  0  0  0  0  0
  -22.7472  -29.4617   22.4959 C   0  0  0  0  0  0
  -18.0271  -28.1374   22.8458 C   0  0  0  0  0  0
  -24.1492  -36.7281   23.2642 C   0  0  0  0  0  0
  -25.9572  -30.7893   21.3674 C   0  0  0  0  0  0
  -26.0353  -29.4109   20.7176 C   0  0  0  0  0  0
  -27.2239  -28.6241   20.7028 C   0  0  0  0  0  0
  -26.0455  -26.8554   19.5334 C   0  0  0  0  0  0
  -24.8754  -27.6449   19.5212 C   0  0  0  0  0  0
  -23.6366  -29.8000   20.1616 C   0  0  0  0  0  0
  -25.4119  -36.3070   24.0333 C   0  0  1  0  0  0
  -20.5862  -28.3687   23.1279 C   0  0  2  0  0  0
  -20.6768  -26.9414   22.5401 C   0  0  0  0  0  0
  -19.5760  -26.6381   21.5192 C   0  0  0  0  0  0
  -18.1928  -26.7911   22.1602 C   0  0  0  0  0  0
  -19.1520  -28.8844   23.2855 C   0  0  0  0  0  0
  -18.9463  -30.1434   23.8885 C   0  0  0  0  0  0
  -17.6475  -30.6581   24.0553 C   0  0  0  0  0  0
  -25.9074  -34.9449   23.5097 C   0  0  0  0  0  0
  -16.5363  -29.9082   23.6325 C   0  0  0  0  0  0
  -16.7260  -28.6496   23.0349 C   0  0  0  0  0  0
  -26.4504  -31.6579   25.0683 C   0  0  0  0  0  0
  -25.3740  -31.3717   26.1416 C   0  0  0  0  0  0
  -27.0350  -30.3018   24.6117 C   0  0  0  0  0  0
  -27.6056  -32.4313   25.7461 C   0  0  0  0  0  0
  -27.5580  -37.1793   24.8464 C   0  0  0  0  0  0
  -21.4187  -29.3041   22.3691 N   0  0  0  0  0  0
  -26.4290  -37.3777   23.9413 N   0  0  0  0  0  0
  -24.6860  -31.0589   22.0939 N   0  0  0  0  0  0
  -23.4185  -28.8176   23.3059 O   0  0  0  0  0  0
  -28.3878  -26.5212   20.0817 O   0  0  0  0  0  0
  -26.5619  -34.8926   22.4652 O   0  0  0  0  0  0
  -23.5432  -32.1392   23.7343 O   0  0  0  0  0  0
  -26.9245  -17.1704   22.9379 C   0  0  0  0  0  0
  -25.8428  -18.1541   23.3353 C   0  0  0  0  0  0
  -26.2644  -18.0355   21.8863 C   0  0  0  0  0  0
  -29.1710  -19.8532   20.1360 C   0  0  1  0  0  0
  -28.0867  -18.8091   20.3756 C   0  0  1  0  0  0
  -29.8068  -15.9812   21.0432 C   0  0  0  0  0  0
  -29.0293  -21.3339   20.7316 C   0  0  0  0  0  0
  -28.9789  -22.5454   19.6840 C   0  0  0  0  0  0
  -28.0547  -23.8629   19.8066 C   0  0  0  0  0  0
  -30.0835  -17.4308   20.3919 C   0  0  0  0  0  0
  -28.4328  -25.1555   20.6596 C   0  0  0  0  0  0
  -29.3951  -18.6371   20.9983 N   0  0  0  0  0  0
  -27.0805  -19.1651   21.3990 N   0  3  0  0  0  0
  -31.4795  -12.5582   19.1612 H   0  0  0  0  0  0
  -30.3916  -11.4340   19.9200 H   0  0  0  0  0  0
  -29.7867  -11.7423   17.5032 H   0  0  0  0  0  0
  -29.6401  -13.4667   17.7349 H   0  0  0  0  0  0
  -27.8861  -11.2779   18.8932 H   0  0  0  0  0  0
  -27.3768  -12.5364   17.7996 H   0  0  0  0  0  0
  -27.6623  -14.2421   19.5041 H   0  0  0  0  0  0
  -28.7170  -12.0764   21.3870 H   0  0  0  0  0  0
  -28.4277  -13.7311   21.8386 H   0  0  0  0  0  0
  -25.2750   -9.5653   22.4792 H   0  0  0  0  0  0
  -23.9985   -7.4606   22.7479 H   0  0  0  0  0  0
  -21.0849   -8.8768   19.8947 H   0  0  0  0  0  0
  -22.3704  -10.9671   19.6192 H   0  0  0  0  0  0
  -21.1987   -7.6143   23.9714 H   0  0  0  0  0  0
  -21.1479   -6.0522   25.9076 H   0  0  0  0  0  0
  -22.0604   -2.7616   23.2845 H   0  0  0  0  0  0
  -22.4076  -11.9859   22.4770 H   0  0  0  0  0  0
  -21.1119  -13.1286   22.2622 H   0  0  0  0  0  0
  -24.5988  -15.7651   20.3217 H   0  0  0  0  0  0
  -26.2024  -15.5359   19.8380 H   0  0  0  0  0  0
  -26.7188  -32.5452   23.1064 H   0  0  0  0  0  0
  -25.0103  -33.9684   25.0405 H   0  0  0  0  0  0
  -22.7128  -31.2964   21.3938 H   0  0  0  0  0  0
  -23.3761  -35.9612   23.3302 H   0  0  0  0  0  0
  -24.3580  -36.8903   22.2052 H   0  0  0  0  0  0
  -23.7233  -37.6481   23.6674 H   0  0  0  0  0  0
  -26.0800  -31.5481   20.5938 H   0  0  0  0  0  0
  -26.8413  -30.8471   21.9902 H   0  0  0  0  0  0
  -28.1293  -29.0117   21.1492 H   0  0  0  0  0  0
  -26.0208  -25.8836   19.0623 H   0  0  0  0  0  0
  -23.9832  -27.2577   19.0492 H   0  0  0  0  0  0
  -23.7605  -30.5720   19.4009 H   0  0  0  0  0  0
  -22.7565  -29.2285   19.8598 H   0  0  0  0  0  0
  -25.1288  -36.1926   25.0825 H   0  0  0  0  0  0
  -20.9918  -28.3276   24.1419 H   0  0  0  0  0  0
  -20.5684  -26.2293   23.3596 H   0  0  0  0  0  0
  -21.6640  -26.7465   22.1202 H   0  0  0  0  0  0
  -19.6943  -25.6293   21.1225 H   0  0  0  0  0  0
  -19.6720  -27.3182   20.6708 H   0  0  0  0  0  0
  -17.4197  -26.6641   21.4000 H   0  0  0  0  0  0
  -18.0349  -26.0037   22.8984 H   0  0  0  0  0  0
  -19.7955  -30.7208   24.2296 H   0  0  0  0  0  0
  -17.5048  -31.6278   24.5131 H   0  0  0  0  0  0
  -15.5365  -30.2989   23.7671 H   0  0  0  0  0  0
  -15.8648  -28.0825   22.7080 H   0  0  0  0  0  0
  -24.5933  -30.7039   25.7758 H   0  0  0  0  0  0
  -24.8900  -32.2871   26.4831 H   0  0  0  0  0  0
  -25.8060  -30.8921   27.0204 H   0  0  0  0  0  0
  -26.2903  -29.6754   24.1185 H   0  0  0  0  0  0
  -27.4113  -29.7293   25.4601 H   0  0  0  0  0  0
  -27.8750  -30.4312   23.9283 H   0  0  0  0  0  0
  -27.2668  -33.3625   26.2018 H   0  0  0  0  0  0
  -28.3880  -32.6854   25.0294 H   0  0  0  0  0  0
  -28.0713  -31.8443   26.5390 H   0  0  0  0  0  0
  -28.2585  -38.0100   24.7518 H   0  0  0  0  0  0
  -28.1078  -36.2624   24.6280 H   0  0  0  0  0  0
  -27.2289  -37.1426   25.8863 H   0  0  0  0  0  0
  -20.9389  -29.8753   21.6884 H   0  0  0  0  0  0
  -26.0170  -38.2854   24.1433 H   0  0  0  0  0  0
  -26.6676  -16.1129   22.9474 H   0  0  0  0  0  0
  -27.9466  -17.4011   23.2370 H   0  0  0  0  0  0
  -26.1449  -19.0341   23.9016 H   0  0  0  0  0  0
  -24.8760  -17.7375   23.6126 H   0  0  0  0  0  0
  -25.5642  -17.6282   21.1628 H   0  0  0  0  0  0
  -29.6984  -19.8283   19.1839 H   0  0  0  0  0  0
  -27.7365  -18.1809   19.5564 H   0  0  0  0  0  0
  -28.7390  -15.7925   20.9548 H   0  0  0  0  0  0
  -30.0048  -16.0412   22.1132 H   0  0  0  0  0  0
  -29.8829  -21.5038   21.3886 H   0  0  0  0  0  0
  -28.1592  -21.4156   21.3777 H   0  0  0  0  0  0
  -28.6445  -22.0799   18.7551 H   0  0  0  0  0  0
  -29.9999  -22.8578   19.4583 H   0  0  0  0  0  0
  -27.0402  -23.5621   20.0661 H   0  0  0  0  0  0
  -27.9617  -24.2331   18.7850 H   0  0  0  0  0  0
  -29.8737  -17.3768   19.3218 H   0  0  0  0  0  0
  -31.1562  -17.6213   20.4544 H   0  0  0  0  0  0
  -29.4646  -25.0270   20.9896 H   0  0  0  0  0  0
  -27.8484  -25.1507   21.5815 H   0  0  0  0  0  0
  -27.5591  -19.6001   22.1678 H   0  0  0  0  0  0
  -26.4559  -19.8447   20.9966 H   0  0  0  0  0  0
  1 25  1  0  0  0
  1 30  2  0  0  0
  1 76  1  0  0  0
  2  3  1  0  0  0
  2 25  1  0  0  0
  2 84  1  0  0  0
  2 85  1  0  0  0
  3  4  1  0  0  0
  3 86  1  0  0  0
  3 87  1  0  0  0
  4  5  1  0  0  0
  4 88  1  0  0  0
  4 89  1  0  0  0
  5  6  1  0  0  0
  5 26  1  0  0  0
  5 90  1  0  0  0
  6 25  1  0  0  0
  6 91  1  0  0  0
  6 92  1  0  0  0
  7  8  2  0  0  0
  7 26  1  0  0  0
  7 29  1  0  0  0
  8  9  1  0  0  0
  8 22  1  0  0  0
  9 10  1  0  0  0
  9 27  2  0  0  0
 10 11  2  0  0  0
 10 15  1  0  0  0
 11 12  1  0  0  0
 11 93  1  0  0  0
 12 13  2  0  0  0
 12 94  1  0  0  0
 13 14  1  0  0  0
 13 31  1  0  0  0
 14 15  2  0  0  0
 14 95  1  0  0  0
 15 96  1  0  0  0
 16 17  2  0  0  0
 16 21  1  0  0  0
 16 31  1  0  0  0
 17 18  1  0  0  0
 17 97  1  0  0  0
 18 19  2  0  0  0
 18 98  1  0  0  0
 19 20  1  0  0  0
 19 24  1  0  0  0
 20 21  2  0  0  0
 20 99  1  0  0  0
 21 23  1  0  0  0
 22 28  1  0  0  0
 22 32  2  0  0  0
 26 27  1  0  0  0
 28100  1  0  0  0
 28101  1  0  0  0
 29102  1  0  0  0
 29103  1  0  0  0
 33 34  1  0  0  0
 33 66  1  0  0  0
 33 70  2  0  0  0
 34 36  1  0  0  0
 34 59  1  0  0  0
 34104  1  0  0  0
 35 44  2  0  0  0
 35 45  1  0  0  0
 35 68  1  0  0  0
 36 56  1  0  0  0
 36105  1  0  0  0
 37 39  1  0  0  0
 37 47  1  0  0  0
 37 66  1  0  0  0
 37106  1  0  0  0
 38 43  2  0  0  0
 38 46  1  0  0  0
 38 47  1  0  0  0
 39 64  1  0  0  0
 39 67  2  0  0  0
 40 52  1  0  0  0
 40 53  2  0  0  0
 40 58  1  0  0  0
 41107  1  0  0  0
 41108  1  0  0  0
 41109  1  0  0  0
 41 48  1  0  0  0
 42 43  1  0  0  0
 42 66  1  0  0  0
 42110  1  0  0  0
 42111  1  0  0  0
 43 44  1  0  0  0
 44112  1  0  0  0
 45 46  2  0  0  0
 45113  1  0  0  0
 46114  1  0  0  0
 47115  1  0  0  0
 47116  1  0  0  0
 48 56  1  0  0  0
 48 65  1  0  0  0
 48117  1  0  0  0
 49 50  1  0  0  0
 49 53  1  0  0  0
 49 64  1  0  0  0
 49118  1  0  0  0
 50 51  1  0  0  0
 50119  1  0  0  0
 50120  1  0  0  0
 51 52  1  0  0  0
 51121  1  0  0  0
 51122  1  0  0  0
 52123  1  0  0  0
 52124  1  0  0  0
 53 54  1  0  0  0
 54 55  2  0  0  0
 54125  1  0  0  0
 55 57  1  0  0  0
 55126  1  0  0  0
 56 69  2  0  0  0
 57 58  2  0  0  0
 57127  1  0  0  0
 58128  1  0  0  0
 59 60  1  0  0  0
 59 61  1  0  0  0
 59 62  1  0  0  0
 60129  1  0  0  0
 60130  1  0  0  0
 60131  1  0  0  0
 61132  1  0  0  0
 61133  1  0  0  0
 61134  1  0  0  0
 62135  1  0  0  0
 62136  1  0  0  0
 62137  1  0  0  0
 63 65  1  0  0  0
 63138  1  0  0  0
 63139  1  0  0  0
 63140  1  0  0  0
 64141  1  0  0  0
 65142  1  0  0  0
 68 81  1  0  0  0
 71 72  1  0  0  0
 71 73  1  0  0  0
 71143  1  0  0  0
 71144  1  0  0  0
 72 73  1  0  0  0
 72145  1  0  0  0
 72146  1  0  0  0
 73 83  1  0  0  0
 73147  1  0  0  0
 74 75  1  0  0  0
 74 77  1  0  0  0
 74 82  1  0  0  0
 74148  1  0  0  0
 75 82  1  0  0  0
 75 83  1  0  0  0
 75149  1  0  0  0
 76 80  1  0  0  0
 76150  1  0  0  0
 76151  1  0  0  0
 77 78  1  0  0  0
 77152  1  0  0  0
 77153  1  0  0  0
 78 79  1  0  0  0
 78154  1  0  0  0
 78155  1  0  0  0
 79 81  1  0  0  0
 79156  1  0  0  0
 79157  1  0  0  0
 80 82  1  0  0  0
 80158  1  0  0  0
 80159  1  0  0  0
 81160  1  0  0  0
 81161  1  0  0  0
 83162  1  0  0  0
 83163  1  0  0  0
M  CHG  1  83   1
M  ISO  4   1 100  68 101  76 100  81 101
M  END
> <chiral flag>
0

> <version>
0

> <s_m_source_file>
/data/baiqing/PycharmProjects/Reinvent-master-3.2/result/LINK_invent/BTK/process_docking_weight1_custom_sum_contain_oxygen_bond_distance_aromatic_linkinvent_7_9_3/rearranged_h_0142.sdf

> <i_m_source_file_index>
94

> <r_mmod_Potential_Energy-OPLS-2005>
89.6465530395508

> <r_mmod_Stretch_Energy-OPLS-2005>
102.801452636719

> <r_mmod_Bend_Energy-OPLS-2005>
192.004959106445

> <r_mmod_Torsional_Energy-OPLS-2005>
299.9443359375

> <r_mmod_Improper_Torsional_Energy-OPLS-2005>
4.72553491592407

> <r_mmod_Van_der_Waal_Energy-OPLS-2005>
106.076683044434

> <r_mmod_Electrostatic_Energy-OPLS-2005>
-196.334060668945

> <r_mmod_Solvation_Energy-OPLS-2005>
-472.960052490234

> <b_mmod_Minimization_Converged-OPLS-2005>
0

> <r_mmod_RMS_Derivative-OPLS-2005>
2.32199907302856

$$$$
97
                    3D
 Structure written by MMmdl.
160169  0  0  1  0            999 V2000
  -30.6202  -14.6768   20.5109 C   0  0  0  0  0  0
  -30.4315  -12.4139   19.4798 C   0  0  0  0  0  0
  -29.5228  -12.5479   18.2378 C   0  0  0  0  0  0
  -28.0387  -12.3948   18.6276 C   0  0  0  0  0  0
  -27.6552  -13.2398   19.8727 C   0  0  2  0  0  0
  -28.6935  -13.0972   21.0091 C   0  0  0  0  0  0
  -25.2547  -13.8221   20.5704 C   0  0  0  0  0  0
  -24.1826  -13.0445   20.9171 C   0  0  0  0  0  0
  -24.6436  -11.6929   20.8718 C   0  0  0  0  0  0
  -23.9112  -10.4292   21.0383 C   0  0  0  0  0  0
  -24.3661   -9.4217   21.9171 C   0  0  0  0  0  0
  -23.6314   -8.2259   22.0747 C   0  0  0  0  0  0
  -22.4293   -8.0293   21.3542 C   0  0  0  0  0  0
  -21.9940   -9.0272   20.4642 C   0  0  0  0  0  0
  -22.7278  -10.2138   20.3041 C   0  0  0  0  0  0
  -21.6863   -6.0744   22.5281 C   0  0  0  0  0  0
  -21.4016   -6.5640   23.8211 C   0  0  0  0  0  0
  -21.3674   -5.6790   24.9175 C   0  0  0  0  0  0
  -21.6057   -4.3056   24.7223 C   0  0  0  0  0  0
  -21.8823   -3.8148   23.4339 C   0  0  0  0  0  0
  -21.9193   -4.6972   22.3398 C   0  0  0  0  0  0
  -22.7844  -13.5212   21.1834 C   0  0  0  0  0  0
  -22.1656   -4.2161   21.0977 F   0  0  0  0  0  0
  -21.5636   -3.4539   25.7737 F   0  0  0  0  0  0
  -30.0120  -13.4436   20.4586 N   0  0  0  0  0  0
  -26.2998  -12.9446   20.3326 N   0  0  0  0  0  0
  -25.9379  -11.6577   20.5725 N   0  0  0  0  0  0
  -22.0490  -12.8199   22.0401 N   0  0  0  0  0  0
  -25.4234  -15.1951   20.4180 N   0  0  0  0  0  0
  -31.7543  -14.8380   20.0511 O   0  0  0  0  0  0
  -21.6656   -6.8896   21.4238 O   0  0  0  0  0  0
  -22.3521  -14.5507   20.6677 O   0  0  0  0  0  0
  -24.6302  -31.8564   23.2034 C   0  0  0  0  0  0
  -25.9140  -32.4764   23.8361 C   0  0  1  0  0  0
  -27.2112  -27.2613   20.1243 C   0  0  0  0  0  0
  -25.5947  -33.8568   24.2296 N   0  0  0  0  0  0
  -23.4275  -30.4845   21.5391 C   0  0  2  0  0  0
  -24.8768  -28.9413   20.0990 C   0  0  0  0  0  0
  -22.7492  -29.4625   22.4839 C   0  0  0  0  0  0
  -18.0292  -28.1382   22.8489 C   0  0  0  0  0  0
  -24.1486  -36.7280   23.2629 C   0  0  0  0  0  0
  -25.9752  -30.7679   21.3894 C   0  0  0  0  0  0
  -26.0456  -29.3930   20.7259 C   0  0  0  0  0  0
  -27.2131  -28.5629   20.7330 C   0  0  0  0  0  0
  -26.0286  -26.8998   19.4381 C   0  0  0  0  0  0
  -24.8759  -27.7049   19.4406 C   0  0  0  0  0  0
  -23.6493  -29.8288   20.1503 C   0  0  0  0  0  0
  -25.4115  -36.3079   24.0325 C   0  0  1  0  0  0
  -20.5901  -28.3711   23.1233 C   0  0  2  0  0  0
  -20.6786  -26.9427   22.5390 C   0  0  0  0  0  0
  -19.5766  -26.6381   21.5202 C   0  0  0  0  0  0
  -18.1940  -26.7925   22.1615 C   0  0  0  0  0  0
  -19.1545  -28.8862   23.2868 C   0  0  0  0  0  0
  -18.9457  -30.1448   23.8909 C   0  0  0  0  0  0
  -17.6465  -30.6588   24.0564 C   0  0  0  0  0  0
  -25.9052  -34.9447   23.5115 C   0  0  0  0  0  0
  -16.5357  -29.9095   23.6314 C   0  0  0  0  0  0
  -16.7276  -28.6493   23.0366 C   0  0  0  0  0  0
  -26.4524  -31.6572   25.0732 C   0  0  0  0  0  0
  -25.3727  -31.3717   26.1425 C   0  0  0  0  0  0
  -27.0371  -30.2973   24.6242 C   0  0  0  0  0  0
  -27.6085  -32.4293   25.7528 C   0  0  0  0  0  0
  -27.5588  -37.1794   24.8450 C   0  0  0  0  0  0
  -21.4192  -29.3067   22.3602 N   0  0  0  0  0  0
  -26.4287  -37.3781   23.9413 N   0  0  0  0  0  0
  -24.6950  -31.0546   22.0993 N   0  0  0  0  0  0
  -23.4196  -28.8140   23.2917 O   0  0  0  0  0  0
  -28.2858  -26.3421   20.2174 O   0  0  0  0  0  0
  -26.5618  -34.8920   22.4679 O   0  0  0  0  0  0
  -23.5445  -32.1388   23.7324 O   0  0  0  0  0  0
  -29.7935  -18.3548   21.3073 C   0  0  0  0  0  0
  -29.4655  -17.4812   19.2733 C   0  0  0  0  0  0
  -29.7874  -17.1217   20.5475 C   0  0  0  0  0  0
  -29.4808  -19.4481   20.4896 C   0  0  0  0  0  0
  -29.4091  -20.9502   20.8559 C   0  0  0  0  0  0
  -26.7365  -20.4872   16.8202 C   0  0  0  0  0  0
  -26.7588  -19.0175   16.4916 C   0  0  0  0  0  0
  -27.3754  -19.5154   17.7861 C   0  0  0  0  0  0
  -28.7739  -22.1566   20.0152 C   0  0  0  0  0  0
  -28.8822  -19.5020   17.9694 C   0  0  0  0  0  0
  -28.9116  -23.6838   20.5680 C   0  0  0  0  0  0
  -28.0620  -24.8849   19.8950 C   0  0  0  0  0  0
  -29.2672  -18.8686   19.2194 N   0  0  0  0  0  0
  -29.8987  -15.7335   21.0233 N   0  0  0  0  0  0
  -29.8776  -21.2684   21.9524 O   0  0  0  0  0  0
  -31.4796  -12.5211   19.1965 H   0  0  0  0  0  0
  -30.3390  -11.4162   19.9132 H   0  0  0  0  0  0
  -29.7957  -11.8077   17.4864 H   0  0  0  0  0  0
  -29.6837  -13.5241   17.7755 H   0  0  0  0  0  0
  -27.8531  -11.3374   18.8200 H   0  0  0  0  0  0
  -27.4037  -12.6723   17.7840 H   0  0  0  0  0  0
  -27.6664  -14.2821   19.5540 H   0  0  0  0  0  0
  -28.7039  -12.0771   21.3931 H   0  0  0  0  0  0
  -28.4273  -13.7306   21.8565 H   0  0  0  0  0  0
  -25.2812   -9.5693   22.4741 H   0  0  0  0  0  0
  -24.0036   -7.4658   22.7476 H   0  0  0  0  0  0
  -21.0861   -8.8795   19.8957 H   0  0  0  0  0  0
  -22.3738  -10.9683   19.6151 H   0  0  0  0  0  0
  -21.2001   -7.6150   23.9717 H   0  0  0  0  0  0
  -21.1499   -6.0517   25.9075 H   0  0  0  0  0  0
  -22.0589   -2.7607   23.2833 H   0  0  0  0  0  0
  -22.4108  -11.9864   22.4811 H   0  0  0  0  0  0
  -21.1105  -13.1224   22.2585 H   0  0  0  0  0  0
  -24.6604  -15.8504   20.5433 H   0  0  0  0  0  0
  -26.2869  -15.6445   20.1379 H   0  0  0  0  0  0
  -26.7202  -32.5438   23.1099 H   0  0  0  0  0  0
  -25.0089  -33.9701   25.0438 H   0  0  0  0  0  0
  -22.7223  -31.3059   21.3965 H   0  0  0  0  0  0
  -23.3773  -35.9581   23.3262 H   0  0  0  0  0  0
  -24.3577  -36.8933   22.2046 H   0  0  0  0  0  0
  -23.7217  -37.6463   23.6675 H   0  0  0  0  0  0
  -26.1211  -31.5323   20.6255 H   0  0  0  0  0  0
  -26.8493  -30.8111   22.0262 H   0  0  0  0  0  0
  -28.1014  -28.8964   21.2510 H   0  0  0  0  0  0
  -25.9579  -25.9726   18.8917 H   0  0  0  0  0  0
  -23.9902  -27.3678   18.9178 H   0  0  0  0  0  0
  -23.7748  -30.6123   19.4014 H   0  0  0  0  0  0
  -22.7680  -29.2618   19.8426 H   0  0  0  0  0  0
  -25.1297  -36.1930   25.0815 H   0  0  0  0  0  0
  -21.0015  -28.3321   24.1346 H   0  0  0  0  0  0
  -20.5668  -26.2333   23.3603 H   0  0  0  0  0  0
  -21.6652  -26.7420   22.1198 H   0  0  0  0  0  0
  -19.6921  -25.6284   21.1257 H   0  0  0  0  0  0
  -19.6727  -27.3167   20.6717 H   0  0  0  0  0  0
  -17.4213  -26.6663   21.4027 H   0  0  0  0  0  0
  -18.0353  -26.0068   22.9011 H   0  0  0  0  0  0
  -19.7933  -30.7256   24.2313 H   0  0  0  0  0  0
  -17.5016  -31.6273   24.5151 H   0  0  0  0  0  0
  -15.5365  -30.3014   23.7614 H   0  0  0  0  0  0
  -15.8664  -28.0807   22.7110 H   0  0  0  0  0  0
  -24.5906  -30.7079   25.7726 H   0  0  0  0  0  0
  -24.8901  -32.2873   26.4838 H   0  0  0  0  0  0
  -25.7986  -30.8877   27.0218 H   0  0  0  0  0  0
  -26.2949  -29.6716   24.1251 H   0  0  0  0  0  0
  -27.4017  -29.7253   25.4794 H   0  0  0  0  0  0
  -27.8871  -30.4235   23.9526 H   0  0  0  0  0  0
  -27.2704  -33.3588   26.2131 H   0  0  0  0  0  0
  -28.3912  -32.6844   25.0370 H   0  0  0  0  0  0
  -28.0745  -31.8381   26.5426 H   0  0  0  0  0  0
  -28.2564  -38.0132   24.7559 H   0  0  0  0  0  0
  -28.1135  -36.2667   24.6211 H   0  0  0  0  0  0
  -27.2305  -37.1355   25.8849 H   0  0  0  0  0  0
  -20.9338  -29.8824   21.6858 H   0  0  0  0  0  0
  -26.0170  -38.2844   24.1460 H   0  0  0  0  0  0
  -29.9977  -18.4452   22.3655 H   0  0  0  0  0  0
  -29.3188  -16.8724   18.3887 H   0  0  0  0  0  0
  -25.7848  -20.9238   17.1151 H   0  0  0  0  0  0
  -27.3945  -21.1407   16.2500 H   0  0  0  0  0  0
  -27.4282  -18.6950   15.6950 H   0  0  0  0  0  0
  -25.8166  -18.4730   16.5523 H   0  0  0  0  0  0
  -26.8073  -19.3044   18.6935 H   0  0  0  0  0  0
  -27.7155  -21.9240   19.8959 H   0  0  0  0  0  0
  -29.2002  -22.1475   19.0163 H   0  0  0  0  0  0
  -29.3062  -20.4962   17.8806 H   0  0  0  0  0  0
  -29.3271  -18.9322   17.1516 H   0  0  0  0  0  0
  -29.9666  -23.9525   20.5230 H   0  0  0  0  0  0
  -28.6622  -23.6685   21.6295 H   0  0  0  0  0  0
  -27.0285  -24.6298   20.1278 H   0  0  0  0  0  0
  -28.1548  -24.7963   18.8115 H   0  0  0  0  0  0
  -29.1348  -15.4368   21.6127 H   0  0  0  0  0  0
  1 25  1  0  0  0
  1 30  2  0  0  0
  1 84  1  0  0  0
  2  3  1  0  0  0
  2 25  1  0  0  0
  2 86  1  0  0  0
  2 87  1  0  0  0
  3  4  1  0  0  0
  3 88  1  0  0  0
  3 89  1  0  0  0
  4  5  1  0  0  0
  4 90  1  0  0  0
  4 91  1  0  0  0
  5  6  1  0  0  0
  5 26  1  0  0  0
  5 92  1  0  0  0
  6 25  1  0  0  0
  6 93  1  0  0  0
  6 94  1  0  0  0
  7  8  2  0  0  0
  7 26  1  0  0  0
  7 29  1  0  0  0
  8  9  1  0  0  0
  8 22  1  0  0  0
  9 10  1  0  0  0
  9 27  2  0  0  0
 10 11  2  0  0  0
 10 15  1  0  0  0
 11 12  1  0  0  0
 11 95  1  0  0  0
 12 13  2  0  0  0
 12 96  1  0  0  0
 13 14  1  0  0  0
 13 31  1  0  0  0
 14 15  2  0  0  0
 14 97  1  0  0  0
 15 98  1  0  0  0
 16 17  2  0  0  0
 16 21  1  0  0  0
 16 31  1  0  0  0
 17 18  1  0  0  0
 17 99  1  0  0  0
 18 19  2  0  0  0
 18100  1  0  0  0
 19 20  1  0  0  0
 19 24  1  0  0  0
 20 21  2  0  0  0
 20101  1  0  0  0
 21 23  1  0  0  0
 22 28  1  0  0  0
 22 32  2  0  0  0
 26 27  1  0  0  0
 28102  1  0  0  0
 28103  1  0  0  0
 29104  1  0  0  0
 29105  1  0  0  0
 33 34  1  0  0  0
 33 66  1  0  0  0
 33 70  2  0  0  0
 34 36  1  0  0  0
 34 59  1  0  0  0
 34106  1  0  0  0
 35 44  2  0  0  0
 35 45  1  0  0  0
 35 68  1  0  0  0
 36 56  1  0  0  0
 36107  1  0  0  0
 37 39  1  0  0  0
 37 47  1  0  0  0
 37 66  1  0  0  0
 37108  1  0  0  0
 38 43  2  0  0  0
 38 46  1  0  0  0
 38 47  1  0  0  0
 39 64  1  0  0  0
 39 67  2  0  0  0
 40 52  1  0  0  0
 40 53  2  0  0  0
 40 58  1  0  0  0
 41109  1  0  0  0
 41110  1  0  0  0
 41111  1  0  0  0
 41 48  1  0  0  0
 42 43  1  0  0  0
 42 66  1  0  0  0
 42112  1  0  0  0
 42113  1  0  0  0
 43 44  1  0  0  0
 44114  1  0  0  0
 45 46  2  0  0  0
 45115  1  0  0  0
 46116  1  0  0  0
 47117  1  0  0  0
 47118  1  0  0  0
 48 56  1  0  0  0
 48 65  1  0  0  0
 48119  1  0  0  0
 49 50  1  0  0  0
 49 53  1  0  0  0
 49 64  1  0  0  0
 49120  1  0  0  0
 50 51  1  0  0  0
 50121  1  0  0  0
 50122  1  0  0  0
 51 52  1  0  0  0
 51123  1  0  0  0
 51124  1  0  0  0
 52125  1  0  0  0
 52126  1  0  0  0
 53 54  1  0  0  0
 54 55  2  0  0  0
 54127  1  0  0  0
 55 57  1  0  0  0
 55128  1  0  0  0
 56 69  2  0  0  0
 57 58  2  0  0  0
 57129  1  0  0  0
 58130  1  0  0  0
 59 60  1  0  0  0
 59 61  1  0  0  0
 59 62  1  0  0  0
 60131  1  0  0  0
 60132  1  0  0  0
 60133  1  0  0  0
 61134  1  0  0  0
 61135  1  0  0  0
 61136  1  0  0  0
 62137  1  0  0  0
 62138  1  0  0  0
 62139  1  0  0  0
 63 65  1  0  0  0
 63140  1  0  0  0
 63141  1  0  0  0
 63142  1  0  0  0
 64143  1  0  0  0
 65144  1  0  0  0
 68 82  1  0  0  0
 71 73  1  0  0  0
 71 74  2  0  0  0
 71145  1  0  0  0
 72 73  2  0  0  0
 72 83  1  0  0  0
 72146  1  0  0  0
 73 84  1  0  0  0
 74 75  1  0  0  0
 74 83  1  0  0  0
 75 79  1  0  0  0
 75 85  2  0  0  0
 76 77  1  0  0  0
 76 78  1  0  0  0
 76147  1  0  0  0
 76148  1  0  0  0
 77 78  1  0  0  0
 77149  1  0  0  0
 77150  1  0  0  0
 78 80  1  0  0  0
 78151  1  0  0  0
 79 81  1  0  0  0
 79152  1  0  0  0
 79153  1  0  0  0
 80 83  1  0  0  0
 80154  1  0  0  0
 80155  1  0  0  0
 81 82  1  0  0  0
 81156  1  0  0  0
 81157  1  0  0  0
 82158  1  0  0  0
 82159  1  0  0  0
 84160  1  0  0  0
M  ISO  4   1 100  68 101  82 101  84 100
M  END
> <chiral flag>
0

> <version>
0

> <s_m_source_file>
/data/baiqing/PycharmProjects/Reinvent-master-3.2/result/LINK_invent/BTK/process_docking_weight1_custom_sum_contain_oxygen_bond_distance_aromatic_linkinvent_7_9_3/rearranged_h_0142.sdf

> <i_m_source_file_index>
95

> <r_mmod_Potential_Energy-OPLS-2005>
213.242401123047

> <r_mmod_Stretch_Energy-OPLS-2005>
116.467987060547

> <r_mmod_Bend_Energy-OPLS-2005>
177.275253295898

> <r_mmod_Torsional_Energy-OPLS-2005>
295.070129394531

> <r_mmod_Improper_Torsional_Energy-OPLS-2005>
4.55274724960327

> <r_mmod_Van_der_Waal_Energy-OPLS-2005>
118.426055908203

> <r_mmod_Electrostatic_Energy-OPLS-2005>
-342.539733886719

> <r_mmod_Solvation_Energy-OPLS-2005>
-228.970550537109

> <b_mmod_Minimization_Converged-OPLS-2005>
0

> <r_mmod_RMS_Derivative-OPLS-2005>
2.97478675842285

$$$$
