0
                    3D
 Structure written by MMmdl.
162170  0  0  1  0            999 V2000
  -30.5319  -15.0052   20.4152 C   0  0  0  0  0  0
  -30.4369  -12.6256   19.5102 C   0  0  0  0  0  0
  -29.5262  -12.5399   18.2637 C   0  0  0  0  0  0
  -28.0626  -12.3072   18.6824 C   0  0  0  0  0  0
  -27.6236  -13.2537   19.8308 C   0  0  2  0  0  0
  -28.6637  -13.3192   20.9703 C   0  0  0  0  0  0
  -25.2431  -13.8212   20.5710 C   0  0  0  0  0  0
  -24.1767  -13.0428   20.9251 C   0  0  0  0  0  0
  -24.6395  -11.6913   20.8767 C   0  0  0  0  0  0
  -23.9076  -10.4286   21.0410 C   0  0  0  0  0  0
  -24.3621   -9.4200   21.9187 C   0  0  0  0  0  0
  -23.6287   -8.2236   22.0756 C   0  0  0  0  0  0
  -22.4269   -8.0275   21.3545 C   0  0  0  0  0  0
  -21.9908   -9.0251   20.4652 C   0  0  0  0  0  0
  -22.7238  -10.2129   20.3062 C   0  0  0  0  0  0
  -21.6851   -6.0728   22.5280 C   0  0  0  0  0  0
  -21.4013   -6.5638   23.8211 C   0  0  0  0  0  0
  -21.3663   -5.6792   24.9176 C   0  0  0  0  0  0
  -21.6045   -4.3054   24.7230 C   0  0  0  0  0  0
  -21.8815   -3.8145   23.4352 C   0  0  0  0  0  0
  -21.9191   -4.6957   22.3408 C   0  0  0  0  0  0
  -22.7788  -13.5198   21.1898 C   0  0  0  0  0  0
  -22.1662   -4.2143   21.0982 F   0  0  0  0  0  0
  -21.5623   -3.4540   25.7744 F   0  0  0  0  0  0
  -29.9328  -13.7419   20.3664 N   0  0  0  0  0  0
  -26.2856  -12.9452   20.3207 N   0  0  0  0  0  0
  -25.9323  -11.6579   20.5726 N   0  0  0  0  0  0
  -22.0443  -12.8185   22.0458 N   0  0  0  0  0  0
  -25.4054  -15.1930   20.4070 N   0  0  0  0  0  0
  -31.7424  -15.0451   20.1667 O   0  0  0  0  0  0
  -21.6633   -6.8871   21.4241 O   0  0  0  0  0  0
  -22.3467  -14.5498   20.6736 O   0  0  0  0  0  0
  -24.6471  -31.8416   23.1850 C   0  0  0  0  0  0
  -25.9223  -32.4683   23.8254 C   0  0  1  0  0  0
  -27.2019  -27.0819   20.1715 C   0  0  0  0  0  0
  -25.5951  -33.8490   24.2170 N   0  0  0  0  0  0
  -23.4527  -30.4604   21.5317 C   0  0  2  0  0  0
  -24.9014  -28.8797   20.1111 C   0  0  0  0  0  0
  -22.7588  -29.4537   22.4842 C   0  0  0  0  0  0
  -18.0341  -28.1408   22.8449 C   0  0  0  0  0  0
  -24.1494  -36.7249   23.2644 C   0  0  0  0  0  0
  -26.0118  -30.6973   21.3933 C   0  0  0  0  0  0
  -26.0787  -29.3012   20.7432 C   0  0  0  0  0  0
  -27.2302  -28.4197   20.7555 C   0  0  0  0  0  0
  -26.0185  -26.8011   19.4557 C   0  0  0  0  0  0
  -24.8879  -27.6453   19.4472 C   0  0  0  0  0  0
  -23.6811  -29.7882   20.1519 C   0  0  0  0  0  0
  -25.4125  -36.3023   24.0315 C   0  0  1  0  0  0
  -20.5937  -28.3767   23.1275 C   0  0  2  0  0  0
  -20.6825  -26.9419   22.5598 C   0  0  0  0  0  0
  -19.5895  -26.6328   21.5313 C   0  0  0  0  0  0
  -18.2011  -26.7960   22.1569 C   0  0  0  0  0  0
  -19.1579  -28.8902   23.2841 C   0  0  0  0  0  0
  -18.9469  -30.1505   23.8848 C   0  0  0  0  0  0
  -17.6456  -30.6607   24.0508 C   0  0  0  0  0  0
  -25.9081  -34.9398   23.5057 C   0  0  0  0  0  0
  -16.5369  -29.9077   23.6289 C   0  0  0  0  0  0
  -16.7319  -28.6494   23.0326 C   0  0  0  0  0  0
  -26.4529  -31.6558   25.0705 C   0  0  0  0  0  0
  -25.3698  -31.3764   26.1387 C   0  0  0  0  0  0
  -27.0400  -30.2949   24.6305 C   0  0  0  0  0  0
  -27.6060  -32.4326   25.7486 C   0  0  0  0  0  0
  -27.5574  -37.1778   24.8464 C   0  0  0  0  0  0
  -21.4278  -29.3038   22.3579 N   0  0  0  0  0  0
  -26.4285  -37.3736   23.9408 N   0  0  0  0  0  0
  -24.7242  -31.0219   22.0914 N   0  0  0  0  0  0
  -23.4219  -28.8095   23.3013 O   0  0  0  0  0  0
  -28.2413  -26.0616   20.2022 O   0  0  0  0  0  0
  -26.5677  -34.8898   22.4642 O   0  0  0  0  0  0
  -23.5576  -32.1318   23.7036 O   0  0  0  0  0  0
  -29.7300  -20.5689   20.4400 C   0  0  0  0  0  0
  -29.3338  -19.1909   20.3788 C   0  0  0  0  0  0
  -27.9536  -19.4187   20.0789 C   0  0  0  0  0  0
  -27.6118  -20.7548   19.8964 C   0  0  0  0  0  0
  -26.3009  -21.2951   19.4111 C   0  0  0  0  0  0
  -26.6121  -24.1765   20.9073 C   0  0  0  0  0  0
  -30.2117  -17.7545   20.5435 C   0  0  0  0  0  0
  -28.8389  -23.1873   19.8955 C   0  0  0  0  0  0
  -28.7852  -24.5808   22.0486 C   0  0  0  0  0  0
  -28.0936  -24.5352   20.6632 C   0  0  2  0  0  0
  -28.7146  -21.5886   20.1553 N   0  0  0  0  0  0
  -27.0382  -18.3858   19.9176 N   0  0  0  0  0  0
  -29.7759  -16.2178   20.5417 N   0  0  0  0  0  0
  -28.2389  -25.6134   22.9569 N   0  3  0  0  0  0
  -31.4714  -12.7824   19.2041 H   0  0  0  0  0  0
  -30.4305  -11.6838   20.0613 H   0  0  0  0  0  0
  -29.8608  -11.7420   17.5999 H   0  0  0  0  0  0
  -29.6023  -13.4662   17.6921 H   0  0  0  0  0  0
  -27.9769  -11.2703   19.0109 H   0  0  0  0  0  0
  -27.3986  -12.4117   17.8233 H   0  0  0  0  0  0
  -27.5742  -14.2460   19.3816 H   0  0  0  0  0  0
  -28.7655  -12.3568   21.4726 H   0  0  0  0  0  0
  -28.3537  -14.0360   21.7320 H   0  0  0  0  0  0
  -25.2769   -9.5669   22.4756 H   0  0  0  0  0  0
  -23.9993   -7.4636   22.7481 H   0  0  0  0  0  0
  -21.0831   -8.8765   19.8976 H   0  0  0  0  0  0
  -22.3688  -10.9658   19.6169 H   0  0  0  0  0  0
  -21.2004   -7.6145   23.9708 H   0  0  0  0  0  0
  -21.1491   -6.0528   25.9075 H   0  0  0  0  0  0
  -22.0591   -2.7603   23.2855 H   0  0  0  0  0  0
  -22.4070  -11.9845   22.4830 H   0  0  0  0  0  0
  -21.1056  -13.1192   22.2659 H   0  0  0  0  0  0
  -24.6177  -15.8261   20.4904 H   0  0  0  0  0  0
  -26.1993  -15.6140   19.9426 H   0  0  0  0  0  0
  -26.7291  -32.5274   23.0980 H   0  0  0  0  0  0
  -25.0037  -33.9604   25.0274 H   0  0  0  0  0  0
  -22.7586  -31.2890   21.3747 H   0  0  0  0  0  0
  -23.3758  -35.9578   23.3292 H   0  0  0  0  0  0
  -24.3581  -36.8896   22.2062 H   0  0  0  0  0  0
  -23.7247  -37.6441   23.6690 H   0  0  0  0  0  0
  -26.1693  -31.4443   20.6141 H   0  0  0  0  0  0
  -26.8841  -30.7552   22.0322 H   0  0  0  0  0  0
  -28.1273  -28.7438   21.2642 H   0  0  0  0  0  0
  -25.9444  -25.8810   18.8975 H   0  0  0  0  0  0
  -24.0012  -27.3303   18.9135 H   0  0  0  0  0  0
  -23.8183  -30.5618   19.3956 H   0  0  0  0  0  0
  -22.7945  -29.2318   19.8427 H   0  0  0  0  0  0
  -25.1313  -36.1848   25.0808 H   0  0  0  0  0  0
  -21.0011  -28.3478   24.1408 H   0  0  0  0  0  0
  -20.5571  -26.2445   23.3890 H   0  0  0  0  0  0
  -21.6742  -26.7327   22.1570 H   0  0  0  0  0  0
  -19.7062  -25.6193   21.1461 H   0  0  0  0  0  0
  -19.6959  -27.3050   20.6792 H   0  0  0  0  0  0
  -17.4364  -26.6770   21.3870 H   0  0  0  0  0  0
  -18.0276  -26.0096   22.8926 H   0  0  0  0  0  0
  -19.7931  -30.7346   24.2208 H   0  0  0  0  0  0
  -17.4987  -31.6300   24.5077 H   0  0  0  0  0  0
  -15.5359  -30.2956   23.7603 H   0  0  0  0  0  0
  -15.8733  -28.0790   22.7046 H   0  0  0  0  0  0
  -24.5879  -30.7112   25.7696 H   0  0  0  0  0  0
  -24.8874  -32.2953   26.4730 H   0  0  0  0  0  0
  -25.7955  -30.8982   27.0214 H   0  0  0  0  0  0
  -26.3019  -29.6660   24.1307 H   0  0  0  0  0  0
  -27.4005  -29.7266   25.4890 H   0  0  0  0  0  0
  -27.8937  -30.4194   23.9641 H   0  0  0  0  0  0
  -27.2659  -33.3649   26.2005 H   0  0  0  0  0  0
  -28.3892  -32.6849   25.0326 H   0  0  0  0  0  0
  -28.0700  -31.8484   26.5441 H   0  0  0  0  0  0
  -28.2581  -38.0084   24.7505 H   0  0  0  0  0  0
  -28.1085  -36.2610   24.6300 H   0  0  0  0  0  0
  -27.2292  -37.1433   25.8868 H   0  0  0  0  0  0
  -20.9488  -29.8714   21.6725 H   0  0  0  0  0  0
  -26.0151  -38.2807   24.1394 H   0  0  0  0  0  0
  -30.7304  -20.9366   20.6258 H   0  0  0  0  0  0
  -25.7832  -20.5607   18.7934 H   0  0  0  0  0  0
  -26.4342  -22.1762   18.7864 H   0  0  0  0  0  0
  -25.6388  -21.5365   20.2410 H   0  0  0  0  0  0
  -26.0793  -24.9314   21.4839 H   0  0  0  0  0  0
  -26.5269  -23.2455   21.4665 H   0  0  0  0  0  0
  -26.0720  -24.0428   19.9737 H   0  0  0  0  0  0
  -30.7592  -17.8787   21.4781 H   0  0  0  0  0  0
  -30.9815  -17.8183   19.7737 H   0  0  0  0  0  0
  -29.9092  -23.3934   19.9061 H   0  0  0  0  0  0
  -28.5790  -23.3042   18.8439 H   0  0  0  0  0  0
  -29.8490  -24.7813   21.9145 H   0  0  0  0  0  0
  -28.7174  -23.6077   22.5391 H   0  0  0  0  0  0
  -27.1931  -17.5552   20.4749 H   0  0  0  0  0  0
  -26.0586  -18.6487   19.9080 H   0  0  0  0  0  0
  -28.7882  -16.0666   20.6723 H   0  0  0  0  0  0
  -28.3053  -26.5178   22.5218 H   0  0  0  0  0  0
  -28.7623  -25.6351   23.8159 H   0  0  0  0  0  0
  -27.2759  -25.4298   23.1826 H   0  0  0  0  0  0
  1 25  1  0  0  0
  1 30  2  0  0  0
  1 83  1  0  0  0
  2  3  1  0  0  0
  2 25  1  0  0  0
  2 85  1  0  0  0
  2 86  1  0  0  0
  3  4  1  0  0  0
  3 87  1  0  0  0
  3 88  1  0  0  0
  4  5  1  0  0  0
  4 89  1  0  0  0
  4 90  1  0  0  0
  5  6  1  0  0  0
  5 26  1  0  0  0
  5 91  1  0  0  0
  6 25  1  0  0  0
  6 92  1  0  0  0
  6 93  1  0  0  0
  7  8  2  0  0  0
  7 26  1  0  0  0
  7 29  1  0  0  0
  8  9  1  0  0  0
  8 22  1  0  0  0
  9 10  1  0  0  0
  9 27  2  0  0  0
 10 11  2  0  0  0
 10 15  1  0  0  0
 11 12  1  0  0  0
 11 94  1  0  0  0
 12 13  2  0  0  0
 12 95  1  0  0  0
 13 14  1  0  0  0
 13 31  1  0  0  0
 14 15  2  0  0  0
 14 96  1  0  0  0
 15 97  1  0  0  0
 16 17  2  0  0  0
 16 21  1  0  0  0
 16 31  1  0  0  0
 17 18  1  0  0  0
 17 98  1  0  0  0
 18 19  2  0  0  0
 18 99  1  0  0  0
 19 20  1  0  0  0
 19 24  1  0  0  0
 20 21  2  0  0  0
 20100  1  0  0  0
 21 23  1  0  0  0
 22 28  1  0  0  0
 22 32  2  0  0  0
 26 27  1  0  0  0
 28101  1  0  0  0
 28102  1  0  0  0
 29103  1  0  0  0
 29104  1  0  0  0
 33 34  1  0  0  0
 33 66  1  0  0  0
 33 70  2  0  0  0
 34 36  1  0  0  0
 34 59  1  0  0  0
 34105  1  0  0  0
 35 44  2  0  0  0
 35 45  1  0  0  0
 35 68  1  0  0  0
 36 56  1  0  0  0
 36106  1  0  0  0
 37 39  1  0  0  0
 37 47  1  0  0  0
 37 66  1  0  0  0
 37107  1  0  0  0
 38 43  2  0  0  0
 38 46  1  0  0  0
 38 47  1  0  0  0
 39 64  1  0  0  0
 39 67  2  0  0  0
 40 52  1  0  0  0
 40 53  2  0  0  0
 40 58  1  0  0  0
 41108  1  0  0  0
 41109  1  0  0  0
 41110  1  0  0  0
 41 48  1  0  0  0
 42 43  1  0  0  0
 42 66  1  0  0  0
 42111  1  0  0  0
 42112  1  0  0  0
 43 44  1  0  0  0
 44113  1  0  0  0
 45 46  2  0  0  0
 45114  1  0  0  0
 46115  1  0  0  0
 47116  1  0  0  0
 47117  1  0  0  0
 48 56  1  0  0  0
 48 65  1  0  0  0
 48118  1  0  0  0
 49 50  1  0  0  0
 49 53  1  0  0  0
 49 64  1  0  0  0
 49119  1  0  0  0
 50 51  1  0  0  0
 50120  1  0  0  0
 50121  1  0  0  0
 51 52  1  0  0  0
 51122  1  0  0  0
 51123  1  0  0  0
 52124  1  0  0  0
 52125  1  0  0  0
 53 54  1  0  0  0
 54 55  2  0  0  0
 54126  1  0  0  0
 55 57  1  0  0  0
 55127  1  0  0  0
 56 69  2  0  0  0
 57 58  2  0  0  0
 57128  1  0  0  0
 58129  1  0  0  0
 59 60  1  0  0  0
 59 61  1  0  0  0
 59 62  1  0  0  0
 60130  1  0  0  0
 60131  1  0  0  0
 60132  1  0  0  0
 61133  1  0  0  0
 61134  1  0  0  0
 61135  1  0  0  0
 62136  1  0  0  0
 62137  1  0  0  0
 62138  1  0  0  0
 63 65  1  0  0  0
 63139  1  0  0  0
 63140  1  0  0  0
 63141  1  0  0  0
 64142  1  0  0  0
 65143  1  0  0  0
 68 80  1  0  0  0
 71 72  2  0  0  0
 71 81  1  0  0  0
 71144  1  0  0  0
 72 73  1  0  0  0
 72 77  1  0  0  0
 73 74  2  0  0  0
 73 82  1  0  0  0
 74 75  1  0  0  0
 74 81  1  0  0  0
 75145  1  0  0  0
 75146  1  0  0  0
 75147  1  0  0  0
 76148  1  0  0  0
 76149  1  0  0  0
 76150  1  0  0  0
 76 80  1  0  0  0
 77 83  1  0  0  0
 77151  1  0  0  0
 77152  1  0  0  0
 78 80  1  0  0  0
 78 81  1  0  0  0
 78153  1  0  0  0
 78154  1  0  0  0
 79 80  1  0  0  0
 79 84  1  0  0  0
 79155  1  0  0  0
 79156  1  0  0  0
 82157  1  0  0  0
 82158  1  0  0  0
 83159  1  0  0  0
 84160  1  0  0  0
 84161  1  0  0  0
 84162  1  0  0  0
M  CHG  1  84   1
M  ISO  4   1 100  68 101  80 101  83 100
M  END
> <chiral flag>
0

> <version>
0

> <s_m_source_file>
/data/baiqing/PycharmProjects/Reinvent-master-3.2/result/LINK_invent/BTK/process_docking_weight1_custom_sum_contain_oxygen_bond_distance_aromatic_linkinvent_7_9_3/rearranged_h_0104.sdf

> <i_m_source_file_index>
1

> <r_mmod_Potential_Energy-OPLS-2005>
353.666656494141

> <r_mmod_Stretch_Energy-OPLS-2005>
326.327880859375

> <r_mmod_Bend_Energy-OPLS-2005>
316.828735351562

> <r_mmod_Torsional_Energy-OPLS-2005>
253.639373779297

> <r_mmod_Improper_Torsional_Energy-OPLS-2005>
11.378378868103

> <r_mmod_Van_der_Waal_Energy-OPLS-2005>
111.703704833984

> <r_mmod_Electrostatic_Energy-OPLS-2005>
-423.578033447266

> <r_mmod_Solvation_Energy-OPLS-2005>
-481.116485595703

> <b_mmod_Minimization_Converged-OPLS-2005>
0

> <r_mmod_RMS_Derivative-OPLS-2005>
1.56524324417114

$$$$
1
                    3D
 Structure written by MMmdl.
163171  0  0  1  0            999 V2000
  -30.6065  -14.7349   20.5003 C   0  0  0  0  0  0
  -30.4412  -12.4624   19.4585 C   0  0  0  0  0  0
  -29.5134  -12.5187   18.2259 C   0  0  0  0  0  0
  -28.0387  -12.3342   18.6392 C   0  0  0  0  0  0
  -27.6417  -13.2285   19.8447 C   0  0  2  0  0  0
  -28.6868  -13.1472   20.9781 C   0  0  0  0  0  0
  -25.2538  -13.8191   20.5719 C   0  0  0  0  0  0
  -24.1817  -13.0441   20.9224 C   0  0  0  0  0  0
  -24.6402  -11.6918   20.8755 C   0  0  0  0  0  0
  -23.9072  -10.4303   21.0402 C   0  0  0  0  0  0
  -24.3619   -9.4214   21.9172 C   0  0  0  0  0  0
  -23.6307   -8.2245   22.0739 C   0  0  0  0  0  0
  -22.4292   -8.0281   21.3534 C   0  0  0  0  0  0
  -21.9928   -9.0253   20.4639 C   0  0  0  0  0  0
  -22.7247  -10.2143   20.3048 C   0  0  0  0  0  0
  -21.6856   -6.0746   22.5284 C   0  0  0  0  0  0
  -21.4003   -6.5638   23.8224 C   0  0  0  0  0  0
  -21.3663   -5.6783   24.9182 C   0  0  0  0  0  0
  -21.6048   -4.3047   24.7224 C   0  0  0  0  0  0
  -21.8812   -3.8151   23.4336 C   0  0  0  0  0  0
  -21.9194   -4.6972   22.3406 C   0  0  0  0  0  0
  -22.7839  -13.5223   21.1860 C   0  0  0  0  0  0
  -22.1656   -4.2162   21.0984 F   0  0  0  0  0  0
  -21.5636   -3.4533   25.7736 F   0  0  0  0  0  0
  -29.9867  -13.5110   20.3985 N   0  0  0  0  0  0
  -26.2932  -12.9376   20.3230 N   0  0  0  0  0  0
  -25.9324  -11.6527   20.5725 N   0  0  0  0  0  0
  -22.0441  -12.8261   22.0410 N   0  0  0  0  0  0
  -25.4273  -15.1934   20.4208 N   0  0  0  0  0  0
  -31.7984  -14.8528   20.2038 O   0  0  0  0  0  0
  -21.6635   -6.8890   21.4252 O   0  0  0  0  0  0
  -22.3547  -14.5530   20.6690 O   0  0  0  0  0  0
  -24.6320  -31.8547   23.1982 C   0  0  0  0  0  0
  -25.9133  -32.4758   23.8344 C   0  0  1  0  0  0
  -27.2237  -27.2644   20.1330 C   0  0  0  0  0  0
  -25.5928  -33.8563   24.2259 N   0  0  0  0  0  0
  -23.4297  -30.4769   21.5409 C   0  0  2  0  0  0
  -24.8790  -28.9224   20.1122 C   0  0  0  0  0  0
  -22.7507  -29.4594   22.4898 C   0  0  0  0  0  0
  -18.0285  -28.1392   22.8485 C   0  0  0  0  0  0
  -24.1488  -36.7292   23.2637 C   0  0  0  0  0  0
  -25.9766  -30.7694   21.3779 C   0  0  0  0  0  0
  -26.0500  -29.3912   20.7212 C   0  0  0  0  0  0
  -27.2294  -28.5772   20.7143 C   0  0  0  0  0  0
  -26.0316  -26.8614   19.4952 C   0  0  0  0  0  0
  -24.8743  -27.6665   19.4858 C   0  0  0  0  0  0
  -23.6501  -29.8110   20.1574 C   0  0  0  0  0  0
  -25.4112  -36.3074   24.0326 C   0  0  1  0  0  0
  -20.5890  -28.3712   23.1266 C   0  0  2  0  0  0
  -20.6779  -26.9427   22.5406 C   0  0  0  0  0  0
  -19.5754  -26.6380   21.5215 C   0  0  0  0  0  0
  -18.1933  -26.7934   22.1623 C   0  0  0  0  0  0
  -19.1537  -28.8866   23.2873 C   0  0  0  0  0  0
  -18.9457  -30.1461   23.8899 C   0  0  0  0  0  0
  -17.6460  -30.6597   24.0555 C   0  0  0  0  0  0
  -25.9061  -34.9441   23.5099 C   0  0  0  0  0  0
  -16.5351  -29.9097   23.6321 C   0  0  0  0  0  0
  -16.7272  -28.6508   23.0354 C   0  0  0  0  0  0
  -26.4479  -31.6584   25.0745 C   0  0  0  0  0  0
  -25.3687  -31.3758   26.1461 C   0  0  0  0  0  0
  -27.0306  -30.2985   24.6253 C   0  0  0  0  0  0
  -27.6044  -32.4309   25.7520 C   0  0  0  0  0  0
  -27.5578  -37.1803   24.8455 C   0  0  0  0  0  0
  -21.4207  -29.3057   22.3659 N   0  0  0  0  0  0
  -26.4284  -37.3772   23.9408 N   0  0  0  0  0  0
  -24.6981  -31.0520   22.0957 N   0  0  0  0  0  0
  -23.4210  -28.8128   23.2991 O   0  0  0  0  0  0
  -28.3236  -26.3767   20.1398 O   0  0  0  0  0  0
  -26.5639  -34.8910   22.4673 O   0  0  0  0  0  0
  -23.5461  -32.1352   23.7284 O   0  0  0  0  0  0
  -29.1220  -20.6404   18.6906 C   0  0  0  0  0  0
  -29.1638  -20.8399   20.0790 C   0  0  0  0  0  0
  -29.3661  -19.3474   18.1909 C   0  0  0  0  0  0
  -29.7029  -18.5091   20.3001 C   0  0  0  0  0  0
  -28.2516  -18.0387   16.3293 C   0  0  0  0  0  0
  -30.7405  -18.5971   16.2104 C   0  0  0  0  0  0
  -30.4139  -24.0569   19.8277 C   0  0  0  0  0  0
  -28.7809  -22.2492   20.7299 C   0  0  0  0  0  0
  -30.2066  -17.2641   21.1398 C   0  0  0  0  0  0
  -28.1188  -24.9535   20.5919 C   0  0  0  0  0  0
  -29.3529  -19.0485   16.6974 C   0  0  0  0  0  0
  -28.9282  -23.6870   19.9695 C   0  0  1  0  0  0
  -29.4652  -19.7345   20.8665 N   0  0  0  0  0  0
  -29.6430  -18.3022   18.9957 N   0  0  0  0  0  0
  -29.8226  -15.8330   20.7846 N   0  0  0  0  0  0
  -31.4771  -12.6102   19.1490 H   0  0  0  0  0  0
  -30.4017  -11.4789   19.9304 H   0  0  0  0  0  0
  -29.8023  -11.7558   17.5004 H   0  0  0  0  0  0
  -29.6365  -13.4794   17.7231 H   0  0  0  0  0  0
  -27.9004  -11.2851   18.9011 H   0  0  0  0  0  0
  -27.3819  -12.5259   17.7890 H   0  0  0  0  0  0
  -27.6375  -14.2524   19.4698 H   0  0  0  0  0  0
  -28.7312  -12.1413   21.3998 H   0  0  0  0  0  0
  -28.4202  -13.8145   21.8000 H   0  0  0  0  0  0
  -25.2755   -9.5698   22.4755 H   0  0  0  0  0  0
  -24.0022   -7.4630   22.7452 H   0  0  0  0  0  0
  -21.0849   -8.8754   19.8963 H   0  0  0  0  0  0
  -22.3676  -10.9667   19.6163 H   0  0  0  0  0  0
  -21.1973   -7.6141   23.9730 H   0  0  0  0  0  0
  -21.1503   -6.0512   25.9091 H   0  0  0  0  0  0
  -22.0600   -2.7614   23.2827 H   0  0  0  0  0  0
  -22.4024  -11.9953   22.4878 H   0  0  0  0  0  0
  -21.1051  -13.1309   22.2541 H   0  0  0  0  0  0
  -24.6606  -15.8467   20.5364 H   0  0  0  0  0  0
  -26.2682  -15.6367   20.0736 H   0  0  0  0  0  0
  -26.7218  -32.5400   23.1104 H   0  0  0  0  0  0
  -25.0054  -33.9702   25.0389 H   0  0  0  0  0  0
  -22.7260  -31.2994   21.3941 H   0  0  0  0  0  0
  -23.3752  -35.9620   23.3278 H   0  0  0  0  0  0
  -24.3589  -36.8936   22.2057 H   0  0  0  0  0  0
  -23.7232  -37.6486   23.6671 H   0  0  0  0  0  0
  -26.1171  -31.5294   20.6078 H   0  0  0  0  0  0
  -26.8539  -30.8183   22.0126 H   0  0  0  0  0  0
  -28.1307  -28.9379   21.1887 H   0  0  0  0  0  0
  -25.9838  -25.9018   19.0005 H   0  0  0  0  0  0
  -23.9805  -27.3076   18.9944 H   0  0  0  0  0  0
  -23.7795  -30.5877   19.4030 H   0  0  0  0  0  0
  -22.7684  -29.2469   19.8500 H   0  0  0  0  0  0
  -25.1287  -36.1926   25.0818 H   0  0  0  0  0  0
  -20.9981  -28.3296   24.1387 H   0  0  0  0  0  0
  -20.5687  -26.2325   23.3615 H   0  0  0  0  0  0
  -21.6645  -26.7462   22.1190 H   0  0  0  0  0  0
  -19.6919  -25.6282   21.1266 H   0  0  0  0  0  0
  -19.6696  -27.3169   20.6728 H   0  0  0  0  0  0
  -17.4203  -26.6683   21.4021 H   0  0  0  0  0  0
  -18.0331  -26.0079   22.9023 H   0  0  0  0  0  0
  -19.7932  -30.7265   24.2287 H   0  0  0  0  0  0
  -17.5015  -31.6280   24.5148 H   0  0  0  0  0  0
  -15.5353  -30.3007   23.7627 H   0  0  0  0  0  0
  -15.8671  -28.0822   22.7082 H   0  0  0  0  0  0
  -24.5861  -30.7110   25.7781 H   0  0  0  0  0  0
  -24.8883  -32.2941   26.4849 H   0  0  0  0  0  0
  -25.7985  -30.8951   27.0262 H   0  0  0  0  0  0
  -26.2894  -29.6769   24.1224 H   0  0  0  0  0  0
  -27.3886  -29.7220   25.4792 H   0  0  0  0  0  0
  -27.8816  -30.4217   23.9557 H   0  0  0  0  0  0
  -27.2659  -33.3600   26.2113 H   0  0  0  0  0  0
  -28.3858  -32.6883   25.0359 H   0  0  0  0  0  0
  -28.0714  -31.8428   26.5431 H   0  0  0  0  0  0
  -28.2578  -38.0113   24.7511 H   0  0  0  0  0  0
  -28.1088  -36.2649   24.6259 H   0  0  0  0  0  0
  -27.2312  -37.1426   25.8861 H   0  0  0  0  0  0
  -20.9397  -29.8808   21.6886 H   0  0  0  0  0  0
  -26.0166  -38.2843   24.1417 H   0  0  0  0  0  0
  -28.8856  -21.4548   18.0180 H   0  0  0  0  0  0
  -27.2701  -18.4134   16.6203 H   0  0  0  0  0  0
  -28.4020  -17.0849   16.8366 H   0  0  0  0  0  0
  -28.2313  -17.8482   15.2565 H   0  0  0  0  0  0
  -31.4981  -19.3421   16.4561 H   0  0  0  0  0  0
  -30.7538  -18.4476   15.1312 H   0  0  0  0  0  0
  -31.0412  -17.6618   16.6829 H   0  0  0  0  0  0
  -30.9811  -23.2507   19.3616 H   0  0  0  0  0  0
  -30.8642  -24.2664   20.7988 H   0  0  0  0  0  0
  -30.5380  -24.9433   19.2040 H   0  0  0  0  0  0
  -29.3157  -22.3117   21.6773 H   0  0  0  0  0  0
  -27.7315  -22.1523   21.0095 H   0  0  0  0  0  0
  -29.8781  -17.4208   22.1674 H   0  0  0  0  0  0
  -31.2937  -17.3316   21.1786 H   0  0  0  0  0  0
  -28.3337  -24.9719   21.6609 H   0  0  0  0  0  0
  -27.0602  -24.6991   20.5486 H   0  0  0  0  0  0
  -29.1190  -19.9782   16.1776 H   0  0  0  0  0  0
  -28.5323  -23.5537   18.9630 H   0  0  0  0  0  0
  -28.8378  -15.6475   20.8738 H   0  0  0  0  0  0
  1 25  1  0  0  0
  1 30  2  0  0  0
  1 85  1  0  0  0
  2  3  1  0  0  0
  2 25  1  0  0  0
  2 86  1  0  0  0
  2 87  1  0  0  0
  3  4  1  0  0  0
  3 88  1  0  0  0
  3 89  1  0  0  0
  4  5  1  0  0  0
  4 90  1  0  0  0
  4 91  1  0  0  0
  5  6  1  0  0  0
  5 26  1  0  0  0
  5 92  1  0  0  0
  6 25  1  0  0  0
  6 93  1  0  0  0
  6 94  1  0  0  0
  7  8  2  0  0  0
  7 26  1  0  0  0
  7 29  1  0  0  0
  8  9  1  0  0  0
  8 22  1  0  0  0
  9 10  1  0  0  0
  9 27  2  0  0  0
 10 11  2  0  0  0
 10 15  1  0  0  0
 11 12  1  0  0  0
 11 95  1  0  0  0
 12 13  2  0  0  0
 12 96  1  0  0  0
 13 14  1  0  0  0
 13 31  1  0  0  0
 14 15  2  0  0  0
 14 97  1  0  0  0
 15 98  1  0  0  0
 16 17  2  0  0  0
 16 21  1  0  0  0
 16 31  1  0  0  0
 17 18  1  0  0  0
 17 99  1  0  0  0
 18 19  2  0  0  0
 18100  1  0  0  0
 19 20  1  0  0  0
 19 24  1  0  0  0
 20 21  2  0  0  0
 20101  1  0  0  0
 21 23  1  0  0  0
 22 28  1  0  0  0
 22 32  2  0  0  0
 26 27  1  0  0  0
 28102  1  0  0  0
 28103  1  0  0  0
 29104  1  0  0  0
 29105  1  0  0  0
 33 34  1  0  0  0
 33 66  1  0  0  0
 33 70  2  0  0  0
 34 36  1  0  0  0
 34 59  1  0  0  0
 34106  1  0  0  0
 35 44  2  0  0  0
 35 45  1  0  0  0
 35 68  1  0  0  0
 36 56  1  0  0  0
 36107  1  0  0  0
 37 39  1  0  0  0
 37 47  1  0  0  0
 37 66  1  0  0  0
 37108  1  0  0  0
 38 43  2  0  0  0
 38 46  1  0  0  0
 38 47  1  0  0  0
 39 64  1  0  0  0
 39 67  2  0  0  0
 40 52  1  0  0  0
 40 53  2  0  0  0
 40 58  1  0  0  0
 41109  1  0  0  0
 41110  1  0  0  0
 41111  1  0  0  0
 41 48  1  0  0  0
 42 43  1  0  0  0
 42 66  1  0  0  0
 42112  1  0  0  0
 42113  1  0  0  0
 43 44  1  0  0  0
 44114  1  0  0  0
 45 46  2  0  0  0
 45115  1  0  0  0
 46116  1  0  0  0
 47117  1  0  0  0
 47118  1  0  0  0
 48 56  1  0  0  0
 48 65  1  0  0  0
 48119  1  0  0  0
 49 50  1  0  0  0
 49 53  1  0  0  0
 49 64  1  0  0  0
 49120  1  0  0  0
 50 51  1  0  0  0
 50121  1  0  0  0
 50122  1  0  0  0
 51 52  1  0  0  0
 51123  1  0  0  0
 51124  1  0  0  0
 52125  1  0  0  0
 52126  1  0  0  0
 53 54  1  0  0  0
 54 55  2  0  0  0
 54127  1  0  0  0
 55 57  1  0  0  0
 55128  1  0  0  0
 56 69  2  0  0  0
 57 58  2  0  0  0
 57129  1  0  0  0
 58130  1  0  0  0
 59 60  1  0  0  0
 59 61  1  0  0  0
 59 62  1  0  0  0
 60131  1  0  0  0
 60132  1  0  0  0
 60133  1  0  0  0
 61134  1  0  0  0
 61135  1  0  0  0
 61136  1  0  0  0
 62137  1  0  0  0
 62138  1  0  0  0
 62139  1  0  0  0
 63 65  1  0  0  0
 63140  1  0  0  0
 63141  1  0  0  0
 63142  1  0  0  0
 64143  1  0  0  0
 65144  1  0  0  0
 68 80  1  0  0  0
 71 72  2  0  0  0
 71 73  1  0  0  0
 71145  1  0  0  0
 72 78  1  0  0  0
 72 83  1  0  0  0
 73 81  1  0  0  0
 73 84  2  0  0  0
 74 79  1  0  0  0
 74 83  2  0  0  0
 74 84  1  0  0  0
 75146  1  0  0  0
 75147  1  0  0  0
 75148  1  0  0  0
 75 81  1  0  0  0
 76 81  1  0  0  0
 76149  1  0  0  0
 76150  1  0  0  0
 76151  1  0  0  0
 77152  1  0  0  0
 77153  1  0  0  0
 77154  1  0  0  0
 77 82  1  0  0  0
 78 82  1  0  0  0
 78155  1  0  0  0
 78156  1  0  0  0
 79 85  1  0  0  0
 79157  1  0  0  0
 79158  1  0  0  0
 80 82  1  0  0  0
 80159  1  0  0  0
 80160  1  0  0  0
 81161  1  0  0  0
 82162  1  0  0  0
 85163  1  0  0  0
M  ISO  4   1 100  68 101  80 101  85 100
M  END
> <chiral flag>
0

> <version>
0

> <s_m_source_file>
/data/baiqing/PycharmProjects/Reinvent-master-3.2/result/LINK_invent/BTK/process_docking_weight1_custom_sum_contain_oxygen_bond_distance_aromatic_linkinvent_7_9_3/rearranged_h_0104.sdf

> <i_m_source_file_index>
2

> <r_mmod_Potential_Energy-OPLS-2005>
-470.585418701172

> <r_mmod_Stretch_Energy-OPLS-2005>
118.052635192871

> <r_mmod_Bend_Energy-OPLS-2005>
167.342803955078

> <r_mmod_Torsional_Energy-OPLS-2005>
209.500701904297

> <r_mmod_Improper_Torsional_Energy-OPLS-2005>
3.89991354942322

> <r_mmod_Van_der_Waal_Energy-OPLS-2005>
136.627410888672

> <r_mmod_Electrostatic_Energy-OPLS-2005>
-958.727600097656

> <r_mmod_Solvation_Energy-OPLS-2005>
-228.895904541016

> <b_mmod_Minimization_Converged-OPLS-2005>
0

> <r_mmod_RMS_Derivative-OPLS-2005>
2.4056384563446

$$$$
2
                    3D
 Structure written by MMmdl.
171179  0  0  1  0            999 V2000
  -30.6562  -14.5569   20.5287 C   0  0  0  0  0  0
  -30.4244  -12.3435   19.4472 C   0  0  0  0  0  0
  -29.5056  -12.5077   18.2184 C   0  0  0  0  0  0
  -28.0238  -12.3668   18.6203 C   0  0  0  0  0  0
  -27.6555  -13.2129   19.8703 C   0  0  2  0  0  0
  -28.6948  -13.0427   20.9994 C   0  0  0  0  0  0
  -25.2553  -13.8034   20.5569 C   0  0  0  0  0  0
  -24.1805  -13.0367   20.9110 C   0  0  0  0  0  0
  -24.6389  -11.6841   20.8721 C   0  0  0  0  0  0
  -23.9057  -10.4254   21.0421 C   0  0  0  0  0  0
  -24.3615   -9.4181   21.9210 C   0  0  0  0  0  0
  -23.6269   -8.2224   22.0783 C   0  0  0  0  0  0
  -22.4254   -8.0276   21.3557 C   0  0  0  0  0  0
  -21.9888   -9.0257   20.4674 C   0  0  0  0  0  0
  -22.7230  -10.2124   20.3074 C   0  0  0  0  0  0
  -21.6842   -6.0726   22.5271 C   0  0  0  0  0  0
  -21.4016   -6.5640   23.8208 C   0  0  0  0  0  0
  -21.3649   -5.6791   24.9165 C   0  0  0  0  0  0
  -21.6043   -4.3050   24.7227 C   0  0  0  0  0  0
  -21.8823   -3.8140   23.4347 C   0  0  0  0  0  0
  -21.9196   -4.6947   22.3387 C   0  0  0  0  0  0
  -22.7854  -13.5236   21.1800 C   0  0  0  0  0  0
  -22.1663   -4.2136   21.0967 F   0  0  0  0  0  0
  -21.5620   -3.4534   25.7741 F   0  0  0  0  0  0
  -30.0158  -13.3560   20.4387 N   0  0  0  0  0  0
  -26.3004  -12.9263   20.3326 N   0  0  0  0  0  0
  -25.9335  -11.6413   20.5764 N   0  0  0  0  0  0
  -22.0498  -12.8264   22.0395 N   0  0  0  0  0  0
  -25.4265  -15.1661   20.3847 N   0  0  0  0  0  0
  -31.8135  -14.7102   20.1307 O   0  0  0  0  0  0
  -21.6632   -6.8866   21.4233 O   0  0  0  0  0  0
  -22.3559  -14.5568   20.6683 O   0  0  0  0  0  0
  -24.6169  -31.8653   23.2067 C   0  0  0  0  0  0
  -25.9053  -32.4806   23.8376 C   0  0  1  0  0  0
  -27.2396  -27.3917   20.1274 C   0  0  0  0  0  0
  -25.5905  -33.8602   24.2313 N   0  0  0  0  0  0
  -23.4088  -30.4859   21.5463 C   0  0  2  0  0  0
  -24.8595  -28.9424   20.1190 C   0  0  0  0  0  0
  -22.7424  -29.4639   22.4959 C   0  0  0  0  0  0
  -18.0280  -28.1366   22.8492 C   0  0  0  0  0  0
  -24.1486  -36.7306   23.2636 C   0  0  0  0  0  0
  -25.9403  -30.8186   21.3670 C   0  0  0  0  0  0
  -26.0207  -29.4485   20.7176 C   0  0  0  0  0  0
  -27.2149  -28.6847   20.7120 C   0  0  0  0  0  0
  -26.0620  -26.9117   19.5149 C   0  0  0  0  0  0
  -24.8769  -27.6745   19.5119 C   0  0  0  0  0  0
  -23.6228  -29.8145   20.1630 C   0  0  0  0  0  0
  -25.4107  -36.3102   24.0334 C   0  0  1  0  0  0
  -20.5871  -28.3663   23.1301 C   0  0  2  0  0  0
  -20.6773  -26.9396   22.5410 C   0  0  0  0  0  0
  -19.5754  -26.6373   21.5210 C   0  0  0  0  0  0
  -18.1929  -26.7914   22.1618 C   0  0  0  0  0  0
  -19.1531  -28.8832   23.2895 C   0  0  0  0  0  0
  -18.9464  -30.1431   23.8915 C   0  0  0  0  0  0
  -17.6470  -30.6573   24.0560 C   0  0  0  0  0  0
  -25.9036  -34.9467   23.5122 C   0  0  0  0  0  0
  -16.5357  -29.9078   23.6323 C   0  0  0  0  0  0
  -16.7270  -28.6484   23.0361 C   0  0  0  0  0  0
  -26.4478  -31.6594   25.0716 C   0  0  0  0  0  0
  -25.3743  -31.3741   26.1473 C   0  0  0  0  0  0
  -27.0300  -30.3022   24.6122 C   0  0  0  0  0  0
  -27.6049  -32.4317   25.7480 C   0  0  0  0  0  0
  -27.5581  -37.1806   24.8463 C   0  0  0  0  0  0
  -21.4150  -29.3028   22.3697 N   0  0  0  0  0  0
  -26.4296  -37.3786   23.9406 N   0  0  0  0  0  0
  -24.6732  -31.0721   22.0979 N   0  0  0  0  0  0
  -23.4181  -28.8188   23.3022 O   0  0  0  0  0  0
  -28.3937  -26.6217   20.1252 O   0  0  0  0  0  0
  -26.5597  -34.8923   22.4683 O   0  0  0  0  0  0
  -23.5351  -32.1415   23.7440 O   0  0  0  0  0  0
  -27.9419  -19.8598   21.0607 C   0  0  0  0  0  0
  -27.2310  -18.6764   21.3534 C   0  0  0  0  0  0
  -29.2086  -19.4668   20.7383 C   0  0  0  0  0  0
  -25.4935  -17.6029   22.8552 C   0  0  0  0  0  0
  -24.8581  -18.5199   20.5209 C   0  0  0  0  0  0
  -31.1799  -20.6663   21.7034 C   0  0  0  0  0  0
  -31.3347  -19.7814   19.3880 C   0  0  0  0  0  0
  -29.1790  -24.2173   19.9661 C   0  0  0  0  0  0
  -29.9565  -21.8171   19.7736 C   0  0  0  0  0  0
  -28.3045  -25.2863   20.7036 C   0  0  0  0  0  0
  -30.3043  -17.0473   20.6838 C   0  0  0  0  0  0
  -25.7756  -18.6294   21.7473 C   0  0  0  0  0  0
  -30.3707  -20.4170   20.4168 C   0  0  0  0  0  0
  -27.9726  -17.5899   21.1651 N   0  0  0  0  0  0
  -29.2159  -18.0494   20.8521 N   0  0  0  0  0  0
  -29.8985  -15.6294   20.8761 N   0  0  0  0  0  0
  -29.2038  -22.8361   20.5806 N   0  3  0  0  0  0
  -31.4719  -12.4410   19.1526 H   0  0  0  0  0  0
  -30.3212  -11.3411   19.8674 H   0  0  0  0  0  0
  -29.7571  -11.7754   17.4511 H   0  0  0  0  0  0
  -29.6712  -13.4862   17.7650 H   0  0  0  0  0  0
  -27.8277  -11.3113   18.8127 H   0  0  0  0  0  0
  -27.3846  -12.6484   17.7832 H   0  0  0  0  0  0
  -27.6806  -14.2560   19.5533 H   0  0  0  0  0  0
  -28.6821  -12.0212   21.3812 H   0  0  0  0  0  0
  -28.4516  -13.6843   21.8501 H   0  0  0  0  0  0
  -25.2775   -9.5636   22.4760 H   0  0  0  0  0  0
  -23.9977   -7.4623   22.7498 H   0  0  0  0  0  0
  -21.0815   -8.8796   19.8979 H   0  0  0  0  0  0
  -22.3724  -10.9674   19.6176 H   0  0  0  0  0  0
  -21.2021   -7.6156   23.9707 H   0  0  0  0  0  0
  -21.1459   -6.0523   25.9073 H   0  0  0  0  0  0
  -22.0613   -2.7594   23.2855 H   0  0  0  0  0  0
  -22.4113  -11.9917   22.4757 H   0  0  0  0  0  0
  -21.1156  -13.1356   22.2670 H   0  0  0  0  0  0
  -24.6674  -15.8214   20.5286 H   0  0  0  0  0  0
  -26.3084  -15.6204   20.1778 H   0  0  0  0  0  0
  -26.7126  -32.5518   23.1139 H   0  0  0  0  0  0
  -25.0073  -33.9759   25.0472 H   0  0  0  0  0  0
  -22.6988  -31.3028   21.4029 H   0  0  0  0  0  0
  -23.3739  -35.9649   23.3314 H   0  0  0  0  0  0
  -24.3579  -36.8900   22.2047 H   0  0  0  0  0  0
  -23.7244  -37.6520   23.6635 H   0  0  0  0  0  0
  -26.0607  -31.5817   20.5970 H   0  0  0  0  0  0
  -26.8243  -30.8723   21.9905 H   0  0  0  0  0  0
  -28.1092  -29.0742   21.1792 H   0  0  0  0  0  0
  -26.0553  -25.9425   19.0368 H   0  0  0  0  0  0
  -23.9862  -27.2795   19.0431 H   0  0  0  0  0  0
  -23.7343  -30.5883   19.4021 H   0  0  0  0  0  0
  -22.7470  -29.2352   19.8651 H   0  0  0  0  0  0
  -25.1280  -36.1969   25.0826 H   0  0  0  0  0  0
  -20.9967  -28.3239   24.1422 H   0  0  0  0  0  0
  -20.5671  -26.2276   23.3601 H   0  0  0  0  0  0
  -21.6645  -26.7431   22.1212 H   0  0  0  0  0  0
  -19.6920  -25.6287   21.1231 H   0  0  0  0  0  0
  -19.6692  -27.3189   20.6746 H   0  0  0  0  0  0
  -17.4199  -26.6661   21.4019 H   0  0  0  0  0  0
  -18.0337  -26.0044   22.9002 H   0  0  0  0  0  0
  -19.7944  -30.7236   24.2301 H   0  0  0  0  0  0
  -17.5028  -31.6261   24.5147 H   0  0  0  0  0  0
  -15.5364  -30.2996   23.7626 H   0  0  0  0  0  0
  -15.8664  -28.0800   22.7096 H   0  0  0  0  0  0
  -24.5893  -30.7106   25.7836 H   0  0  0  0  0  0
  -24.8969  -32.2919   26.4911 H   0  0  0  0  0  0
  -25.8092  -30.8921   27.0236 H   0  0  0  0  0  0
  -26.2854  -29.6790   24.1158 H   0  0  0  0  0  0
  -27.4035  -29.7254   25.4593 H   0  0  0  0  0  0
  -27.8708  -30.4319   23.9304 H   0  0  0  0  0  0
  -27.2664  -33.3610   26.2077 H   0  0  0  0  0  0
  -28.3855  -32.6890   25.0308 H   0  0  0  0  0  0
  -28.0723  -31.8431   26.5385 H   0  0  0  0  0  0
  -28.2609  -38.0094   24.7495 H   0  0  0  0  0  0
  -28.1066  -36.2621   24.6302 H   0  0  0  0  0  0
  -27.2298  -37.1474   25.8868 H   0  0  0  0  0  0
  -20.9311  -29.8748   21.6913 H   0  0  0  0  0  0
  -26.0183  -38.2867   24.1400 H   0  0  0  0  0  0
  -27.5410  -20.8589   21.1114 H   0  0  0  0  0  0
  -26.0720  -17.8353   23.7490 H   0  0  0  0  0  0
  -25.7637  -16.5923   22.5551 H   0  0  0  0  0  0
  -24.4393  -17.6007   23.1317 H   0  0  0  0  0  0
  -24.9894  -19.3865   19.8736 H   0  0  0  0  0  0
  -23.8075  -18.4874   20.8097 H   0  0  0  0  0  0
  -25.0771  -17.6460   19.9159 H   0  0  0  0  0  0
  -31.5712  -19.7328   22.1089 H   0  0  0  0  0  0
  -30.5683  -21.1118   22.4867 H   0  0  0  0  0  0
  -32.0318  -21.3239   21.5268 H   0  0  0  0  0  0
  -31.9039  -18.9547   19.8033 H   0  0  0  0  0  0
  -32.0865  -20.4902   19.0413 H   0  0  0  0  0  0
  -30.8044  -19.4184   18.5068 H   0  0  0  0  0  0
  -30.2041  -24.5846   19.9088 H   0  0  0  0  0  0
  -28.8257  -24.1365   18.9382 H   0  0  0  0  0  0
  -29.3979  -21.6375   18.8539 H   0  0  0  0  0  0
  -30.8705  -22.3225   19.4605 H   0  0  0  0  0  0
  -28.6400  -25.3704   21.7382 H   0  0  0  0  0  0
  -27.2755  -24.9308   20.7578 H   0  0  0  0  0  0
  -31.1152  -17.2965   21.3699 H   0  0  0  0  0  0
  -30.6875  -17.1381   19.6689 H   0  0  0  0  0  0
  -25.5344  -19.5954   22.1948 H   0  0  0  0  0  0
  -28.9384  -15.4868   21.1526 H   0  0  0  0  0  0
  -28.2580  -22.5080   20.6926 H   0  0  0  0  0  0
  -29.6161  -22.8952   21.4982 H   0  0  0  0  0  0
  1 25  1  0  0  0
  1 30  2  0  0  0
  1 86  1  0  0  0
  2  3  1  0  0  0
  2 25  1  0  0  0
  2 88  1  0  0  0
  2 89  1  0  0  0
  3  4  1  0  0  0
  3 90  1  0  0  0
  3 91  1  0  0  0
  4  5  1  0  0  0
  4 92  1  0  0  0
  4 93  1  0  0  0
  5  6  1  0  0  0
  5 26  1  0  0  0
  5 94  1  0  0  0
  6 25  1  0  0  0
  6 95  1  0  0  0
  6 96  1  0  0  0
  7  8  2  0  0  0
  7 26  1  0  0  0
  7 29  1  0  0  0
  8  9  1  0  0  0
  8 22  1  0  0  0
  9 10  1  0  0  0
  9 27  2  0  0  0
 10 11  2  0  0  0
 10 15  1  0  0  0
 11 12  1  0  0  0
 11 97  1  0  0  0
 12 13  2  0  0  0
 12 98  1  0  0  0
 13 14  1  0  0  0
 13 31  1  0  0  0
 14 15  2  0  0  0
 14 99  1  0  0  0
 15100  1  0  0  0
 16 17  2  0  0  0
 16 21  1  0  0  0
 16 31  1  0  0  0
 17 18  1  0  0  0
 17101  1  0  0  0
 18 19  2  0  0  0
 18102  1  0  0  0
 19 20  1  0  0  0
 19 24  1  0  0  0
 20 21  2  0  0  0
 20103  1  0  0  0
 21 23  1  0  0  0
 22 28  1  0  0  0
 22 32  2  0  0  0
 26 27  1  0  0  0
 28104  1  0  0  0
 28105  1  0  0  0
 29106  1  0  0  0
 29107  1  0  0  0
 33 34  1  0  0  0
 33 66  1  0  0  0
 33 70  2  0  0  0
 34 36  1  0  0  0
 34 59  1  0  0  0
 34108  1  0  0  0
 35 44  2  0  0  0
 35 45  1  0  0  0
 35 68  1  0  0  0
 36 56  1  0  0  0
 36109  1  0  0  0
 37 39  1  0  0  0
 37 47  1  0  0  0
 37 66  1  0  0  0
 37110  1  0  0  0
 38 43  2  0  0  0
 38 46  1  0  0  0
 38 47  1  0  0  0
 39 64  1  0  0  0
 39 67  2  0  0  0
 40 52  1  0  0  0
 40 53  2  0  0  0
 40 58  1  0  0  0
 41111  1  0  0  0
 41112  1  0  0  0
 41113  1  0  0  0
 41 48  1  0  0  0
 42 43  1  0  0  0
 42 66  1  0  0  0
 42114  1  0  0  0
 42115  1  0  0  0
 43 44  1  0  0  0
 44116  1  0  0  0
 45 46  2  0  0  0
 45117  1  0  0  0
 46118  1  0  0  0
 47119  1  0  0  0
 47120  1  0  0  0
 48 56  1  0  0  0
 48 65  1  0  0  0
 48121  1  0  0  0
 49 50  1  0  0  0
 49 53  1  0  0  0
 49 64  1  0  0  0
 49122  1  0  0  0
 50 51  1  0  0  0
 50123  1  0  0  0
 50124  1  0  0  0
 51 52  1  0  0  0
 51125  1  0  0  0
 51126  1  0  0  0
 52127  1  0  0  0
 52128  1  0  0  0
 53 54  1  0  0  0
 54 55  2  0  0  0
 54129  1  0  0  0
 55 57  1  0  0  0
 55130  1  0  0  0
 56 69  2  0  0  0
 57 58  2  0  0  0
 57131  1  0  0  0
 58132  1  0  0  0
 59 60  1  0  0  0
 59 61  1  0  0  0
 59 62  1  0  0  0
 60133  1  0  0  0
 60134  1  0  0  0
 60135  1  0  0  0
 61136  1  0  0  0
 61137  1  0  0  0
 61138  1  0  0  0
 62139  1  0  0  0
 62140  1  0  0  0
 62141  1  0  0  0
 63 65  1  0  0  0
 63142  1  0  0  0
 63143  1  0  0  0
 63144  1  0  0  0
 64145  1  0  0  0
 65146  1  0  0  0
 68 80  1  0  0  0
 71 72  1  0  0  0
 71 73  2  0  0  0
 71147  1  0  0  0
 72 82  1  0  0  0
 72 84  2  0  0  0
 73 83  1  0  0  0
 73 85  1  0  0  0
 74148  1  0  0  0
 74149  1  0  0  0
 74150  1  0  0  0
 74 82  1  0  0  0
 75 82  1  0  0  0
 75151  1  0  0  0
 75152  1  0  0  0
 75153  1  0  0  0
 76154  1  0  0  0
 76155  1  0  0  0
 76156  1  0  0  0
 76 83  1  0  0  0
 77 83  1  0  0  0
 77157  1  0  0  0
 77158  1  0  0  0
 77159  1  0  0  0
 78 80  1  0  0  0
 78 87  1  0  0  0
 78160  1  0  0  0
 78161  1  0  0  0
 79 83  1  0  0  0
 79 87  1  0  0  0
 79162  1  0  0  0
 79163  1  0  0  0
 80164  1  0  0  0
 80165  1  0  0  0
 81 85  1  0  0  0
 81 86  1  0  0  0
 81166  1  0  0  0
 81167  1  0  0  0
 82168  1  0  0  0
 84 85  1  0  0  0
 86169  1  0  0  0
 87170  1  0  0  0
 87171  1  0  0  0
M  CHG  1  87   1
M  ISO  4   1 100  68 101  80 101  86 100
M  END
> <chiral flag>
0

> <version>
0

> <s_m_source_file>
/data/baiqing/PycharmProjects/Reinvent-master-3.2/result/LINK_invent/BTK/process_docking_weight1_custom_sum_contain_oxygen_bond_distance_aromatic_linkinvent_7_9_3/rearranged_h_0104.sdf

> <i_m_source_file_index>
3

> <r_mmod_Potential_Energy-OPLS-2005>
-262.373931884766

> <r_mmod_Stretch_Energy-OPLS-2005>
58.2337837219238

> <r_mmod_Bend_Energy-OPLS-2005>
133.201171875

> <r_mmod_Torsional_Energy-OPLS-2005>
247.548919677734

> <r_mmod_Improper_Torsional_Energy-OPLS-2005>
5.13443851470947

> <r_mmod_Van_der_Waal_Energy-OPLS-2005>
123.195266723633

> <r_mmod_Electrostatic_Energy-OPLS-2005>
-400.617279052734

> <r_mmod_Solvation_Energy-OPLS-2005>
-453.220642089844

> <b_mmod_Minimization_Converged-OPLS-2005>
0

> <r_mmod_RMS_Derivative-OPLS-2005>
2.82192945480347

$$$$
3
                    3D
 Structure written by MMmdl.
146153  0  0  1  0            999 V2000
  -30.1660  -16.0148   20.3026 C   0  0  0  0  0  0
  -30.3974  -13.3647   19.5529 C   0  0  0  0  0  0
  -29.5661  -12.7652   18.3692 C   0  0  0  0  0  0
  -28.1711  -12.3233   18.8269 C   0  0  0  0  0  0
  -27.5875  -13.3488   19.8184 C   0  0  2  0  0  0
  -28.5812  -13.8219   20.9179 C   0  0  0  0  0  0
  -25.2219  -13.8287   20.5855 C   0  0  0  0  0  0
  -24.1666  -13.0382   20.9316 C   0  0  0  0  0  0
  -24.6454  -11.6929   20.8762 C   0  0  0  0  0  0
  -23.9167  -10.4267   21.0378 C   0  0  0  0  0  0
  -24.3682   -9.4182   21.9169 C   0  0  0  0  0  0
  -23.6328   -8.2234   22.0748 C   0  0  0  0  0  0
  -22.4306   -8.0284   21.3543 C   0  0  0  0  0  0
  -21.9965   -9.0260   20.4635 C   0  0  0  0  0  0
  -22.7325  -10.2120   20.3035 C   0  0  0  0  0  0
  -21.6859   -6.0744   22.5279 C   0  0  0  0  0  0
  -21.4017   -6.5644   23.8214 C   0  0  0  0  0  0
  -21.3661   -5.6793   24.9174 C   0  0  0  0  0  0
  -21.6045   -4.3057   24.7223 C   0  0  0  0  0  0
  -21.8819   -3.8152   23.4343 C   0  0  0  0  0  0
  -21.9195   -4.6971   22.3401 C   0  0  0  0  0  0
  -22.7668  -13.5086   21.1934 C   0  0  0  0  0  0
  -22.1662   -4.2157   21.0979 F   0  0  0  0  0  0
  -21.5629   -3.4540   25.7736 F   0  0  0  0  0  0
  -29.6938  -14.5750   20.2480 N   0  0  0  0  0  0
  -26.2766  -12.9742   20.3332 N   0  0  0  0  0  0
  -25.9428  -11.6760   20.5706 N   0  0  0  0  0  0
  -22.0349  -12.8060   22.0492 N   0  0  0  0  0  0
  -25.3615  -15.2021   20.4302 N   0  0  0  0  0  0
  -31.4019  -15.8911   20.1154 O   0  0  0  0  0  0
  -21.6649   -6.8893   21.4246 O   0  0  0  0  0  0
  -22.3326  -14.5382   20.6769 O   0  0  0  0  0  0
  -24.7072  -31.7691   23.1296 C   0  0  0  0  0  0
  -25.9532  -32.4311   23.7934 C   0  0  1  0  0  0
  -27.2451  -26.4472   20.2349 C   0  0  0  0  0  0
  -25.6013  -33.8154   24.1795 N   0  0  0  0  0  0
  -23.5466  -30.3580   21.4883 C   0  0  2  0  0  0
  -25.0095  -28.6461   20.1196 C   0  0  0  0  0  0
  -22.7875  -29.4145   22.4630 C   0  0  0  0  0  0
  -18.0353  -28.1434   22.8437 C   0  0  0  0  0  0
  -24.1496  -36.7087   23.2659 C   0  0  0  0  0  0
  -26.1362  -30.4162   21.4348 C   0  0  0  0  0  0
  -26.1992  -28.9529   20.7881 C   0  0  0  0  0  0
  -27.2839  -27.8877   20.8110 C   0  0  0  0  0  0
  -26.0239  -26.4181   19.4934 C   0  0  0  0  0  0
  -24.9764  -27.4079   19.4471 C   0  0  0  0  0  0
  -23.8153  -29.6307   20.1339 C   0  0  0  0  0  0
  -25.4157  -36.2805   24.0262 C   0  0  1  0  0  0
  -20.6001  -28.3805   23.1092 C   0  0  2  0  0  0
  -20.6807  -26.9440   22.5407 C   0  0  0  0  0  0
  -19.5789  -26.6363   21.5217 C   0  0  0  0  0  0
  -18.1970  -26.7956   22.1611 C   0  0  0  0  0  0
  -19.1624  -28.8949   23.2738 C   0  0  0  0  0  0
  -18.9529  -30.1526   23.8795 C   0  0  0  0  0  0
  -17.6518  -30.6611   24.0543 C   0  0  0  0  0  0
  -25.9156  -34.9203   23.4885 C   0  0  0  0  0  0
  -16.5404  -29.9086   23.6360 C   0  0  0  0  0  0
  -16.7332  -28.6510   23.0372 C   0  0  0  0  0  0
  -26.4637  -31.6461   25.0665 C   0  0  0  0  0  0
  -25.3636  -31.3857   26.1233 C   0  0  0  0  0  0
  -27.0609  -30.2769   24.6761 C   0  0  0  0  0  0
  -27.6037  -32.4386   25.7491 C   0  0  0  0  0  0
  -27.5555  -37.1694   24.8465 C   0  0  0  0  0  0
  -21.4499  -29.2996   22.3377 N   0  0  0  0  0  0
  -26.4257  -37.3598   23.9411 N   0  0  0  0  0  0
  -24.8228  -30.8877   22.0694 N   0  0  0  0  0  0
  -23.4194  -28.7796   23.3105 O   0  0  0  0  0  0
  -28.1751  -25.1156   20.3662 O   0  0  0  0  0  0
  -26.5832  -34.8834   22.4527 O   0  0  0  0  0  0
  -23.6037  -32.0890   23.6087 O   0  0  0  0  0  0
  -27.6258  -20.9641   21.5602 C   0  0  0  0  0  0
  -28.0264  -17.2528   20.7939 C   0  0  0  0  0  0
  -29.3965  -19.3620   20.0080 C   0  0  0  0  0  0
  -28.2676  -23.2571   19.9927 C   0  0  0  0  0  0
  -28.7532  -21.2865   20.5742 C   0  0  1  0  0  0
  -29.3992  -17.4841   20.3720 N   0  0  0  0  0  0
  -31.3588  -13.6781   19.1451 H   0  0  0  0  0  0
  -30.6555  -12.5874   20.2746 H   0  0  0  0  0  0
  -30.0976  -11.9293   17.9122 H   0  0  0  0  0  0
  -29.4647  -13.5250   17.5930 H   0  0  0  0  0  0
  -28.2668  -11.3561   19.3222 H   0  0  0  0  0  0
  -27.5086  -12.1744   17.9734 H   0  0  0  0  0  0
  -27.4032  -14.2249   19.1947 H   0  0  0  0  0  0
  -28.9285  -12.9913   21.5346 H   0  0  0  0  0  0
  -28.0733  -14.4965   21.6060 H   0  0  0  0  0  0
  -25.2819   -9.5651   22.4757 H   0  0  0  0  0  0
  -24.0023   -7.4624   22.7474 H   0  0  0  0  0  0
  -21.0897   -8.8794   19.8937 H   0  0  0  0  0  0
  -22.3791  -10.9662   19.6145 H   0  0  0  0  0  0
  -21.2006   -7.6151   23.9720 H   0  0  0  0  0  0
  -21.1483   -6.0522   25.9077 H   0  0  0  0  0  0
  -22.0597   -2.7615   23.2842 H   0  0  0  0  0  0
  -22.4019  -11.9756   22.4903 H   0  0  0  0  0  0
  -21.0941  -13.1019   22.2672 H   0  0  0  0  0  0
  -24.5831  -15.8401   20.5534 H   0  0  0  0  0  0
  -26.2034  -15.6591   20.1109 H   0  0  0  0  0  0
  -26.7633  -32.4716   23.0653 H   0  0  0  0  0  0
  -25.0039  -33.9150   24.9869 H   0  0  0  0  0  0
  -22.8872  -31.2021   21.2752 H   0  0  0  0  0  0
  -23.3787  -35.9383   23.3241 H   0  0  0  0  0  0
  -24.3557  -36.8847   22.2089 H   0  0  0  0  0  0
  -23.7229  -37.6222   23.6812 H   0  0  0  0  0  0
  -26.3664  -31.1244   20.6378 H   0  0  0  0  0  0
  -26.9773  -30.4916   22.1109 H   0  0  0  0  0  0
  -28.1671  -28.1350   21.3830 H   0  0  0  0  0  0
  -25.8179  -25.4970   18.9669 H   0  0  0  0  0  0
  -24.0870  -27.1601   18.8841 H   0  0  0  0  0  0
  -24.0076  -30.3801   19.3652 H   0  0  0  0  0  0
  -22.9160  -29.1069   19.8053 H   0  0  0  0  0  0
  -25.1378  -36.1527   25.0749 H   0  0  0  0  0  0
  -21.0070  -28.3450   24.1224 H   0  0  0  0  0  0
  -20.5648  -26.2437   23.3693 H   0  0  0  0  0  0
  -21.6667  -26.7347   22.1240 H   0  0  0  0  0  0
  -19.6947  -25.6248   21.1311 H   0  0  0  0  0  0
  -19.6742  -27.3118   20.6705 H   0  0  0  0  0  0
  -17.4243  -26.6699   21.4011 H   0  0  0  0  0  0
  -18.0348  -26.0120   22.9028 H   0  0  0  0  0  0
  -19.8008  -30.7363   24.2122 H   0  0  0  0  0  0
  -17.5070  -31.6281   24.5163 H   0  0  0  0  0  0
  -15.5401  -30.2957   23.7746 H   0  0  0  0  0  0
  -15.8732  -28.0797   22.7146 H   0  0  0  0  0  0
  -24.5850  -30.7188   25.7515 H   0  0  0  0  0  0
  -24.8806  -32.3107   26.4390 H   0  0  0  0  0  0
  -25.7746  -30.9181   27.0189 H   0  0  0  0  0  0
  -26.3377  -29.6297   24.1793 H   0  0  0  0  0  0
  -27.3967  -29.7328   25.5600 H   0  0  0  0  0  0
  -27.9381  -30.3832   24.0378 H   0  0  0  0  0  0
  -27.2551  -33.3796   26.1761 H   0  0  0  0  0  0
  -28.3996  -32.6773   25.0423 H   0  0  0  0  0  0
  -28.0544  -31.8729   26.5657 H   0  0  0  0  0  0
  -28.2515  -38.0040   24.7524 H   0  0  0  0  0  0
  -28.1104  -36.2559   24.6275 H   0  0  0  0  0  0
  -27.2271  -37.1303   25.8866 H   0  0  0  0  0  0
  -20.9866  -29.8606   21.6364 H   0  0  0  0  0  0
  -26.0059  -38.2629   24.1443 H   0  0  0  0  0  0
  -27.9000  -20.1386   22.2181 H   0  0  0  0  0  0
  -26.7144  -20.6845   21.0315 H   0  0  0  0  0  0
  -27.3947  -21.8229   22.1911 H   0  0  0  0  0  0
  -27.9910  -16.7765   21.7741 H   0  0  0  0  0  0
  -27.5369  -16.6133   20.0634 H   0  0  0  0  0  0
  -27.4426  -18.1698   20.8563 H   0  0  0  0  0  0
  -30.4598  -19.5239   19.8284 H   0  0  0  0  0  0
  -28.9885  -19.3179   18.9977 H   0  0  0  0  0  0
  -27.2658  -23.1116   19.5879 H   0  0  0  0  0  0
  -28.8844  -23.3304   19.0973 H   0  0  0  0  0  0
  -29.6080  -21.5341   21.2043 H   0  0  0  0  0  0
  1 25  1  0  0  0
  1 30  2  0  0  0
  1 76  1  0  0  0
  2  3  1  0  0  0
  2 25  1  0  0  0
  2 77  1  0  0  0
  2 78  1  0  0  0
  3  4  1  0  0  0
  3 79  1  0  0  0
  3 80  1  0  0  0
  4  5  1  0  0  0
  4 81  1  0  0  0
  4 82  1  0  0  0
  5  6  1  0  0  0
  5 26  1  0  0  0
  5 83  1  0  0  0
  6 25  1  0  0  0
  6 84  1  0  0  0
  6 85  1  0  0  0
  7  8  2  0  0  0
  7 26  1  0  0  0
  7 29  1  0  0  0
  8  9  1  0  0  0
  8 22  1  0  0  0
  9 10  1  0  0  0
  9 27  2  0  0  0
 10 11  2  0  0  0
 10 15  1  0  0  0
 11 12  1  0  0  0
 11 86  1  0  0  0
 12 13  2  0  0  0
 12 87  1  0  0  0
 13 14  1  0  0  0
 13 31  1  0  0  0
 14 15  2  0  0  0
 14 88  1  0  0  0
 15 89  1  0  0  0
 16 17  2  0  0  0
 16 21  1  0  0  0
 16 31  1  0  0  0
 17 18  1  0  0  0
 17 90  1  0  0  0
 18 19  2  0  0  0
 18 91  1  0  0  0
 19 20  1  0  0  0
 19 24  1  0  0  0
 20 21  2  0  0  0
 20 92  1  0  0  0
 21 23  1  0  0  0
 22 28  1  0  0  0
 22 32  2  0  0  0
 26 27  1  0  0  0
 28 93  1  0  0  0
 28 94  1  0  0  0
 29 95  1  0  0  0
 29 96  1  0  0  0
 33 34  1  0  0  0
 33 66  1  0  0  0
 33 70  2  0  0  0
 34 36  1  0  0  0
 34 59  1  0  0  0
 34 97  1  0  0  0
 35 44  2  0  0  0
 35 45  1  0  0  0
 35 68  1  0  0  0
 36 56  1  0  0  0
 36 98  1  0  0  0
 37 39  1  0  0  0
 37 47  1  0  0  0
 37 66  1  0  0  0
 37 99  1  0  0  0
 38 43  2  0  0  0
 38 46  1  0  0  0
 38 47  1  0  0  0
 39 64  1  0  0  0
 39 67  2  0  0  0
 40 52  1  0  0  0
 40 53  2  0  0  0
 40 58  1  0  0  0
 41100  1  0  0  0
 41101  1  0  0  0
 41102  1  0  0  0
 41 48  1  0  0  0
 42 43  1  0  0  0
 42 66  1  0  0  0
 42103  1  0  0  0
 42104  1  0  0  0
 43 44  1  0  0  0
 44105  1  0  0  0
 45 46  2  0  0  0
 45106  1  0  0  0
 46107  1  0  0  0
 47108  1  0  0  0
 47109  1  0  0  0
 48 56  1  0  0  0
 48 65  1  0  0  0
 48110  1  0  0  0
 49 50  1  0  0  0
 49 53  1  0  0  0
 49 64  1  0  0  0
 49111  1  0  0  0
 50 51  1  0  0  0
 50112  1  0  0  0
 50113  1  0  0  0
 51 52  1  0  0  0
 51114  1  0  0  0
 51115  1  0  0  0
 52116  1  0  0  0
 52117  1  0  0  0
 53 54  1  0  0  0
 54 55  2  0  0  0
 54118  1  0  0  0
 55 57  1  0  0  0
 55119  1  0  0  0
 56 69  2  0  0  0
 57 58  2  0  0  0
 57120  1  0  0  0
 58121  1  0  0  0
 59 60  1  0  0  0
 59 61  1  0  0  0
 59 62  1  0  0  0
 60122  1  0  0  0
 60123  1  0  0  0
 60124  1  0  0  0
 61125  1  0  0  0
 61126  1  0  0  0
 61127  1  0  0  0
 62128  1  0  0  0
 62129  1  0  0  0
 62130  1  0  0  0
 63 65  1  0  0  0
 63131  1  0  0  0
 63132  1  0  0  0
 63133  1  0  0  0
 64134  1  0  0  0
 65135  1  0  0  0
 68 74  1  0  0  0
 71136  1  0  0  0
 71137  1  0  0  0
 71138  1  0  0  0
 71 75  1  0  0  0
 72 76  1  0  0  0
 72139  1  0  0  0
 72140  1  0  0  0
 72141  1  0  0  0
 73 75  1  0  0  0
 73 76  1  0  0  0
 73142  1  0  0  0
 73143  1  0  0  0
 74 75  1  0  0  0
 74144  1  0  0  0
 74145  1  0  0  0
 75146  1  0  0  0
M  ISO  4   1 100  68 101  74 101  76 100
M  END
> <chiral flag>
0

> <version>
0

> <s_m_source_file>
/data/baiqing/PycharmProjects/Reinvent-master-3.2/result/LINK_invent/BTK/process_docking_weight1_custom_sum_contain_oxygen_bond_distance_aromatic_linkinvent_7_9_3/rearranged_h_0104.sdf

> <i_m_source_file_index>
4

> <r_mmod_Potential_Energy-OPLS-2005>
4285.72216796875

> <r_mmod_Stretch_Energy-OPLS-2005>
1948.86401367188

> <r_mmod_Bend_Energy-OPLS-2005>
890.18896484375

> <r_mmod_Torsional_Energy-OPLS-2005>
283.449249267578

> <r_mmod_Improper_Torsional_Energy-OPLS-2005>
4.26286172866821

> <r_mmod_Van_der_Waal_Energy-OPLS-2005>
112.509841918945

> <r_mmod_Electrostatic_Energy-OPLS-2005>
-278.368255615234

> <r_mmod_Solvation_Energy-OPLS-2005>
-215.006607055664

> <b_mmod_Minimization_Converged-OPLS-2005>
0

> <r_mmod_RMS_Derivative-OPLS-2005>
0.579964220523834

$$$$
4
                    3D
 Structure written by MMmdl.
149156  0  0  1  0            999 V2000
  -30.2909  -15.5468   20.3700 C   0  0  0  0  0  0
  -30.4273  -13.0087   19.5700 C   0  0  0  0  0  0
  -29.5586  -12.6454   18.3337 C   0  0  0  0  0  0
  -28.1215  -12.2972   18.7586 C   0  0  0  0  0  0
  -27.5936  -13.2972   19.8132 C   0  0  2  0  0  0
  -28.5975  -13.5857   20.9471 C   0  0  0  0  0  0
  -25.2303  -13.8291   20.5729 C   0  0  0  0  0  0
  -24.1678  -13.0442   20.9286 C   0  0  0  0  0  0
  -24.6377  -11.6966   20.8768 C   0  0  0  0  0  0
  -23.9102  -10.4297   21.0413 C   0  0  0  0  0  0
  -24.3631   -9.4217   21.9216 C   0  0  0  0  0  0
  -23.6295   -8.2252   22.0773 C   0  0  0  0  0  0
  -22.4271   -8.0277   21.3562 C   0  0  0  0  0  0
  -21.9925   -9.0255   20.4659 C   0  0  0  0  0  0
  -22.7269  -10.2142   20.3076 C   0  0  0  0  0  0
  -21.6849   -6.0743   22.5288 C   0  0  0  0  0  0
  -21.4012   -6.5654   23.8229 C   0  0  0  0  0  0
  -21.3657   -5.6801   24.9184 C   0  0  0  0  0  0
  -21.6031   -4.3062   24.7220 C   0  0  0  0  0  0
  -21.8819   -3.8165   23.4337 C   0  0  0  0  0  0
  -21.9193   -4.6975   22.3402 C   0  0  0  0  0  0
  -22.7702  -13.5192   21.1902 C   0  0  0  0  0  0
  -22.1656   -4.2178   21.0964 F   0  0  0  0  0  0
  -21.5625   -3.4525   25.7730 F   0  0  0  0  0  0
  -29.7884  -14.1845   20.3129 N   0  0  0  0  0  0
  -26.2711  -12.9591   20.3132 N   0  0  0  0  0  0
  -25.9309  -11.6681   20.5657 N   0  0  0  0  0  0
  -22.0289  -12.8226   22.0449 N   0  0  0  0  0  0
  -25.3868  -15.2018   20.4214 N   0  0  0  0  0  0
  -31.5258  -15.5178   20.2096 O   0  0  0  0  0  0
  -21.6628   -6.8876   21.4245 O   0  0  0  0  0  0
  -22.3412  -14.5464   20.6686 O   0  0  0  0  0  0
  -24.6854  -31.8023   23.1516 C   0  0  0  0  0  0
  -25.9437  -32.4474   23.8085 C   0  0  1  0  0  0
  -27.2046  -26.7196   20.2329 C   0  0  0  0  0  0
  -25.6033  -33.8292   24.2019 N   0  0  0  0  0  0
  -23.5082  -30.4055   21.5045 C   0  0  2  0  0  0
  -24.9610  -28.7482   20.1224 C   0  0  0  0  0  0
  -22.7762  -29.4342   22.4728 C   0  0  0  0  0  0
  -18.0325  -28.1484   22.8462 C   0  0  0  0  0  0
  -24.1483  -36.7136   23.2636 C   0  0  0  0  0  0
  -26.0855  -30.5486   21.4014 C   0  0  0  0  0  0
  -26.1504  -29.1093   20.7657 C   0  0  0  0  0  0
  -27.2648  -28.1227   20.7841 C   0  0  0  0  0  0
  -25.9879  -26.5602   19.5282 C   0  0  0  0  0  0
  -24.9168  -27.5010   19.4797 C   0  0  0  0  0  0
  -23.7593  -29.7023   20.1386 C   0  0  0  0  0  0
  -25.4118  -36.2875   24.0295 C   0  0  1  0  0  0
  -20.5983  -28.3796   23.1165 C   0  0  2  0  0  0
  -20.6802  -26.9470   22.5402 C   0  0  0  0  0  0
  -19.5773  -26.6431   21.5230 C   0  0  0  0  0  0
  -18.1961  -26.8028   22.1634 C   0  0  0  0  0  0
  -19.1607  -28.8975   23.2787 C   0  0  0  0  0  0
  -18.9522  -30.1566   23.8845 C   0  0  0  0  0  0
  -17.6513  -30.6646   24.0613 C   0  0  0  0  0  0
  -25.9099  -34.9272   23.4974 C   0  0  0  0  0  0
  -16.5397  -29.9159   23.6372 C   0  0  0  0  0  0
  -16.7307  -28.6587   23.0372 C   0  0  0  0  0  0
  -26.4638  -31.6451   25.0680 C   0  0  0  0  0  0
  -25.3732  -31.3765   26.1318 C   0  0  0  0  0  0
  -27.0469  -30.2789   24.6457 C   0  0  0  0  0  0
  -27.6129  -32.4230   25.7517 C   0  0  0  0  0  0
  -27.5533  -37.1724   24.8479 C   0  0  0  0  0  0
  -21.4411  -29.3062   22.3498 N   0  0  0  0  0  0
  -26.4247  -37.3626   23.9408 N   0  0  0  0  0  0
  -24.7841  -30.9499   22.0751 N   0  0  0  0  0  0
  -23.4225  -28.7884   23.2996 O   0  0  0  0  0  0
  -28.1618  -25.5105   20.3141 O   0  0  0  0  0  0
  -26.5695  -34.8861   22.4565 O   0  0  0  0  0  0
  -23.5882  -32.1069   23.6489 O   0  0  0  0  0  0
  -27.3941  -20.0074   21.2821 C   0  0  0  0  0  0
  -27.9857  -20.0093   18.9027 C   0  0  0  0  0  0
  -28.8670  -22.1060   20.3928 C   0  0  0  0  0  0
  -29.6595  -18.6284   20.4690 C   0  0  0  0  0  0
  -27.9170  -23.7806   20.2937 C   0  0  0  0  0  0
  -28.5760  -20.2087   20.3072 C   0  0  0  0  0  0
  -29.4924  -16.8727   20.4329 N   0  0  0  0  0  0
  -31.4384  -13.2492   19.2394 H   0  0  0  0  0  0
  -30.5433  -12.1455   20.2292 H   0  0  0  0  0  0
  -30.0055  -11.8183   17.7827 H   0  0  0  0  0  0
  -29.5433  -13.4946   17.6503 H   0  0  0  0  0  0
  -28.1363  -11.2943   19.1810 H   0  0  0  0  0  0
  -27.4644  -12.2565   17.8897 H   0  0  0  0  0  0
  -27.4741  -14.2291   19.2605 H   0  0  0  0  0  0
  -28.8255  -12.6896   21.5293 H   0  0  0  0  0  0
  -28.1658  -14.3003   21.6481 H   0  0  0  0  0  0
  -25.2772   -9.5673   22.4805 H   0  0  0  0  0  0
  -23.9991   -7.4645   22.7514 H   0  0  0  0  0  0
  -21.0864   -8.8793   19.8982 H   0  0  0  0  0  0
  -22.3742  -10.9667   19.6176 H   0  0  0  0  0  0
  -21.2015   -7.6167   23.9742 H   0  0  0  0  0  0
  -21.1468   -6.0515   25.9082 H   0  0  0  0  0  0
  -22.0600   -2.7617   23.2823 H   0  0  0  0  0  0
  -22.3864  -11.9873   22.4879 H   0  0  0  0  0  0
  -21.0875  -13.1269   22.2584 H   0  0  0  0  0  0
  -24.6078  -15.8367   20.5509 H   0  0  0  0  0  0
  -26.1978  -15.6475   20.0150 H   0  0  0  0  0  0
  -26.7520  -32.4977   23.0816 H   0  0  0  0  0  0
  -25.0280  -33.9325   25.0253 H   0  0  0  0  0  0
  -22.8301  -31.2396   21.3095 H   0  0  0  0  0  0
  -23.3744  -35.9451   23.3297 H   0  0  0  0  0  0
  -24.3562  -36.8784   22.2039 H   0  0  0  0  0  0
  -23.7260  -37.6335   23.6713 H   0  0  0  0  0  0
  -26.2629  -31.2576   20.5924 H   0  0  0  0  0  0
  -26.9505  -30.6397   22.0456 H   0  0  0  0  0  0
  -28.1703  -28.4035   21.3080 H   0  0  0  0  0  0
  -25.8206  -25.6132   19.0338 H   0  0  0  0  0  0
  -24.0136  -27.2127   18.9632 H   0  0  0  0  0  0
  -23.9461  -30.4569   19.3733 H   0  0  0  0  0  0
  -22.8662  -29.1654   19.8142 H   0  0  0  0  0  0
  -25.1325  -36.1649   25.0778 H   0  0  0  0  0  0
  -21.0076  -28.3438   24.1298 H   0  0  0  0  0  0
  -20.5709  -26.2418   23.3640 H   0  0  0  0  0  0
  -21.6654  -26.7458   22.1212 H   0  0  0  0  0  0
  -19.6920  -25.6333   21.1287 H   0  0  0  0  0  0
  -19.6754  -27.3220   20.6752 H   0  0  0  0  0  0
  -17.4231  -26.6788   21.4039 H   0  0  0  0  0  0
  -18.0343  -26.0211   22.9065 H   0  0  0  0  0  0
  -19.7991  -30.7413   24.2203 H   0  0  0  0  0  0
  -17.5054  -31.6319   24.5237 H   0  0  0  0  0  0
  -15.5397  -30.3057   23.7718 H   0  0  0  0  0  0
  -15.8706  -28.0894   22.7117 H   0  0  0  0  0  0
  -24.6030  -30.6947   25.7711 H   0  0  0  0  0  0
  -24.8778  -32.2942   26.4460 H   0  0  0  0  0  0
  -25.7970  -30.9210   27.0269 H   0  0  0  0  0  0
  -26.3110  -29.6496   24.1437 H   0  0  0  0  0  0
  -27.3925  -29.7147   25.5128 H   0  0  0  0  0  0
  -27.9109  -30.3920   23.9906 H   0  0  0  0  0  0
  -27.2764  -33.3624   26.1904 H   0  0  0  0  0  0
  -28.4104  -32.6587   25.0464 H   0  0  0  0  0  0
  -28.0612  -31.8428   26.5591 H   0  0  0  0  0  0
  -28.2568  -38.0001   24.7458 H   0  0  0  0  0  0
  -28.1022  -36.2529   24.6406 H   0  0  0  0  0  0
  -27.2238  -37.1469   25.8880 H   0  0  0  0  0  0
  -20.9689  -29.8724   21.6591 H   0  0  0  0  0  0
  -26.0090  -38.2667   24.1433 H   0  0  0  0  0  0
  -27.0081  -18.9856   21.2663 H   0  0  0  0  0  0
  -26.5550  -20.6577   21.0183 H   0  0  0  0  0  0
  -27.6594  -20.2527   22.3100 H   0  0  0  0  0  0
  -27.4500  -19.0610   18.8330 H   0  0  0  0  0  0
  -28.7740  -19.9932   18.1509 H   0  0  0  0  0  0
  -27.2758  -20.7926   18.6323 H   0  0  0  0  0  0
  -29.6406  -22.2510   19.6423 H   0  0  0  0  0  0
  -29.4028  -22.1900   21.3386 H   0  0  0  0  0  0
  -30.1969  -18.7848   21.4075 H   0  0  0  0  0  0
  -30.4228  -18.7844   19.7095 H   0  0  0  0  0  0
  -27.2874  -23.6535   19.4154 H   0  0  0  0  0  0
  -27.2087  -23.6801   21.1192 H   0  0  0  0  0  0
  -28.5167  -16.6291   20.5106 H   0  0  0  0  0  0
  1 25  1  0  0  0
  1 30  2  0  0  0
  1 77  1  0  0  0
  2  3  1  0  0  0
  2 25  1  0  0  0
  2 78  1  0  0  0
  2 79  1  0  0  0
  3  4  1  0  0  0
  3 80  1  0  0  0
  3 81  1  0  0  0
  4  5  1  0  0  0
  4 82  1  0  0  0
  4 83  1  0  0  0
  5  6  1  0  0  0
  5 26  1  0  0  0
  5 84  1  0  0  0
  6 25  1  0  0  0
  6 85  1  0  0  0
  6 86  1  0  0  0
  7  8  2  0  0  0
  7 26  1  0  0  0
  7 29  1  0  0  0
  8  9  1  0  0  0
  8 22  1  0  0  0
  9 10  1  0  0  0
  9 27  2  0  0  0
 10 11  2  0  0  0
 10 15  1  0  0  0
 11 12  1  0  0  0
 11 87  1  0  0  0
 12 13  2  0  0  0
 12 88  1  0  0  0
 13 14  1  0  0  0
 13 31  1  0  0  0
 14 15  2  0  0  0
 14 89  1  0  0  0
 15 90  1  0  0  0
 16 17  2  0  0  0
 16 21  1  0  0  0
 16 31  1  0  0  0
 17 18  1  0  0  0
 17 91  1  0  0  0
 18 19  2  0  0  0
 18 92  1  0  0  0
 19 20  1  0  0  0
 19 24  1  0  0  0
 20 21  2  0  0  0
 20 93  1  0  0  0
 21 23  1  0  0  0
 22 28  1  0  0  0
 22 32  2  0  0  0
 26 27  1  0  0  0
 28 94  1  0  0  0
 28 95  1  0  0  0
 29 96  1  0  0  0
 29 97  1  0  0  0
 33 34  1  0  0  0
 33 66  1  0  0  0
 33 70  2  0  0  0
 34 36  1  0  0  0
 34 59  1  0  0  0
 34 98  1  0  0  0
 35 44  2  0  0  0
 35 45  1  0  0  0
 35 68  1  0  0  0
 36 56  1  0  0  0
 36 99  1  0  0  0
 37 39  1  0  0  0
 37 47  1  0  0  0
 37 66  1  0  0  0
 37100  1  0  0  0
 38 43  2  0  0  0
 38 46  1  0  0  0
 38 47  1  0  0  0
 39 64  1  0  0  0
 39 67  2  0  0  0
 40 52  1  0  0  0
 40 53  2  0  0  0
 40 58  1  0  0  0
 41101  1  0  0  0
 41102  1  0  0  0
 41103  1  0  0  0
 41 48  1  0  0  0
 42 43  1  0  0  0
 42 66  1  0  0  0
 42104  1  0  0  0
 42105  1  0  0  0
 43 44  1  0  0  0
 44106  1  0  0  0
 45 46  2  0  0  0
 45107  1  0  0  0
 46108  1  0  0  0
 47109  1  0  0  0
 47110  1  0  0  0
 48 56  1  0  0  0
 48 65  1  0  0  0
 48111  1  0  0  0
 49 50  1  0  0  0
 49 53  1  0  0  0
 49 64  1  0  0  0
 49112  1  0  0  0
 50 51  1  0  0  0
 50113  1  0  0  0
 50114  1  0  0  0
 51 52  1  0  0  0
 51115  1  0  0  0
 51116  1  0  0  0
 52117  1  0  0  0
 52118  1  0  0  0
 53 54  1  0  0  0
 54 55  2  0  0  0
 54119  1  0  0  0
 55 57  1  0  0  0
 55120  1  0  0  0
 56 69  2  0  0  0
 57 58  2  0  0  0
 57121  1  0  0  0
 58122  1  0  0  0
 59 60  1  0  0  0
 59 61  1  0  0  0
 59 62  1  0  0  0
 60123  1  0  0  0
 60124  1  0  0  0
 60125  1  0  0  0
 61126  1  0  0  0
 61127  1  0  0  0
 61128  1  0  0  0
 62129  1  0  0  0
 62130  1  0  0  0
 62131  1  0  0  0
 63 65  1  0  0  0
 63132  1  0  0  0
 63133  1  0  0  0
 63134  1  0  0  0
 64135  1  0  0  0
 65136  1  0  0  0
 68 75  1  0  0  0
 71137  1  0  0  0
 71138  1  0  0  0
 71139  1  0  0  0
 71 76  1  0  0  0
 72 76  1  0  0  0
 72140  1  0  0  0
 72141  1  0  0  0
 72142  1  0  0  0
 73 75  1  0  0  0
 73 76  1  0  0  0
 73143  1  0  0  0
 73144  1  0  0  0
 74 76  1  0  0  0
 74 77  1  0  0  0
 74145  1  0  0  0
 74146  1  0  0  0
 75147  1  0  0  0
 75148  1  0  0  0
 77149  1  0  0  0
M  ISO  4   1 100  68 101  75 101  77 100
M  END
> <chiral flag>
0

> <version>
0

> <s_m_source_file>
/data/baiqing/PycharmProjects/Reinvent-master-3.2/result/LINK_invent/BTK/process_docking_weight1_custom_sum_contain_oxygen_bond_distance_aromatic_linkinvent_7_9_3/rearranged_h_0104.sdf

> <i_m_source_file_index>
5

> <r_mmod_Potential_Energy-OPLS-2005>
2263.390625

> <r_mmod_Stretch_Energy-OPLS-2005>
1094.16040039062

> <r_mmod_Bend_Energy-OPLS-2005>
604.043151855469

> <r_mmod_Torsional_Energy-OPLS-2005>
227.648651123047

> <r_mmod_Improper_Torsional_Energy-OPLS-2005>
3.4969596862793

> <r_mmod_Van_der_Waal_Energy-OPLS-2005>
105.44490814209

> <r_mmod_Electrostatic_Energy-OPLS-2005>
-385.550170898438

> <r_mmod_Solvation_Energy-OPLS-2005>
-207.854522705078

> <b_mmod_Minimization_Converged-OPLS-2005>
0

> <r_mmod_RMS_Derivative-OPLS-2005>
5.92256784439087

$$$$
5
                    3D
 Structure written by MMmdl.
161169  0  0  1  0            999 V2000
  -30.3882  -15.3532   20.3637 C   0  0  0  0  0  0
  -30.4373  -12.8669   19.5493 C   0  0  0  0  0  0
  -29.5416  -12.5913   18.3114 C   0  0  0  0  0  0
  -28.0955  -12.2963   18.7411 C   0  0  0  0  0  0
  -27.6087  -13.2815   19.8297 C   0  0  2  0  0  0
  -28.6338  -13.4858   20.9681 C   0  0  0  0  0  0
  -25.2369  -13.8256   20.5778 C   0  0  0  0  0  0
  -24.1722  -13.0436   20.9280 C   0  0  0  0  0  0
  -24.6384  -11.6939   20.8762 C   0  0  0  0  0  0
  -23.9087  -10.4289   21.0401 C   0  0  0  0  0  0
  -24.3628   -9.4207   21.9184 C   0  0  0  0  0  0
  -23.6297   -8.2243   22.0749 C   0  0  0  0  0  0
  -22.4276   -8.0277   21.3535 C   0  0  0  0  0  0
  -21.9920   -9.0262   20.4644 C   0  0  0  0  0  0
  -22.7258  -10.2137   20.3057 C   0  0  0  0  0  0
  -21.6856   -6.0731   22.5276 C   0  0  0  0  0  0
  -21.4021   -6.5638   23.8212 C   0  0  0  0  0  0
  -21.3655   -5.6795   24.9174 C   0  0  0  0  0  0
  -21.6042   -4.3056   24.7230 C   0  0  0  0  0  0
  -21.8816   -3.8142   23.4352 C   0  0  0  0  0  0
  -21.9202   -4.6959   22.3408 C   0  0  0  0  0  0
  -22.7743  -13.5186   21.1928 C   0  0  0  0  0  0
  -22.1660   -4.2145   21.0986 F   0  0  0  0  0  0
  -21.5627   -3.4539   25.7740 F   0  0  0  0  0  0
  -29.8602  -14.0200   20.3493 N   0  0  0  0  0  0
  -26.2790  -12.9538   20.3249 N   0  0  0  0  0  0
  -25.9324  -11.6629   20.5736 N   0  0  0  0  0  0
  -22.0419  -12.8153   22.0480 N   0  0  0  0  0  0
  -25.4006  -15.1995   20.4202 N   0  0  0  0  0  0
  -31.5979  -15.3659   20.0842 O   0  0  0  0  0  0
  -21.6635   -6.8874   21.4230 O   0  0  0  0  0  0
  -22.3421  -14.5491   20.6785 O   0  0  0  0  0  0
  -24.6679  -31.8169   23.1671 C   0  0  0  0  0  0
  -25.9342  -32.4541   23.8140 C   0  0  1  0  0  0
  -27.2060  -26.8628   20.2077 C   0  0  0  0  0  0
  -25.5991  -33.8356   24.2039 N   0  0  0  0  0  0
  -23.4870  -30.4278   21.5155 C   0  0  2  0  0  0
  -24.9424  -28.8124   20.1042 C   0  0  0  0  0  0
  -22.7697  -29.4397   22.4734 C   0  0  0  0  0  0
  -18.0331  -28.1413   22.8438 C   0  0  0  0  0  0
  -24.1495  -36.7191   23.2652 C   0  0  0  0  0  0
  -26.0582  -30.6004   21.4134 C   0  0  0  0  0  0
  -26.1219  -29.1871   20.7568 C   0  0  0  0  0  0
  -27.2429  -28.2323   20.7902 C   0  0  0  0  0  0
  -26.0198  -26.6816   19.4568 C   0  0  0  0  0  0
  -24.9218  -27.5820   19.4280 C   0  0  0  0  0  0
  -23.7300  -29.7447   20.1407 C   0  0  0  0  0  0
  -25.4139  -36.2931   24.0288 C   0  0  1  0  0  0
  -20.5961  -28.3745   23.1160 C   0  0  2  0  0  0
  -20.6798  -26.9407   22.5410 C   0  0  0  0  0  0
  -19.5777  -26.6367   21.5207 C   0  0  0  0  0  0
  -18.1950  -26.7942   22.1597 C   0  0  0  0  0  0
  -19.1591  -28.8894   23.2779 C   0  0  0  0  0  0
  -18.9519  -30.1486   23.8811 C   0  0  0  0  0  0
  -17.6512  -30.6586   24.0545 C   0  0  0  0  0  0
  -25.9110  -34.9309   23.4982 C   0  0  0  0  0  0
  -16.5395  -29.9073   23.6347 C   0  0  0  0  0  0
  -16.7317  -28.6504   23.0339 C   0  0  0  0  0  0
  -26.4582  -31.6514   25.0709 C   0  0  0  0  0  0
  -25.3686  -31.3785   26.1352 C   0  0  0  0  0  0
  -27.0504  -30.2866   24.6522 C   0  0  0  0  0  0
  -27.6053  -32.4370   25.7497 C   0  0  0  0  0  0
  -27.5560  -37.1744   24.8471 C   0  0  0  0  0  0
  -21.4360  -29.3030   22.3488 N   0  0  0  0  0  0
  -26.4276  -37.3687   23.9406 N   0  0  0  0  0  0
  -24.7587  -30.9781   22.0839 N   0  0  0  0  0  0
  -23.4210  -28.7957   23.2993 O   0  0  0  0  0  0
  -28.1605  -25.6967   20.3464 O   0  0  0  0  0  0
  -26.5748  -34.8863   22.4597 O   0  0  0  0  0  0
  -23.5740  -32.1163   23.6742 O   0  0  0  0  0  0
  -29.4116  -22.6700   21.8797 C   0  0  0  0  0  0
  -29.9228  -21.5457   22.5798 C   0  0  0  0  0  0
  -29.8151  -20.2068   22.0707 C   0  0  0  0  0  0
  -28.7710  -22.5811   20.6392 C   0  0  0  0  0  0
  -29.3328  -19.9394   20.7547 C   0  0  0  0  0  0
  -30.2251  -19.0410   22.9745 C   0  0  0  0  0  0
  -29.5337  -22.0056   25.0474 C   0  0  0  0  0  0
  -31.5589  -23.0163   23.9016 C   0  0  0  0  0  0
  -26.5472  -23.8189   20.9643 C   0  0  0  0  0  0
  -29.5650  -18.2820   20.1203 C   0  0  0  0  0  0
  -30.5836  -21.8271   23.9388 C   0  0  0  0  0  0
  -27.8630  -24.0419   20.1877 C   0  0  1  0  0  0
  -28.7843  -21.1775   20.1189 N   0  0  0  0  0  0
  -29.5901  -16.6172   20.5035 N   0  0  0  0  0  0
  -31.4518  -13.0837   19.2135 H   0  0  0  0  0  0
  -30.5237  -11.9719   20.1691 H   0  0  0  0  0  0
  -29.9384  -11.7560   17.7339 H   0  0  0  0  0  0
  -29.5556  -13.4584   17.6503 H   0  0  0  0  0  0
  -28.0727  -11.2798   19.1362 H   0  0  0  0  0  0
  -27.4255  -12.3057   17.8809 H   0  0  0  0  0  0
  -27.5167  -14.2391   19.3161 H   0  0  0  0  0  0
  -28.8173  -12.5588   21.5150 H   0  0  0  0  0  0
  -28.2521  -14.2029   21.6970 H   0  0  0  0  0  0
  -25.2770   -9.5681   22.4769 H   0  0  0  0  0  0
  -24.0007   -7.4628   22.7466 H   0  0  0  0  0  0
  -21.0856   -8.8782   19.8952 H   0  0  0  0  0  0
  -22.3711  -10.9673   19.6169 H   0  0  0  0  0  0
  -21.2006   -7.6144   23.9714 H   0  0  0  0  0  0
  -21.1476   -6.0521   25.9077 H   0  0  0  0  0  0
  -22.0600   -2.7603   23.2858 H   0  0  0  0  0  0
  -22.4054  -11.9812   22.4837 H   0  0  0  0  0  0
  -21.1032  -13.1145   22.2713 H   0  0  0  0  0  0
  -24.6275  -15.8474   20.5305 H   0  0  0  0  0  0
  -26.2340  -15.6368   20.0498 H   0  0  0  0  0  0
  -26.7405  -32.5035   23.0838 H   0  0  0  0  0  0
  -25.0040  -33.9428   25.0125 H   0  0  0  0  0  0
  -22.8052  -31.2622   21.3423 H   0  0  0  0  0  0
  -23.3757  -35.9523   23.3295 H   0  0  0  0  0  0
  -24.3572  -36.8879   22.2076 H   0  0  0  0  0  0
  -23.7258  -37.6367   23.6745 H   0  0  0  0  0  0
  -26.2546  -31.3388   20.6354 H   0  0  0  0  0  0
  -26.9119  -30.6519   22.0765 H   0  0  0  0  0  0
  -28.1216  -28.5085   21.3556 H   0  0  0  0  0  0
  -25.8966  -25.7526   18.9196 H   0  0  0  0  0  0
  -24.0356  -27.2957   18.8785 H   0  0  0  0  0  0
  -23.8894  -30.5146   19.3847 H   0  0  0  0  0  0
  -22.8403  -29.2030   19.8179 H   0  0  0  0  0  0
  -25.1339  -36.1709   25.0784 H   0  0  0  0  0  0
  -21.0041  -28.3360   24.1293 H   0  0  0  0  0  0
  -20.5676  -26.2351   23.3656 H   0  0  0  0  0  0
  -21.6654  -26.7379   22.1214 H   0  0  0  0  0  0
  -19.6941  -25.6274   21.1252 H   0  0  0  0  0  0
  -19.6734  -27.3150   20.6715 H   0  0  0  0  0  0
  -17.4237  -26.6683   21.3997 H   0  0  0  0  0  0
  -18.0326  -26.0115   22.9023 H   0  0  0  0  0  0
  -19.8002  -30.7302   24.2144 H   0  0  0  0  0  0
  -17.5077  -31.6256   24.5151 H   0  0  0  0  0  0
  -15.5391  -30.2938   23.7743 H   0  0  0  0  0  0
  -15.8721  -28.0806   22.7085 H   0  0  0  0  0  0
  -24.5889  -30.7116   25.7643 H   0  0  0  0  0  0
  -24.8847  -32.2988   26.4632 H   0  0  0  0  0  0
  -25.7894  -30.9037   27.0220 H   0  0  0  0  0  0
  -26.3190  -29.6501   24.1528 H   0  0  0  0  0  0
  -27.3979  -29.7297   25.5228 H   0  0  0  0  0  0
  -27.9150  -30.4026   23.9985 H   0  0  0  0  0  0
  -27.2609  -33.3744   26.1881 H   0  0  0  0  0  0
  -28.3930  -32.6820   25.0361 H   0  0  0  0  0  0
  -28.0633  -31.8632   26.5566 H   0  0  0  0  0  0
  -28.2556  -38.0061   24.7507 H   0  0  0  0  0  0
  -28.1078  -36.2579   24.6305 H   0  0  0  0  0  0
  -27.2282  -37.1388   25.8880 H   0  0  0  0  0  0
  -20.9627  -29.8748   21.6637 H   0  0  0  0  0  0
  -26.0107  -38.2733   24.1447 H   0  0  0  0  0  0
  -29.4293  -23.6425   22.3484 H   0  0  0  0  0  0
  -29.9350  -19.2231   24.0089 H   0  0  0  0  0  0
  -31.3020  -18.8746   22.9409 H   0  0  0  0  0  0
  -29.7235  -18.1120   22.7206 H   0  0  0  0  0  0
  -28.9270  -21.1071   25.1655 H   0  0  0  0  0  0
  -28.8582  -22.8322   24.8292 H   0  0  0  0  0  0
  -30.0068  -22.2079   26.0082 H   0  0  0  0  0  0
  -32.2685  -22.9137   23.0798 H   0  0  0  0  0  0
  -32.1344  -23.0672   24.8260 H   0  0  0  0  0  0
  -31.0504  -23.9736   23.7893 H   0  0  0  0  0  0
  -25.7384  -24.4961   20.7154 H   0  0  0  0  0  0
  -26.1642  -22.8144   20.7833 H   0  0  0  0  0  0
  -26.7211  -23.9038   22.0360 H   0  0  0  0  0  0
  -28.6562  -18.1686   20.7127 H   0  0  0  0  0  0
  -30.5798  -18.3107   20.5122 H   0  0  0  0  0  0
  -31.2183  -20.9870   24.2133 H   0  0  0  0  0  0
  -27.6485  -23.9097   19.1269 H   0  0  0  0  0  0
  -28.6673  -16.3590   20.8194 H   0  0  0  0  0  0
  1 25  1  0  0  0
  1 30  2  0  0  0
  1 84  1  0  0  0
  2  3  1  0  0  0
  2 25  1  0  0  0
  2 85  1  0  0  0
  2 86  1  0  0  0
  3  4  1  0  0  0
  3 87  1  0  0  0
  3 88  1  0  0  0
  4  5  1  0  0  0
  4 89  1  0  0  0
  4 90  1  0  0  0
  5  6  1  0  0  0
  5 26  1  0  0  0
  5 91  1  0  0  0
  6 25  1  0  0  0
  6 92  1  0  0  0
  6 93  1  0  0  0
  7  8  2  0  0  0
  7 26  1  0  0  0
  7 29  1  0  0  0
  8  9  1  0  0  0
  8 22  1  0  0  0
  9 10  1  0  0  0
  9 27  2  0  0  0
 10 11  2  0  0  0
 10 15  1  0  0  0
 11 12  1  0  0  0
 11 94  1  0  0  0
 12 13  2  0  0  0
 12 95  1  0  0  0
 13 14  1  0  0  0
 13 31  1  0  0  0
 14 15  2  0  0  0
 14 96  1  0  0  0
 15 97  1  0  0  0
 16 17  2  0  0  0
 16 21  1  0  0  0
 16 31  1  0  0  0
 17 18  1  0  0  0
 17 98  1  0  0  0
 18 19  2  0  0  0
 18 99  1  0  0  0
 19 20  1  0  0  0
 19 24  1  0  0  0
 20 21  2  0  0  0
 20100  1  0  0  0
 21 23  1  0  0  0
 22 28  1  0  0  0
 22 32  2  0  0  0
 26 27  1  0  0  0
 28101  1  0  0  0
 28102  1  0  0  0
 29103  1  0  0  0
 29104  1  0  0  0
 33 34  1  0  0  0
 33 66  1  0  0  0
 33 70  2  0  0  0
 34 36  1  0  0  0
 34 59  1  0  0  0
 34105  1  0  0  0
 35 44  2  0  0  0
 35 45  1  0  0  0
 35 68  1  0  0  0
 36 56  1  0  0  0
 36106  1  0  0  0
 37 39  1  0  0  0
 37 47  1  0  0  0
 37 66  1  0  0  0
 37107  1  0  0  0
 38 43  2  0  0  0
 38 46  1  0  0  0
 38 47  1  0  0  0
 39 64  1  0  0  0
 39 67  2  0  0  0
 40 52  1  0  0  0
 40 53  2  0  0  0
 40 58  1  0  0  0
 41108  1  0  0  0
 41109  1  0  0  0
 41110  1  0  0  0
 41 48  1  0  0  0
 42 43  1  0  0  0
 42 66  1  0  0  0
 42111  1  0  0  0
 42112  1  0  0  0
 43 44  1  0  0  0
 44113  1  0  0  0
 45 46  2  0  0  0
 45114  1  0  0  0
 46115  1  0  0  0
 47116  1  0  0  0
 47117  1  0  0  0
 48 56  1  0  0  0
 48 65  1  0  0  0
 48118  1  0  0  0
 49 50  1  0  0  0
 49 53  1  0  0  0
 49 64  1  0  0  0
 49119  1  0  0  0
 50 51  1  0  0  0
 50120  1  0  0  0
 50121  1  0  0  0
 51 52  1  0  0  0
 51122  1  0  0  0
 51123  1  0  0  0
 52124  1  0  0  0
 52125  1  0  0  0
 53 54  1  0  0  0
 54 55  2  0  0  0
 54126  1  0  0  0
 55 57  1  0  0  0
 55127  1  0  0  0
 56 69  2  0  0  0
 57 58  2  0  0  0
 57128  1  0  0  0
 58129  1  0  0  0
 59 60  1  0  0  0
 59 61  1  0  0  0
 59 62  1  0  0  0
 60130  1  0  0  0
 60131  1  0  0  0
 60132  1  0  0  0
 61133  1  0  0  0
 61134  1  0  0  0
 61135  1  0  0  0
 62136  1  0  0  0
 62137  1  0  0  0
 62138  1  0  0  0
 63 65  1  0  0  0
 63139  1  0  0  0
 63140  1  0  0  0
 63141  1  0  0  0
 64142  1  0  0  0
 65143  1  0  0  0
 68 82  1  0  0  0
 71 72  2  0  0  0
 71 74  1  0  0  0
 71144  1  0  0  0
 72 73  1  0  0  0
 72 81  1  0  0  0
 73 75  2  0  0  0
 73 76  1  0  0  0
 74 82  1  0  0  0
 74 83  2  0  0  0
 75 80  1  0  0  0
 75 83  1  0  0  0
 76145  1  0  0  0
 76146  1  0  0  0
 76147  1  0  0  0
 77148  1  0  0  0
 77149  1  0  0  0
 77150  1  0  0  0
 77 81  1  0  0  0
 78 81  1  0  0  0
 78151  1  0  0  0
 78152  1  0  0  0
 78153  1  0  0  0
 79154  1  0  0  0
 79155  1  0  0  0
 79156  1  0  0  0
 79 82  1  0  0  0
 80 84  1  0  0  0
 80157  1  0  0  0
 80158  1  0  0  0
 81159  1  0  0  0
 82160  1  0  0  0
 84161  1  0  0  0
M  ISO  4   1 100  68 101  82 101  84 100
M  END
> <chiral flag>
0

> <version>
0

> <s_m_source_file>
/data/baiqing/PycharmProjects/Reinvent-master-3.2/result/LINK_invent/BTK/process_docking_weight1_custom_sum_contain_oxygen_bond_distance_aromatic_linkinvent_7_9_3/rearranged_h_0104.sdf

> <i_m_source_file_index>
6

> <r_mmod_Potential_Energy-OPLS-2005>
1438.86181640625

> <r_mmod_Stretch_Energy-OPLS-2005>
694.785095214844

> <r_mmod_Bend_Energy-OPLS-2005>
662.304016113281

> <r_mmod_Torsional_Energy-OPLS-2005>
220.38313293457

> <r_mmod_Improper_Torsional_Energy-OPLS-2005>
6.54617500305176

> <r_mmod_Van_der_Waal_Energy-OPLS-2005>
140.849380493164

> <r_mmod_Electrostatic_Energy-OPLS-2005>
-624.560791015625

> <r_mmod_Solvation_Energy-OPLS-2005>
-231.112243652344

> <b_mmod_Minimization_Converged-OPLS-2005>
0

> <r_mmod_RMS_Derivative-OPLS-2005>
2.68474912643433

$$$$
6
                    3D
 Structure written by MMmdl.
161168  0  0  1  0            999 V2000
  -30.4791  -14.9948   20.3717 C   0  0  0  0  0  0
  -30.4437  -12.6200   19.4575 C   0  0  0  0  0  0
  -29.5110  -12.5282   18.2274 C   0  0  0  0  0  0
  -28.0443  -12.3215   18.6572 C   0  0  0  0  0  0
  -27.6245  -13.2428   19.8294 C   0  0  2  0  0  0
  -28.6785  -13.2718   20.9511 C   0  0  0  0  0  0
  -25.2461  -13.8172   20.5707 C   0  0  0  0  0  0
  -24.1775  -13.0415   20.9201 C   0  0  0  0  0  0
  -24.6386  -11.6900   20.8738 C   0  0  0  0  0  0
  -23.9063  -10.4274   21.0390 C   0  0  0  0  0  0
  -24.3619   -9.4189   21.9175 C   0  0  0  0  0  0
  -23.6277   -8.2233   22.0769 C   0  0  0  0  0  0
  -22.4267   -8.0264   21.3558 C   0  0  0  0  0  0
  -21.9890   -9.0232   20.4657 C   0  0  0  0  0  0
  -22.7220  -10.2104   20.3052 C   0  0  0  0  0  0
  -21.6860   -6.0704   22.5258 C   0  0  0  0  0  0
  -21.4014   -6.5626   23.8181 C   0  0  0  0  0  0
  -21.3658   -5.6796   24.9146 C   0  0  0  0  0  0
  -21.6045   -4.3048   24.7212 C   0  0  0  0  0  0
  -21.8827   -3.8128   23.4339 C   0  0  0  0  0  0
  -21.9197   -4.6938   22.3388 C   0  0  0  0  0  0
  -22.7800  -13.5199   21.1851 C   0  0  0  0  0  0
  -22.1672   -4.2120   21.0969 F   0  0  0  0  0  0
  -21.5631   -3.4552   25.7728 F   0  0  0  0  0  0
  -29.9296  -13.7152   20.3220 N   0  0  0  0  0  0
  -26.2876  -12.9401   20.3230 N   0  0  0  0  0  0
  -25.9321  -11.6541   20.5717 N   0  0  0  0  0  0
  -22.0466  -12.8184   22.0416 N   0  0  0  0  0  0
  -25.4115  -15.1908   20.4143 N   0  0  0  0  0  0
  -31.7078  -15.0890   20.2690 O   0  0  0  0  0  0
  -21.6647   -6.8851   21.4226 O   0  0  0  0  0  0
  -22.3484  -14.5507   20.6700 O   0  0  0  0  0  0
  -24.6449  -31.8426   23.1906 C   0  0  0  0  0  0
  -25.9231  -32.4698   23.8273 C   0  0  1  0  0  0
  -27.1863  -27.0994   20.1524 C   0  0  0  0  0  0
  -25.5969  -33.8514   24.2169 N   0  0  0  0  0  0
  -23.4487  -30.4673   21.5373 C   0  0  2  0  0  0
  -24.8896  -28.8882   20.1071 C   0  0  0  0  0  0
  -22.7570  -29.4542   22.4839 C   0  0  0  0  0  0
  -18.0295  -28.1398   22.8470 C   0  0  0  0  0  0
  -24.1475  -36.7234   23.2656 C   0  0  0  0  0  0
  -26.0063  -30.6975   21.3975 C   0  0  0  0  0  0
  -26.0665  -29.3043   20.7442 C   0  0  0  0  0  0
  -27.2135  -28.4250   20.7542 C   0  0  0  0  0  0
  -25.9950  -26.7886   19.4712 C   0  0  0  0  0  0
  -24.8719  -27.6467   19.4499 C   0  0  0  0  0  0
  -23.6783  -29.8073   20.1511 C   0  0  0  0  0  0
  -25.4113  -36.3020   24.0304 C   0  0  1  0  0  0
  -20.5908  -28.3750   23.1224 C   0  0  2  0  0  0
  -20.6804  -26.9466   22.5412 C   0  0  0  0  0  0
  -19.5793  -26.6387   21.5228 C   0  0  0  0  0  0
  -18.1939  -26.7953   22.1575 C   0  0  0  0  0  0
  -19.1539  -28.8886   23.2838 C   0  0  0  0  0  0
  -18.9487  -30.1477   23.8875 C   0  0  0  0  0  0
  -17.6499  -30.6601   24.0579 C   0  0  0  0  0  0
  -25.9097  -34.9411   23.5039 C   0  0  0  0  0  0
  -16.5370  -29.9121   23.6345 C   0  0  0  0  0  0
  -16.7273  -28.6533   23.0361 C   0  0  0  0  0  0
  -26.4510  -31.6580   25.0737 C   0  0  0  0  0  0
  -25.3676  -31.3821   26.1432 C   0  0  0  0  0  0
  -27.0380  -30.2968   24.6340 C   0  0  0  0  0  0
  -27.6041  -32.4365   25.7520 C   0  0  0  0  0  0
  -27.5564  -37.1789   24.8463 C   0  0  0  0  0  0
  -21.4253  -29.3047   22.3585 N   0  0  0  0  0  0
  -26.4240  -37.3766   23.9439 N   0  0  0  0  0  0
  -24.7221  -31.0248   22.0982 N   0  0  0  0  0  0
  -23.4201  -28.8084   23.3007 O   0  0  0  0  0  0
  -28.2537  -26.1249   20.1068 O   0  0  0  0  0  0
  -26.5682  -34.8929   22.4620 O   0  0  0  0  0  0
  -23.5539  -32.1315   23.7063 O   0  0  0  0  0  0
  -28.6935  -23.5257   19.9683 C   0  0  0  0  0  0
  -27.6481  -21.8165   21.6257 C   0  0  0  0  0  0
  -30.0061  -18.5551   18.4058 C   0  0  0  0  0  0
  -31.1652  -19.6023   20.3307 C   0  0  0  0  0  0
  -30.4657  -23.0055   18.2368 C   0  0  0  0  0  0
  -28.8379  -20.5069   19.7190 C   0  0  0  0  0  0
  -29.5201  -17.6625   20.7314 C   0  0  0  0  0  0
  -28.7809  -21.9752   20.5995 C   0  0  1  0  0  0
  -29.8042  -19.0813   19.8459 C   0  0  0  0  0  0
  -27.9968  -24.6807   20.4799 N   0  0  0  0  0  0
  -29.6113  -16.1288   20.2939 N   0  0  0  0  0  0
  -29.4491  -23.8343   18.8933 N   0  3  0  0  0  0
  -31.4703  -12.8130   19.1411 H   0  0  0  0  0  0
  -30.4607  -11.6735   19.9992 H   0  0  0  0  0  0
  -29.8269  -11.7138   17.5744 H   0  0  0  0  0  0
  -29.5906  -13.4392   17.6309 H   0  0  0  0  0  0
  -27.9349  -11.2787   18.9489 H   0  0  0  0  0  0
  -27.3764  -12.4658   17.8067 H   0  0  0  0  0  0
  -27.5766  -14.2447   19.4047 H   0  0  0  0  0  0
  -28.7895  -12.2912   21.4159 H   0  0  0  0  0  0
  -28.3807  -13.9610   21.7427 H   0  0  0  0  0  0
  -25.2759   -9.5671   22.4751 H   0  0  0  0  0  0
  -23.9974   -7.4638   22.7522 H   0  0  0  0  0  0
  -21.0815   -8.8726   19.8973 H   0  0  0  0  0  0
  -22.3655  -10.9637   19.6160 H   0  0  0  0  0  0
  -21.2015   -7.6139   23.9661 H   0  0  0  0  0  0
  -21.1475   -6.0534   25.9044 H   0  0  0  0  0  0
  -22.0614   -2.7592   23.2843 H   0  0  0  0  0  0
  -22.4109  -11.9833   22.4768 H   0  0  0  0  0  0
  -21.1094  -13.1191   22.2668 H   0  0  0  0  0  0
  -24.6395  -15.8376   20.5271 H   0  0  0  0  0  0
  -26.2540  -15.6359   20.0779 H   0  0  0  0  0  0
  -26.7299  -32.5264   23.0985 H   0  0  0  0  0  0
  -25.0134  -33.9638   25.0321 H   0  0  0  0  0  0
  -22.7530  -31.2946   21.3849 H   0  0  0  0  0  0
  -23.3757  -35.9559   23.3279 H   0  0  0  0  0  0
  -24.3565  -36.8912   22.2086 H   0  0  0  0  0  0
  -23.7209  -37.6415   23.6705 H   0  0  0  0  0  0
  -26.1772  -31.4433   20.6185 H   0  0  0  0  0  0
  -26.8725  -30.7403   22.0449 H   0  0  0  0  0  0
  -28.1164  -28.7439   21.2549 H   0  0  0  0  0  0
  -25.9174  -25.8470   18.9467 H   0  0  0  0  0  0
  -23.9878  -27.3370   18.9114 H   0  0  0  0  0  0
  -23.8448  -30.5930   19.4101 H   0  0  0  0  0  0
  -22.7841  -29.2812   19.8182 H   0  0  0  0  0  0
  -25.1300  -36.1826   25.0791 H   0  0  0  0  0  0
  -20.9964  -28.3319   24.1336 H   0  0  0  0  0  0
  -20.5699  -26.2344   23.3605 H   0  0  0  0  0  0
  -21.6654  -26.7496   22.1213 H   0  0  0  0  0  0
  -19.7000  -25.6300   21.1245 H   0  0  0  0  0  0
  -19.6747  -27.3166   20.6728 H   0  0  0  0  0  0
  -17.4243  -26.6675   21.3962 H   0  0  0  0  0  0
  -18.0346  -26.0086   22.8956 H   0  0  0  0  0  0
  -19.7987  -30.7286   24.2198 H   0  0  0  0  0  0
  -17.5083  -31.6280   24.5214 H   0  0  0  0  0  0
  -15.5392  -30.3046   23.7720 H   0  0  0  0  0  0
  -15.8630  -28.0875   22.7098 H   0  0  0  0  0  0
  -24.5914  -30.7051   25.7804 H   0  0  0  0  0  0
  -24.8775  -32.3012   26.4658 H   0  0  0  0  0  0
  -25.7935  -30.9197   27.0331 H   0  0  0  0  0  0
  -26.3001  -29.6703   24.1298 H   0  0  0  0  0  0
  -27.3948  -29.7247   25.4917 H   0  0  0  0  0  0
  -27.8919  -30.4210   23.9675 H   0  0  0  0  0  0
  -27.2641  -33.3718   26.1941 H   0  0  0  0  0  0
  -28.3900  -32.6821   25.0375 H   0  0  0  0  0  0
  -28.0614  -31.8602   26.5554 H   0  0  0  0  0  0
  -28.2546  -38.0131   24.7557 H   0  0  0  0  0  0
  -28.1069  -36.2656   24.6156 H   0  0  0  0  0  0
  -27.2301  -37.1312   25.8875 H   0  0  0  0  0  0
  -20.9413  -29.8779   21.6805 H   0  0  0  0  0  0
  -26.0073  -38.2801   24.1508 H   0  0  0  0  0  0
  -27.6566  -22.5868   22.3975 H   0  0  0  0  0  0
  -27.7254  -20.8505   22.1299 H   0  0  0  0  0  0
  -26.6792  -21.8360   21.1252 H   0  0  0  0  0  0
  -30.3253  -19.3349   17.7099 H   0  0  0  0  0  0
  -29.0953  -18.1089   18.0033 H   0  0  0  0  0  0
  -30.7787  -17.7842   18.3728 H   0  0  0  0  0  0
  -31.5706  -20.3649   19.6648 H   0  0  0  0  0  0
  -31.9018  -18.8010   20.3946 H   0  0  0  0  0  0
  -31.0767  -20.0489   21.3215 H   0  0  0  0  0  0
  -30.0197  -22.2998   17.5390 H   0  0  0  0  0  0
  -31.0502  -22.4696   18.9836 H   0  0  0  0  0  0
  -31.1508  -23.6272   17.6626 H   0  0  0  0  0  0
  -29.0452  -20.8545   18.7132 H   0  0  0  0  0  0
  -27.8051  -20.1766   19.5926 H   0  0  0  0  0  0
  -28.4912  -17.7602   21.0763 H   0  0  0  0  0  0
  -30.1058  -17.7240   21.6474 H   0  0  0  0  0  0
  -29.7114  -21.9918   21.1668 H   0  0  0  0  0  0
  -27.3805  -24.5784   21.2774 H   0  0  0  0  0  0
  -28.6879  -15.7895   20.0728 H   0  0  0  0  0  0
  -29.3201  -24.7604   18.5052 H   0  0  0  0  0  0
  1 25  1  0  0  0
  1 30  2  0  0  0
  1 81  1  0  0  0
  2  3  1  0  0  0
  2 25  1  0  0  0
  2 83  1  0  0  0
  2 84  1  0  0  0
  3  4  1  0  0  0
  3 85  1  0  0  0
  3 86  1  0  0  0
  4  5  1  0  0  0
  4 87  1  0  0  0
  4 88  1  0  0  0
  5  6  1  0  0  0
  5 26  1  0  0  0
  5 89  1  0  0  0
  6 25  1  0  0  0
  6 90  1  0  0  0
  6 91  1  0  0  0
  7  8  2  0  0  0
  7 26  1  0  0  0
  7 29  1  0  0  0
  8  9  1  0  0  0
  8 22  1  0  0  0
  9 10  1  0  0  0
  9 27  2  0  0  0
 10 11  2  0  0  0
 10 15  1  0  0  0
 11 12  1  0  0  0
 11 92  1  0  0  0
 12 13  2  0  0  0
 12 93  1  0  0  0
 13 14  1  0  0  0
 13 31  1  0  0  0
 14 15  2  0  0  0
 14 94  1  0  0  0
 15 95  1  0  0  0
 16 17  2  0  0  0
 16 21  1  0  0  0
 16 31  1  0  0  0
 17 18  1  0  0  0
 17 96  1  0  0  0
 18 19  2  0  0  0
 18 97  1  0  0  0
 19 20  1  0  0  0
 19 24  1  0  0  0
 20 21  2  0  0  0
 20 98  1  0  0  0
 21 23  1  0  0  0
 22 28  1  0  0  0
 22 32  2  0  0  0
 26 27  1  0  0  0
 28 99  1  0  0  0
 28100  1  0  0  0
 29101  1  0  0  0
 29102  1  0  0  0
 33 34  1  0  0  0
 33 66  1  0  0  0
 33 70  2  0  0  0
 34 36  1  0  0  0
 34 59  1  0  0  0
 34103  1  0  0  0
 35 44  2  0  0  0
 35 45  1  0  0  0
 35 68  1  0  0  0
 36 56  1  0  0  0
 36104  1  0  0  0
 37 39  1  0  0  0
 37 47  1  0  0  0
 37 66  1  0  0  0
 37105  1  0  0  0
 38 43  2  0  0  0
 38 46  1  0  0  0
 38 47  1  0  0  0
 39 64  1  0  0  0
 39 67  2  0  0  0
 40 52  1  0  0  0
 40 53  2  0  0  0
 40 58  1  0  0  0
 41106  1  0  0  0
 41107  1  0  0  0
 41108  1  0  0  0
 41 48  1  0  0  0
 42 43  1  0  0  0
 42 66  1  0  0  0
 42109  1  0  0  0
 42110  1  0  0  0
 43 44  1  0  0  0
 44111  1  0  0  0
 45 46  2  0  0  0
 45112  1  0  0  0
 46113  1  0  0  0
 47114  1  0  0  0
 47115  1  0  0  0
 48 56  1  0  0  0
 48 65  1  0  0  0
 48116  1  0  0  0
 49 50  1  0  0  0
 49 53  1  0  0  0
 49 64  1  0  0  0
 49117  1  0  0  0
 50 51  1  0  0  0
 50118  1  0  0  0
 50119  1  0  0  0
 51 52  1  0  0  0
 51120  1  0  0  0
 51121  1  0  0  0
 52122  1  0  0  0
 52123  1  0  0  0
 53 54  1  0  0  0
 54 55  2  0  0  0
 54124  1  0  0  0
 55 57  1  0  0  0
 55125  1  0  0  0
 56 69  2  0  0  0
 57 58  2  0  0  0
 57126  1  0  0  0
 58127  1  0  0  0
 59 60  1  0  0  0
 59 61  1  0  0  0
 59 62  1  0  0  0
 60128  1  0  0  0
 60129  1  0  0  0
 60130  1  0  0  0
 61131  1  0  0  0
 61132  1  0  0  0
 61133  1  0  0  0
 62134  1  0  0  0
 62135  1  0  0  0
 62136  1  0  0  0
 63 65  1  0  0  0
 63137  1  0  0  0
 63138  1  0  0  0
 63139  1  0  0  0
 64140  1  0  0  0
 65141  1  0  0  0
 68 80  1  0  0  0
 71 78  1  0  0  0
 71 80  1  0  0  0
 71 82  2  0  0  0
 72142  1  0  0  0
 72143  1  0  0  0
 72144  1  0  0  0
 72 78  1  0  0  0
 73145  1  0  0  0
 73146  1  0  0  0
 73147  1  0  0  0
 73 79  1  0  0  0
 74 79  1  0  0  0
 74148  1  0  0  0
 74149  1  0  0  0
 74150  1  0  0  0
 75 82  1  0  0  0
 75151  1  0  0  0
 75152  1  0  0  0
 75153  1  0  0  0
 76 78  1  0  0  0
 76 79  1  0  0  0
 76154  1  0  0  0
 76155  1  0  0  0
 77 79  1  0  0  0
 77 81  1  0  0  0
 77156  1  0  0  0
 77157  1  0  0  0
 78158  1  0  0  0
 80159  1  0  0  0
 81160  1  0  0  0
 82161  1  0  0  0
M  CHG  1  82   1
M  ISO  4   1 100  68 101  80 101  81 100
M  END
> <chiral flag>
0

> <version>
0

> <s_m_source_file>
/data/baiqing/PycharmProjects/Reinvent-master-3.2/result/LINK_invent/BTK/process_docking_weight1_custom_sum_contain_oxygen_bond_distance_aromatic_linkinvent_7_9_3/rearranged_h_0104.sdf

> <i_m_source_file_index>
7

> <r_mmod_Potential_Energy-OPLS-2005>
593.182189941406

> <r_mmod_Stretch_Energy-OPLS-2005>
322.119415283203

> <r_mmod_Bend_Energy-OPLS-2005>
346.997131347656

> <r_mmod_Torsional_Energy-OPLS-2005>
258.451293945312

> <r_mmod_Improper_Torsional_Energy-OPLS-2005>
7.48685741424561

> <r_mmod_Van_der_Waal_Energy-OPLS-2005>
111.91088104248

> <r_mmod_Electrostatic_Energy-OPLS-2005>
-268.243377685547

> <r_mmod_Solvation_Energy-OPLS-2005>
-413.927215576172

> <b_mmod_Minimization_Converged-OPLS-2005>
0

> <r_mmod_RMS_Derivative-OPLS-2005>
5.56279325485229

$$$$
7
                    3D
 Structure written by MMmdl.
166174  0  0  1  0            999 V2000
  -30.5935  -14.7239   20.4760 C   0  0  0  0  0  0
  -30.4394  -12.4462   19.4478 C   0  0  0  0  0  0
  -29.5039  -12.4978   18.2187 C   0  0  0  0  0  0
  -28.0300  -12.3241   18.6387 C   0  0  0  0  0  0
  -27.6418  -13.2173   19.8467 C   0  0  2  0  0  0
  -28.6920  -13.1222   20.9732 C   0  0  0  0  0  0
  -25.2511  -13.8140   20.5645 C   0  0  0  0  0  0
  -24.1803  -13.0416   20.9195 C   0  0  0  0  0  0
  -24.6375  -11.6880   20.8755 C   0  0  0  0  0  0
  -23.9044  -10.4269   21.0416 C   0  0  0  0  0  0
  -24.3596   -9.4188   21.9195 C   0  0  0  0  0  0
  -23.6276   -8.2230   22.0766 C   0  0  0  0  0  0
  -22.4260   -8.0262   21.3552 C   0  0  0  0  0  0
  -21.9890   -9.0234   20.4657 C   0  0  0  0  0  0
  -22.7212  -10.2111   20.3066 C   0  0  0  0  0  0
  -21.6854   -6.0716   22.5269 C   0  0  0  0  0  0
  -21.4010   -6.5627   23.8196 C   0  0  0  0  0  0
  -21.3656   -5.6794   24.9167 C   0  0  0  0  0  0
  -21.6049   -4.3052   24.7228 C   0  0  0  0  0  0
  -21.8823   -3.8131   23.4353 C   0  0  0  0  0  0
  -21.9189   -4.6939   22.3401 C   0  0  0  0  0  0
  -22.7827  -13.5219   21.1856 C   0  0  0  0  0  0
  -22.1660   -4.2118   21.0984 F   0  0  0  0  0  0
  -21.5633   -3.4541   25.7747 F   0  0  0  0  0  0
  -29.9887  -13.4903   20.3910 N   0  0  0  0  0  0
  -26.2932  -12.9327   20.3255 N   0  0  0  0  0  0
  -25.9295  -11.6484   20.5740 N   0  0  0  0  0  0
  -22.0471  -12.8225   22.0415 N   0  0  0  0  0  0
  -25.4209  -15.1857   20.3985 N   0  0  0  0  0  0
  -31.7857  -14.8593   20.1880 O   0  0  0  0  0  0
  -21.6645   -6.8854   21.4231 O   0  0  0  0  0  0
  -22.3522  -14.5528   20.6689 O   0  0  0  0  0  0
  -24.6345  -31.8535   23.2007 C   0  0  0  0  0  0
  -25.9172  -32.4741   23.8341 C   0  0  1  0  0  0
  -27.1970  -27.2232   20.1460 C   0  0  0  0  0  0
  -25.5978  -33.8561   24.2246 N   0  0  0  0  0  0
  -23.4313  -30.4782   21.5473 C   0  0  2  0  0  0
  -24.8725  -28.9220   20.1228 C   0  0  0  0  0  0
  -22.7498  -29.4586   22.4940 C   0  0  0  0  0  0
  -18.0271  -28.1364   22.8468 C   0  0  0  0  0  0
  -24.1513  -36.7252   23.2652 C   0  0  0  0  0  0
  -25.9828  -30.7455   21.3999 C   0  0  0  0  0  0
  -26.0448  -29.3651   20.7480 C   0  0  0  0  0  0
  -27.2069  -28.5254   20.7604 C   0  0  0  0  0  0
  -26.0332  -26.9035   19.4243 C   0  0  0  0  0  0
  -24.8703  -27.6934   19.4532 C   0  0  0  0  0  0
  -23.6497  -29.8142   20.1634 C   0  0  0  0  0  0
  -25.4153  -36.3072   24.0320 C   0  0  1  0  0  0
  -20.5878  -28.3678   23.1254 C   0  0  2  0  0  0
  -20.6792  -26.9395   22.5404 C   0  0  0  0  0  0
  -19.5774  -26.6353   21.5200 C   0  0  0  0  0  0
  -18.1934  -26.7916   22.1586 C   0  0  0  0  0  0
  -19.1527  -28.8839   23.2853 C   0  0  0  0  0  0
  -18.9465  -30.1452   23.8857 C   0  0  0  0  0  0
  -17.6472  -30.6578   24.0542 C   0  0  0  0  0  0
  -25.9077  -34.9443   23.5074 C   0  0  0  0  0  0
  -16.5352  -29.9071   23.6346 C   0  0  0  0  0  0
  -16.7262  -28.6482   23.0360 C   0  0  0  0  0  0
  -26.4518  -31.6599   25.0769 C   0  0  0  0  0  0
  -25.3721  -31.3791   26.1482 C   0  0  0  0  0  0
  -27.0407  -30.3012   24.6350 C   0  0  0  0  0  0
  -27.6067  -32.4393   25.7519 C   0  0  0  0  0  0
  -27.5589  -37.1802   24.8478 C   0  0  0  0  0  0
  -21.4207  -29.3037   22.3653 N   0  0  0  0  0  0
  -26.4314  -37.3782   23.9404 N   0  0  0  0  0  0
  -24.7002  -31.0498   22.1002 N   0  0  0  0  0  0
  -23.4162  -28.8128   23.3057 O   0  0  0  0  0  0
  -28.2917  -26.3236   20.1174 O   0  0  0  0  0  0
  -26.5658  -34.8913   22.4651 O   0  0  0  0  0  0
  -23.5493  -32.1338   23.7308 O   0  0  0  0  0  0
  -27.2308  -21.0565   20.9071 C   0  0  0  0  0  0
  -28.1707  -21.9920   20.3437 C   0  0  0  0  0  0
  -27.6661  -19.7615   20.8557 C   0  0  0  0  0  0
  -29.2956  -21.1492   20.1935 C   0  0  0  0  0  0
  -26.8855  -18.5143   21.1456 C   0  0  0  0  0  0
  -30.6994  -21.4996   19.8126 C   0  0  0  0  0  0
  -29.3629  -23.9044   17.8688 C   0  0  0  0  0  0
  -26.2088  -23.5416   20.1451 C   0  0  0  0  0  0
  -27.9312  -23.7243   18.3833 C   0  0  0  0  0  0
  -29.7324  -18.4778   20.0000 C   0  0  0  0  0  0
  -30.0488  -17.2806   21.0450 C   0  0  0  0  0  0
  -28.2892  -24.8920   20.6605 C   0  0  0  0  0  0
  -27.7456  -23.5305   19.9134 C   0  0  2  0  0  0
  -28.9679  -19.7570   20.3896 N   0  0  0  0  0  0
  -29.7721  -15.8118   20.7068 N   0  0  0  0  0  0
  -31.4752  -12.5923   19.1385 H   0  0  0  0  0  0
  -30.4015  -11.4638   19.9214 H   0  0  0  0  0  0
  -29.7802  -11.7236   17.5019 H   0  0  0  0  0  0
  -29.6255  -13.4501   17.7014 H   0  0  0  0  0  0
  -27.8835  -11.2743   18.8947 H   0  0  0  0  0  0
  -27.3699  -12.5193   17.7936 H   0  0  0  0  0  0
  -27.6424  -14.2406   19.4740 H   0  0  0  0  0  0
  -28.7312  -12.1074   21.3729 H   0  0  0  0  0  0
  -28.4297  -13.7690   21.8111 H   0  0  0  0  0  0
  -25.2739   -9.5673   22.4767 H   0  0  0  0  0  0
  -23.9974   -7.4632   22.7495 H   0  0  0  0  0  0
  -21.0811   -8.8748   19.8975 H   0  0  0  0  0  0
  -22.3660  -10.9652   19.6176 H   0  0  0  0  0  0
  -21.2004   -7.6137   23.9685 H   0  0  0  0  0  0
  -21.1477   -6.0533   25.9070 H   0  0  0  0  0  0
  -22.0606   -2.7586   23.2869 H   0  0  0  0  0  0
  -22.4077  -11.9880   22.4800 H   0  0  0  0  0  0
  -21.1101  -13.1270   22.2642 H   0  0  0  0  0  0
  -24.6394  -15.8270   20.4780 H   0  0  0  0  0  0
  -26.2375  -15.6049   19.9754 H   0  0  0  0  0  0
  -26.7222  -32.5305   23.1043 H   0  0  0  0  0  0
  -25.0251  -33.9757   25.0478 H   0  0  0  0  0  0
  -22.7328  -31.3049   21.3991 H   0  0  0  0  0  0
  -23.3803  -35.9554   23.3325 H   0  0  0  0  0  0
  -24.3593  -36.8867   22.2066 H   0  0  0  0  0  0
  -23.7238  -37.6450   23.6648 H   0  0  0  0  0  0
  -26.1530  -31.4976   20.6282 H   0  0  0  0  0  0
  -26.8550  -30.7721   22.0437 H   0  0  0  0  0  0
  -28.1038  -28.8582   21.2661 H   0  0  0  0  0  0
  -26.0130  -26.0460   18.7826 H   0  0  0  0  0  0
  -23.9899  -27.3652   18.9209 H   0  0  0  0  0  0
  -23.7871  -30.5917   19.4105 H   0  0  0  0  0  0
  -22.7646  -29.2584   19.8496 H   0  0  0  0  0  0
  -25.1339  -36.1906   25.0810 H   0  0  0  0  0  0
  -20.9934  -28.3237   24.1384 H   0  0  0  0  0  0
  -20.5686  -26.2281   23.3603 H   0  0  0  0  0  0
  -21.6662  -26.7441   22.1184 H   0  0  0  0  0  0
  -19.6958  -25.6250   21.1244 H   0  0  0  0  0  0
  -19.6729  -27.3156   20.6716 H   0  0  0  0  0  0
  -17.4232  -26.6650   21.3970 H   0  0  0  0  0  0
  -18.0321  -26.0047   22.8961 H   0  0  0  0  0  0
  -19.7961  -30.7269   24.2189 H   0  0  0  0  0  0
  -17.5047  -31.6251   24.5158 H   0  0  0  0  0  0
  -15.5363  -30.2983   23.7718 H   0  0  0  0  0  0
  -15.8641  -28.0813   22.7112 H   0  0  0  0  0  0
  -24.5866  -30.7162   25.7812 H   0  0  0  0  0  0
  -24.8951  -32.2999   26.4864 H   0  0  0  0  0  0
  -25.8008  -30.8980   27.0286 H   0  0  0  0  0  0
  -26.3036  -29.6722   24.1352 H   0  0  0  0  0  0
  -27.4051  -29.7300   25.4904 H   0  0  0  0  0  0
  -27.8901  -30.4286   23.9636 H   0  0  0  0  0  0
  -27.2638  -33.3713   26.2014 H   0  0  0  0  0  0
  -28.3866  -32.6949   25.0329 H   0  0  0  0  0  0
  -28.0725  -31.8596   26.5497 H   0  0  0  0  0  0
  -28.2634  -38.0083   24.7550 H   0  0  0  0  0  0
  -28.1057  -36.2633   24.6257 H   0  0  0  0  0  0
  -27.2316  -37.1393   25.8886 H   0  0  0  0  0  0
  -20.9397  -29.8740   21.6844 H   0  0  0  0  0  0
  -26.0176  -38.2848   24.1405 H   0  0  0  0  0  0
  -26.2169  -21.2678   21.2160 H   0  0  0  0  0  0
  -25.8460  -18.7525   21.3733 H   0  0  0  0  0  0
  -27.2776  -17.9650   22.0015 H   0  0  0  0  0  0
  -26.8698  -17.8501   20.2825 H   0  0  0  0  0  0
  -30.8746  -22.5743   19.8913 H   0  0  0  0  0  0
  -30.9346  -21.1802   18.7989 H   0  0  0  0  0  0
  -31.4084  -21.0145   20.4853 H   0  0  0  0  0  0
  -29.3516  -24.2648   16.8418 H   0  0  0  0  0  0
  -29.8985  -22.9634   17.8532 H   0  0  0  0  0  0
  -29.9272  -24.6260   18.4587 H   0  0  0  0  0  0
  -25.7120  -22.7544   19.5751 H   0  0  0  0  0  0
  -25.6977  -24.4428   19.8712 H   0  0  0  0  0  0
  -25.9613  -23.4029   21.1976 H   0  0  0  0  0  0
  -27.4480  -22.9153   17.8380 H   0  0  0  0  0  0
  -27.3980  -24.6229   18.0843 H   0  0  0  0  0  0
  -29.1775  -18.0463   19.1678 H   0  0  0  0  0  0
  -30.6785  -18.7808   19.5519 H   0  0  0  0  0  0
  -29.4947  -17.4831   21.9608 H   0  0  0  0  0  0
  -31.0949  -17.3582   21.3460 H   0  0  0  0  0  0
  -29.3515  -24.7048   20.8166 H   0  0  0  0  0  0
  -27.8861  -24.9236   21.6718 H   0  0  0  0  0  0
  -28.8041  -15.5493   20.8110 H   0  0  0  0  0  0
  1 25  1  0  0  0
  1 30  2  0  0  0
  1 85  1  0  0  0
  2  3  1  0  0  0
  2 25  1  0  0  0
  2 86  1  0  0  0
  2 87  1  0  0  0
  3  4  1  0  0  0
  3 88  1  0  0  0
  3 89  1  0  0  0
  4  5  1  0  0  0
  4 90  1  0  0  0
  4 91  1  0  0  0
  5  6  1  0  0  0
  5 26  1  0  0  0
  5 92  1  0  0  0
  6 25  1  0  0  0
  6 93  1  0  0  0
  6 94  1  0  0  0
  7  8  2  0  0  0
  7 26  1  0  0  0
  7 29  1  0  0  0
  8  9  1  0  0  0
  8 22  1  0  0  0
  9 10  1  0  0  0
  9 27  2  0  0  0
 10 11  2  0  0  0
 10 15  1  0  0  0
 11 12  1  0  0  0
 11 95  1  0  0  0
 12 13  2  0  0  0
 12 96  1  0  0  0
 13 14  1  0  0  0
 13 31  1  0  0  0
 14 15  2  0  0  0
 14 97  1  0  0  0
 15 98  1  0  0  0
 16 17  2  0  0  0
 16 21  1  0  0  0
 16 31  1  0  0  0
 17 18  1  0  0  0
 17 99  1  0  0  0
 18 19  2  0  0  0
 18100  1  0  0  0
 19 20  1  0  0  0
 19 24  1  0  0  0
 20 21  2  0  0  0
 20101  1  0  0  0
 21 23  1  0  0  0
 22 28  1  0  0  0
 22 32  2  0  0  0
 26 27  1  0  0  0
 28102  1  0  0  0
 28103  1  0  0  0
 29104  1  0  0  0
 29105  1  0  0  0
 33 34  1  0  0  0
 33 66  1  0  0  0
 33 70  2  0  0  0
 34 36  1  0  0  0
 34 59  1  0  0  0
 34106  1  0  0  0
 35 44  2  0  0  0
 35 45  1  0  0  0
 35 68  1  0  0  0
 36 56  1  0  0  0
 36107  1  0  0  0
 37 39  1  0  0  0
 37 47  1  0  0  0
 37 66  1  0  0  0
 37108  1  0  0  0
 38 43  2  0  0  0
 38 46  1  0  0  0
 38 47  1  0  0  0
 39 64  1  0  0  0
 39 67  2  0  0  0
 40 52  1  0  0  0
 40 53  2  0  0  0
 40 58  1  0  0  0
 41109  1  0  0  0
 41110  1  0  0  0
 41111  1  0  0  0
 41 48  1  0  0  0
 42 43  1  0  0  0
 42 66  1  0  0  0
 42112  1  0  0  0
 42113  1  0  0  0
 43 44  1  0  0  0
 44114  1  0  0  0
 45 46  2  0  0  0
 45115  1  0  0  0
 46116  1  0  0  0
 47117  1  0  0  0
 47118  1  0  0  0
 48 56  1  0  0  0
 48 65  1  0  0  0
 48119  1  0  0  0
 49 50  1  0  0  0
 49 53  1  0  0  0
 49 64  1  0  0  0
 49120  1  0  0  0
 50 51  1  0  0  0
 50121  1  0  0  0
 50122  1  0  0  0
 51 52  1  0  0  0
 51123  1  0  0  0
 51124  1  0  0  0
 52125  1  0  0  0
 52126  1  0  0  0
 53 54  1  0  0  0
 54 55  2  0  0  0
 54127  1  0  0  0
 55 57  1  0  0  0
 55128  1  0  0  0
 56 69  2  0  0  0
 57 58  2  0  0  0
 57129  1  0  0  0
 58130  1  0  0  0
 59 60  1  0  0  0
 59 61  1  0  0  0
 59 62  1  0  0  0
 60131  1  0  0  0
 60132  1  0  0  0
 60133  1  0  0  0
 61134  1  0  0  0
 61135  1  0  0  0
 61136  1  0  0  0
 62137  1  0  0  0
 62138  1  0  0  0
 62139  1  0  0  0
 63 65  1  0  0  0
 63140  1  0  0  0
 63141  1  0  0  0
 63142  1  0  0  0
 64143  1  0  0  0
 65144  1  0  0  0
 68 82  1  0  0  0
 71 72  1  0  0  0
 71 73  2  0  0  0
 71145  1  0  0  0
 72 74  2  0  0  0
 72 83  1  0  0  0
 73 75  1  0  0  0
 73 84  1  0  0  0
 74 76  1  0  0  0
 74 84  1  0  0  0
 75146  1  0  0  0
 75147  1  0  0  0
 75148  1  0  0  0
 76149  1  0  0  0
 76150  1  0  0  0
 76151  1  0  0  0
 77 79  1  0  0  0
 77152  1  0  0  0
 77153  1  0  0  0
 77154  1  0  0  0
 78155  1  0  0  0
 78156  1  0  0  0
 78157  1  0  0  0
 78 83  1  0  0  0
 79 83  1  0  0  0
 79158  1  0  0  0
 79159  1  0  0  0
 80 81  1  0  0  0
 80 84  1  0  0  0
 80160  1  0  0  0
 80161  1  0  0  0
 81 85  1  0  0  0
 81162  1  0  0  0
 81163  1  0  0  0
 82 83  1  0  0  0
 82164  1  0  0  0
 82165  1  0  0  0
 85166  1  0  0  0
M  ISO  4   1 100  68 101  82 101  85 100
M  END
> <chiral flag>
0

> <version>
0

> <s_m_source_file>
/data/baiqing/PycharmProjects/Reinvent-master-3.2/result/LINK_invent/BTK/process_docking_weight1_custom_sum_contain_oxygen_bond_distance_aromatic_linkinvent_7_9_3/rearranged_h_0104.sdf

> <i_m_source_file_index>
8

> <r_mmod_Potential_Energy-OPLS-2005>
287.410125732422

> <r_mmod_Stretch_Energy-OPLS-2005>
156.269119262695

> <r_mmod_Bend_Energy-OPLS-2005>
241.710891723633

> <r_mmod_Torsional_Energy-OPLS-2005>
278.257263183594

> <r_mmod_Improper_Torsional_Energy-OPLS-2005>
7.3857479095459

> <r_mmod_Van_der_Waal_Energy-OPLS-2005>
126.417320251465

> <r_mmod_Electrostatic_Energy-OPLS-2005>
-405.60302734375

> <r_mmod_Solvation_Energy-OPLS-2005>
-206.757095336914

> <b_mmod_Minimization_Converged-OPLS-2005>
0

> <r_mmod_RMS_Derivative-OPLS-2005>
4.05468702316284

$$$$
8
                    3D
 Structure written by MMmdl.
162169  0  0  1  0            999 V2000
  -30.5231  -14.9635   20.4102 C   0  0  0  0  0  0
  -30.4457  -12.6079   19.4688 C   0  0  0  0  0  0
  -29.5136  -12.5249   18.2381 C   0  0  0  0  0  0
  -28.0492  -12.3088   18.6672 C   0  0  0  0  0  0
  -27.6257  -13.2447   19.8287 C   0  0  2  0  0  0
  -28.6763  -13.2803   20.9558 C   0  0  0  0  0  0
  -25.2455  -13.8205   20.5707 C   0  0  0  0  0  0
  -24.1771  -13.0431   20.9231 C   0  0  0  0  0  0
  -24.6384  -11.6922   20.8770 C   0  0  0  0  0  0
  -23.9067  -10.4293   21.0418 C   0  0  0  0  0  0
  -24.3618   -9.4205   21.9189 C   0  0  0  0  0  0
  -23.6291   -8.2243   22.0756 C   0  0  0  0  0  0
  -22.4280   -8.0282   21.3544 C   0  0  0  0  0  0
  -21.9913   -9.0254   20.4643 C   0  0  0  0  0  0
  -22.7240  -10.2129   20.3057 C   0  0  0  0  0  0
  -21.6854   -6.0730   22.5277 C   0  0  0  0  0  0
  -21.4015   -6.5635   23.8206 C   0  0  0  0  0  0
  -21.3660   -5.6792   24.9171 C   0  0  0  0  0  0
  -21.6046   -4.3054   24.7222 C   0  0  0  0  0  0
  -21.8817   -3.8142   23.4349 C   0  0  0  0  0  0
  -21.9190   -4.6959   22.3398 C   0  0  0  0  0  0
  -22.7790  -13.5202   21.1886 C   0  0  0  0  0  0
  -22.1659   -4.2141   21.0979 F   0  0  0  0  0  0
  -21.5629   -3.4539   25.7737 F   0  0  0  0  0  0
  -29.9386  -13.7033   20.3376 N   0  0  0  0  0  0
  -26.2876  -12.9429   20.3229 N   0  0  0  0  0  0
  -25.9317  -11.6565   20.5749 N   0  0  0  0  0  0
  -22.0442  -12.8198   22.0445 N   0  0  0  0  0  0
  -25.4093  -15.1936   20.4114 N   0  0  0  0  0  0
  -31.7435  -15.0311   20.2507 O   0  0  0  0  0  0
  -21.6641   -6.8879   21.4241 O   0  0  0  0  0  0
  -22.3477  -14.5503   20.6723 O   0  0  0  0  0  0
  -24.6427  -31.8412   23.1863 C   0  0  0  0  0  0
  -25.9192  -32.4680   23.8257 C   0  0  1  0  0  0
  -27.2233  -27.1300   20.1581 C   0  0  0  0  0  0
  -25.5943  -33.8490   24.2172 N   0  0  0  0  0  0
  -23.4464  -30.4582   21.5332 C   0  0  2  0  0  0
  -24.8969  -28.8745   20.1192 C   0  0  0  0  0  0
  -22.7560  -29.4514   22.4864 C   0  0  0  0  0  0
  -18.0294  -28.1386   22.8467 C   0  0  0  0  0  0
  -24.1476  -36.7242   23.2646 C   0  0  0  0  0  0
  -26.0019  -30.7132   21.3850 C   0  0  0  0  0  0
  -26.0751  -29.3214   20.7312 C   0  0  0  0  0  0
  -27.2414  -28.4675   20.7265 C   0  0  0  0  0  0
  -26.0151  -26.7722   19.5262 C   0  0  0  0  0  0
  -24.8789  -27.6118   19.5026 C   0  0  0  0  0  0
  -23.6747  -29.7805   20.1558 C   0  0  0  0  0  0
  -25.4109  -36.3018   24.0315 C   0  0  1  0  0  0
  -20.5906  -28.3704   23.1235 C   0  0  2  0  0  0
  -20.6781  -26.9402   22.5408 C   0  0  0  0  0  0
  -19.5758  -26.6360   21.5212 C   0  0  0  0  0  0
  -18.1935  -26.7917   22.1617 C   0  0  0  0  0  0
  -19.1554  -28.8863   23.2834 C   0  0  0  0  0  0
  -18.9484  -30.1462   23.8860 C   0  0  0  0  0  0
  -17.6490  -30.6594   24.0549 C   0  0  0  0  0  0
  -25.9070  -34.9399   23.5050 C   0  0  0  0  0  0
  -16.5372  -29.9084   23.6345 C   0  0  0  0  0  0
  -16.7281  -28.6503   23.0357 C   0  0  0  0  0  0
  -26.4521  -31.6570   25.0710 C   0  0  0  0  0  0
  -25.3698  -31.3779   26.1405 C   0  0  0  0  0  0
  -27.0408  -30.2972   24.6299 C   0  0  0  0  0  0
  -27.6031  -32.4364   25.7502 C   0  0  0  0  0  0
  -27.5558  -37.1772   24.8466 C   0  0  0  0  0  0
  -21.4253  -29.3025   22.3614 N   0  0  0  0  0  0
  -26.4269  -37.3740   23.9412 N   0  0  0  0  0  0
  -24.7170  -31.0254   22.0904 N   0  0  0  0  0  0
  -23.4201  -28.8054   23.3011 O   0  0  0  0  0  0
  -28.3067  -26.1814   20.1306 O   0  0  0  0  0  0
  -26.5655  -34.8906   22.4633 O   0  0  0  0  0  0
  -23.5551  -32.1286   23.7090 O   0  0  0  0  0  0
  -27.3973  -22.8658   18.8629 C   0  0  0  0  0  0
  -32.3281  -18.2223   21.0252 C   0  0  0  0  0  0
  -30.8033  -19.0769   22.8462 C   0  0  0  0  0  0
  -29.3595  -21.8596   20.3439 C   0  0  0  0  0  0
  -29.4544  -19.0136   19.9330 C   0  0  0  0  0  0
  -28.2020  -24.6947   20.5979 C   0  0  0  0  0  0
  -28.5722  -23.2622   19.7688 C   0  0  2  0  0  0
  -29.7924  -17.6751   20.9300 C   0  0  2  0  0  0
  -31.0467  -17.9466   21.8325 C   0  0  0  0  0  0
  -29.7127  -16.1326   20.4970 N   0  0  0  0  0  0
  -28.7672  -20.3848   20.3906 N   0  3  0  0  0  0
  -31.3253  -16.8127   22.6316 O   0  0  0  0  0  0
  -31.4705  -12.7942   19.1433 H   0  0  0  0  0  0
  -30.4702  -11.6616   20.0121 H   0  0  0  0  0  0
  -29.8325  -11.7205   17.5738 H   0  0  0  0  0  0
  -29.5892  -13.4476   17.6607 H   0  0  0  0  0  0
  -27.9486  -11.2687   18.9792 H   0  0  0  0  0  0
  -27.3812  -12.4362   17.8142 H   0  0  0  0  0  0
  -27.5820  -14.2431   19.3934 H   0  0  0  0  0  0
  -28.7786  -12.3058   21.4355 H   0  0  0  0  0  0
  -28.3803  -13.9834   21.7368 H   0  0  0  0  0  0
  -25.2757   -9.5681   22.4771 H   0  0  0  0  0  0
  -23.9995   -7.4632   22.7482 H   0  0  0  0  0  0
  -21.0842   -8.8766   19.8953 H   0  0  0  0  0  0
  -22.3694  -10.9668   19.6172 H   0  0  0  0  0  0
  -21.2012   -7.6142   23.9706 H   0  0  0  0  0  0
  -21.1486   -6.0523   25.9068 H   0  0  0  0  0  0
  -22.0599   -2.7606   23.2845 H   0  0  0  0  0  0
  -22.4071  -11.9864   22.4837 H   0  0  0  0  0  0
  -21.1057  -13.1223   22.2658 H   0  0  0  0  0  0
  -24.6324  -15.8379   20.5114 H   0  0  0  0  0  0
  -26.2400  -15.6356   20.0411 H   0  0  0  0  0  0
  -26.7247  -32.5293   23.0982 H   0  0  0  0  0  0
  -25.0085  -33.9616   25.0310 H   0  0  0  0  0  0
  -22.7487  -31.2835   21.3744 H   0  0  0  0  0  0
  -23.3758  -35.9560   23.3303 H   0  0  0  0  0  0
  -24.3547  -36.8882   22.2063 H   0  0  0  0  0  0
  -23.7219  -37.6425   23.6696 H   0  0  0  0  0  0
  -26.1521  -31.4655   20.6098 H   0  0  0  0  0  0
  -26.8742  -30.7673   22.0258 H   0  0  0  0  0  0
  -28.1470  -28.8113   21.2071 H   0  0  0  0  0  0
  -25.9400  -25.8033   19.0534 H   0  0  0  0  0  0
  -23.9780  -27.2631   19.0162 H   0  0  0  0  0  0
  -23.8168  -30.5525   19.3993 H   0  0  0  0  0  0
  -22.7891  -29.2250   19.8432 H   0  0  0  0  0  0
  -25.1297  -36.1839   25.0809 H   0  0  0  0  0  0
  -20.9983  -28.3300   24.1364 H   0  0  0  0  0  0
  -20.5672  -26.2313   23.3628 H   0  0  0  0  0  0
  -21.6649  -26.7407   22.1204 H   0  0  0  0  0  0
  -19.6928  -25.6260   21.1264 H   0  0  0  0  0  0
  -19.6717  -27.3156   20.6731 H   0  0  0  0  0  0
  -17.4201  -26.6660   21.4018 H   0  0  0  0  0  0
  -18.0337  -26.0067   22.9025 H   0  0  0  0  0  0
  -19.7975  -30.7276   24.2211 H   0  0  0  0  0  0
  -17.5056  -31.6277   24.5148 H   0  0  0  0  0  0
  -15.5371  -30.2990   23.7695 H   0  0  0  0  0  0
  -15.8671  -28.0823   22.7096 H   0  0  0  0  0  0
  -24.5867  -30.7140   25.7728 H   0  0  0  0  0  0
  -24.8909  -32.2981   26.4773 H   0  0  0  0  0  0
  -25.7972  -30.8984   27.0222 H   0  0  0  0  0  0
  -26.3047  -29.6682   24.1285 H   0  0  0  0  0  0
  -27.4001  -29.7278   25.4882 H   0  0  0  0  0  0
  -27.8948  -30.4220   23.9635 H   0  0  0  0  0  0
  -27.2600  -33.3684   26.2010 H   0  0  0  0  0  0
  -28.3882  -32.6902   25.0365 H   0  0  0  0  0  0
  -28.0658  -31.8545   26.5484 H   0  0  0  0  0  0
  -28.2560  -38.0074   24.7507 H   0  0  0  0  0  0
  -28.1062  -36.2610   24.6304 H   0  0  0  0  0  0
  -27.2275  -37.1420   25.8864 H   0  0  0  0  0  0
  -20.9466  -29.8760   21.6807 H   0  0  0  0  0  0
  -26.0131  -38.2795   24.1470 H   0  0  0  0  0  0
  -27.6871  -22.0996   18.1424 H   0  0  0  0  0  0
  -27.0417  -23.7242   18.2919 H   0  0  0  0  0  0
  -26.5567  -22.4862   19.4431 H   0  0  0  0  0  0
  -32.2760  -19.1715   20.4928 H   0  0  0  0  0  0
  -32.5272  -17.4510   20.2836 H   0  0  0  0  0  0
  -33.2025  -18.2819   21.6742 H   0  0  0  0  0  0
  -30.6754  -20.0408   22.3587 H   0  0  0  0  0  0
  -31.6460  -19.1850   23.5304 H   0  0  0  0  0  0
  -29.9147  -18.8909   23.4521 H   0  0  0  0  0  0
  -29.7515  -22.0824   21.3365 H   0  0  0  0  0  0
  -30.2586  -21.7633   19.7330 H   0  0  0  0  0  0
  -28.7587  -18.6303   19.1869 H   0  0  0  0  0  0
  -30.3349  -19.2645   19.3433 H   0  0  0  0  0  0
  -28.8558  -24.6796   21.4701 H   0  0  0  0  0  0
  -27.2079  -24.5700   21.0283 H   0  0  0  0  0  0
  -29.3269  -23.6422   19.0786 H   0  0  0  0  0  0
  -28.9429  -17.6885   21.6150 H   0  0  0  0  0  0
  -28.7460  -15.8530   20.4399 H   0  0  0  0  0  0
  -27.9706  -20.4367   19.7779 H   0  0  0  0  0  0
  -28.3692  -20.2475   21.3060 H   0  0  0  0  0  0
  -31.6420  -16.1380   22.0382 H   0  0  0  0  0  0
  1 25  1  0  0  0
  1 30  2  0  0  0
  1 80  1  0  0  0
  2  3  1  0  0  0
  2 25  1  0  0  0
  2 83  1  0  0  0
  2 84  1  0  0  0
  3  4  1  0  0  0
  3 85  1  0  0  0
  3 86  1  0  0  0
  4  5  1  0  0  0
  4 87  1  0  0  0
  4 88  1  0  0  0
  5  6  1  0  0  0
  5 26  1  0  0  0
  5 89  1  0  0  0
  6 25  1  0  0  0
  6 90  1  0  0  0
  6 91  1  0  0  0
  7  8  2  0  0  0
  7 26  1  0  0  0
  7 29  1  0  0  0
  8  9  1  0  0  0
  8 22  1  0  0  0
  9 10  1  0  0  0
  9 27  2  0  0  0
 10 11  2  0  0  0
 10 15  1  0  0  0
 11 12  1  0  0  0
 11 92  1  0  0  0
 12 13  2  0  0  0
 12 93  1  0  0  0
 13 14  1  0  0  0
 13 31  1  0  0  0
 14 15  2  0  0  0
 14 94  1  0  0  0
 15 95  1  0  0  0
 16 17  2  0  0  0
 16 21  1  0  0  0
 16 31  1  0  0  0
 17 18  1  0  0  0
 17 96  1  0  0  0
 18 19  2  0  0  0
 18 97  1  0  0  0
 19 20  1  0  0  0
 19 24  1  0  0  0
 20 21  2  0  0  0
 20 98  1  0  0  0
 21 23  1  0  0  0
 22 28  1  0  0  0
 22 32  2  0  0  0
 26 27  1  0  0  0
 28 99  1  0  0  0
 28100  1  0  0  0
 29101  1  0  0  0
 29102  1  0  0  0
 33 34  1  0  0  0
 33 66  1  0  0  0
 33 70  2  0  0  0
 34 36  1  0  0  0
 34 59  1  0  0  0
 34103  1  0  0  0
 35 44  2  0  0  0
 35 45  1  0  0  0
 35 68  1  0  0  0
 36 56  1  0  0  0
 36104  1  0  0  0
 37 39  1  0  0  0
 37 47  1  0  0  0
 37 66  1  0  0  0
 37105  1  0  0  0
 38 43  2  0  0  0
 38 46  1  0  0  0
 38 47  1  0  0  0
 39 64  1  0  0  0
 39 67  2  0  0  0
 40 52  1  0  0  0
 40 53  2  0  0  0
 40 58  1  0  0  0
 41106  1  0  0  0
 41107  1  0  0  0
 41108  1  0  0  0
 41 48  1  0  0  0
 42 43  1  0  0  0
 42 66  1  0  0  0
 42109  1  0  0  0
 42110  1  0  0  0
 43 44  1  0  0  0
 44111  1  0  0  0
 45 46  2  0  0  0
 45112  1  0  0  0
 46113  1  0  0  0
 47114  1  0  0  0
 47115  1  0  0  0
 48 56  1  0  0  0
 48 65  1  0  0  0
 48116  1  0  0  0
 49 50  1  0  0  0
 49 53  1  0  0  0
 49 64  1  0  0  0
 49117  1  0  0  0
 50 51  1  0  0  0
 50118  1  0  0  0
 50119  1  0  0  0
 51 52  1  0  0  0
 51120  1  0  0  0
 51121  1  0  0  0
 52122  1  0  0  0
 52123  1  0  0  0
 53 54  1  0  0  0
 54 55  2  0  0  0
 54124  1  0  0  0
 55 57  1  0  0  0
 55125  1  0  0  0
 56 69  2  0  0  0
 57 58  2  0  0  0
 57126  1  0  0  0
 58127  1  0  0  0
 59 60  1  0  0  0
 59 61  1  0  0  0
 59 62  1  0  0  0
 60128  1  0  0  0
 60129  1  0  0  0
 60130  1  0  0  0
 61131  1  0  0  0
 61132  1  0  0  0
 61133  1  0  0  0
 62134  1  0  0  0
 62135  1  0  0  0
 62136  1  0  0  0
 63 65  1  0  0  0
 63137  1  0  0  0
 63138  1  0  0  0
 63139  1  0  0  0
 64140  1  0  0  0
 65141  1  0  0  0
 68 76  1  0  0  0
 71142  1  0  0  0
 71143  1  0  0  0
 71144  1  0  0  0
 71 77  1  0  0  0
 72145  1  0  0  0
 72146  1  0  0  0
 72147  1  0  0  0
 72 79  1  0  0  0
 73 79  1  0  0  0
 73148  1  0  0  0
 73149  1  0  0  0
 73150  1  0  0  0
 74 77  1  0  0  0
 74 81  1  0  0  0
 74151  1  0  0  0
 74152  1  0  0  0
 75 81  1  0  0  0
 75153  1  0  0  0
 75154  1  0  0  0
 75 78  1  0  0  0
 76 77  1  0  0  0
 76155  1  0  0  0
 76156  1  0  0  0
 77157  1  0  0  0
 78 79  1  0  0  0
 78 80  1  0  0  0
 78158  1  0  0  0
 79 82  1  0  0  0
 80159  1  0  0  0
 81160  1  0  0  0
 81161  1  0  0  0
 82162  1  0  0  0
M  CHG  1  81   1
M  ISO  4   1 100  68 101  76 101  80 100
M  END
> <chiral flag>
0

> <version>
0

> <s_m_source_file>
/data/baiqing/PycharmProjects/Reinvent-master-3.2/result/LINK_invent/BTK/process_docking_weight1_custom_sum_contain_oxygen_bond_distance_aromatic_linkinvent_7_9_3/rearranged_h_0104.sdf

> <i_m_source_file_index>
9

> <r_mmod_Potential_Energy-OPLS-2005>
342.931671142578

> <r_mmod_Stretch_Energy-OPLS-2005>
291.893035888672

> <r_mmod_Bend_Energy-OPLS-2005>
341.824920654297

> <r_mmod_Torsional_Energy-OPLS-2005>
323.194641113281

> <r_mmod_Improper_Torsional_Energy-OPLS-2005>
3.9951651096344

> <r_mmod_Van_der_Waal_Energy-OPLS-2005>
114.387619018555

> <r_mmod_Electrostatic_Energy-OPLS-2005>
-435.094512939453

> <r_mmod_Solvation_Energy-OPLS-2005>
-496.246826171875

> <b_mmod_Minimization_Converged-OPLS-2005>
0

> <r_mmod_RMS_Derivative-OPLS-2005>
1.61932325363159

$$$$
9
                    3D
 Structure written by MMmdl.
173181  0  0  1  0            999 V2000
  -30.9135  -14.3582   20.7561 C   0  0  0  0  0  0
  -30.4298  -12.3430   19.4111 C   0  0  0  0  0  0
  -29.4940  -12.5746   18.2158 C   0  0  0  0  0  0
  -28.0321  -12.3761   18.6466 C   0  0  0  0  0  0
  -27.6877  -13.2169   19.9104 C   0  0  2  0  0  0
  -28.7459  -13.0358   21.0380 C   0  0  0  0  0  0
  -25.2697  -13.8185   20.5710 C   0  0  0  0  0  0
  -24.1931  -13.0418   20.9224 C   0  0  0  0  0  0
  -24.6504  -11.6912   20.8880 C   0  0  0  0  0  0
  -23.9146  -10.4274   21.0484 C   0  0  0  0  0  0
  -24.3667   -9.4164   21.9268 C   0  0  0  0  0  0
  -23.6342   -8.2176   22.0766 C   0  0  0  0  0  0
  -22.4333   -8.0263   21.3509 C   0  0  0  0  0  0
  -21.9985   -9.0273   20.4658 C   0  0  0  0  0  0
  -22.7338  -10.2164   20.3139 C   0  0  0  0  0  0
  -21.6821   -6.0739   22.5279 C   0  0  0  0  0  0
  -21.3976   -6.5677   23.8191 C   0  0  0  0  0  0
  -21.3675   -5.6872   24.9169 C   0  0  0  0  0  0
  -21.6058   -4.3100   24.7233 C   0  0  0  0  0  0
  -21.8813   -3.8189   23.4352 C   0  0  0  0  0  0
  -21.9186   -4.6996   22.3410 C   0  0  0  0  0  0
  -22.7988  -13.5272   21.1819 C   0  0  0  0  0  0
  -22.1662   -4.2170   21.0989 F   0  0  0  0  0  0
  -21.5647   -3.4590   25.7727 F   0  0  0  0  0  0
  -30.0921  -13.2960   20.4865 N   0  0  0  0  0  0
  -26.3197  -12.9350   20.3616 N   0  0  0  0  0  0
  -25.9487  -11.6503   20.5999 N   0  0  0  0  0  0
  -22.0562  -12.8269   22.0369 N   0  0  0  0  0  0
  -25.4397  -15.1834   20.3902 N   0  0  0  0  0  0
  -31.8327  -14.6747   20.0027 O   0  0  0  0  0  0
  -21.6665   -6.8888   21.4236 O   0  0  0  0  0  0
  -22.3723  -14.5599   20.6691 O   0  0  0  0  0  0
  -24.6160  -31.8687   23.2124 C   0  0  0  0  0  0
  -25.9048  -32.4823   23.8382 C   0  0  1  0  0  0
  -27.1678  -27.3666   20.0161 C   0  0  0  0  0  0
  -25.5900  -33.8633   24.2286 N   0  0  0  0  0  0
  -23.3993  -30.5050   21.5635 C   0  0  2  0  0  0
  -24.8201  -28.9805   20.1076 C   0  0  0  0  0  0
  -22.7381  -29.4742   22.5019 C   0  0  0  0  0  0
  -18.0222  -28.1345   22.8507 C   0  0  0  0  0  0
  -24.1535  -36.7328   23.2638 C   0  0  0  0  0  0
  -25.9472  -30.8111   21.3766 C   0  0  0  0  0  0
  -26.0070  -29.4495   20.6880 C   0  0  0  0  0  0
  -27.1907  -28.6574   20.6329 C   0  0  0  0  0  0
  -25.9329  -26.9222   19.4893 C   0  0  0  0  0  0
  -24.7808  -27.7127   19.5164 C   0  0  0  0  0  0
  -23.5962  -29.8638   20.1690 C   0  0  0  0  0  0
  -25.4161  -36.3143   24.0328 C   0  0  1  0  0  0
  -20.5832  -28.3679   23.1285 C   0  0  2  0  0  0
  -20.6766  -26.9397   22.5418 C   0  0  0  0  0  0
  -19.5745  -26.6346   21.5204 C   0  0  0  0  0  0
  -18.1894  -26.7886   22.1605 C   0  0  0  0  0  0
  -19.1493  -28.8793   23.2878 C   0  0  0  0  0  0
  -18.9444  -30.1416   23.8871 C   0  0  0  0  0  0
  -17.6480  -30.6573   24.0512 C   0  0  0  0  0  0
  -25.9105  -34.9497   23.5132 C   0  0  0  0  0  0
  -16.5347  -29.9065   23.6364 C   0  0  0  0  0  0
  -16.7232  -28.6456   23.0425 C   0  0  0  0  0  0
  -26.4354  -31.6601   25.0759 C   0  0  0  0  0  0
  -25.3598  -31.3766   26.1486 C   0  0  0  0  0  0
  -27.0195  -30.3024   24.6276 C   0  0  0  0  0  0
  -27.5914  -32.4323   25.7508 C   0  0  0  0  0  0
  -27.5635  -37.1832   24.8475 C   0  0  0  0  0  0
  -21.4123  -29.3076   22.3733 N   0  0  0  0  0  0
  -26.4351  -37.3835   23.9398 N   0  0  0  0  0  0
  -24.6733  -31.0728   22.1088 N   0  0  0  0  0  0
  -23.4173  -28.8239   23.3018 O   0  0  0  0  0  0
  -28.2899  -26.5392   19.9376 O   0  0  0  0  0  0
  -26.5698  -34.8926   22.4729 O   0  0  0  0  0  0
  -23.5364  -32.1501   23.7521 O   0  0  0  0  0  0
  -31.3140  -15.7588   24.1807 C   0  0  0  0  0  0
  -30.2685  -16.4884   23.7005 C   0  0  0  0  0  0
  -31.8532  -14.9989   23.1017 C   0  0  0  0  0  0
  -30.9030  -15.0492   22.0893 C   0  0  0  0  0  0
  -33.1728  -12.8736   23.5722 C   0  0  0  0  0  0
  -34.3018  -15.1749   23.8436 C   0  0  0  0  0  0
  -26.8981  -23.6829   17.7584 C   0  0  0  0  0  0
  -28.4439  -19.1512   20.4396 C   0  0  0  0  0  0
  -29.1867  -18.3465   21.5575 C   0  0  0  0  0  0
  -29.0668  -20.5514   20.1284 C   0  0  0  0  0  0
  -29.0420  -16.7818   21.5299 C   0  0  0  0  0  0
  -28.1151  -21.5822   19.4408 C   0  0  0  0  0  0
  -28.3351  -25.5253   18.8715 C   0  0  0  0  0  0
  -33.2230  -14.3311   23.0966 C   0  0  0  0  0  0
  -27.6682  -24.0862   19.0464 C   0  0  2  0  0  0
  -30.0393  -16.1164   22.3869 N   0  0  0  0  0  0
  -28.6319  -22.9924   19.4360 N   0  3  0  0  0  0
  -31.4711  -12.3973   19.0879 H   0  0  0  0  0  0
  -30.3175  -11.3305   19.7954 H   0  0  0  0  0  0
  -29.7524  -11.9013   17.3942 H   0  0  0  0  0  0
  -29.6291  -13.5934   17.8395 H   0  0  0  0  0  0
  -27.8932  -11.3141   18.8530 H   0  0  0  0  0  0
  -27.3510  -12.6217   17.8232 H   0  0  0  0  0  0
  -27.7288  -14.2655   19.6176 H   0  0  0  0  0  0
  -28.7079  -12.0200   21.4285 H   0  0  0  0  0  0
  -28.5123  -13.6813   21.8880 H   0  0  0  0  0  0
  -25.2729   -9.5709   22.4899 H   0  0  0  0  0  0
  -24.0038   -7.4615   22.7514 H   0  0  0  0  0  0
  -21.0860   -8.8929   19.8956 H   0  0  0  0  0  0
  -22.3796  -10.9792   19.6336 H   0  0  0  0  0  0
  -21.1916   -7.6184   23.9711 H   0  0  0  0  0  0
  -21.1543   -6.0573   25.9084 H   0  0  0  0  0  0
  -22.0578   -2.7649   23.2867 H   0  0  0  0  0  0
  -22.4102  -11.9886   22.4739 H   0  0  0  0  0  0
  -21.1207  -13.1356   22.2570 H   0  0  0  0  0  0
  -24.6478  -15.8126   20.3984 H   0  0  0  0  0  0
  -26.2565  -15.5965   19.9616 H   0  0  0  0  0  0
  -26.7153  -32.5396   23.1166 H   0  0  0  0  0  0
  -24.9747  -33.9814   25.0221 H   0  0  0  0  0  0
  -22.6865  -31.3243   21.4449 H   0  0  0  0  0  0
  -23.3811  -35.9645   23.3314 H   0  0  0  0  0  0
  -24.3628  -36.8922   22.2059 H   0  0  0  0  0  0
  -23.7271  -37.6524   23.6653 H   0  0  0  0  0  0
  -26.0889  -31.5992   20.6361 H   0  0  0  0  0  0
  -26.8287  -30.8298   22.0065 H   0  0  0  0  0  0
  -28.1179  -29.0435   21.0390 H   0  0  0  0  0  0
  -25.8078  -25.9433   19.0622 H   0  0  0  0  0  0
  -23.8472  -27.3413   19.1132 H   0  0  0  0  0  0
  -23.7082  -30.6625   19.4363 H   0  0  0  0  0  0
  -22.7030  -29.3161   19.8587 H   0  0  0  0  0  0
  -25.1375  -36.2029   25.0831 H   0  0  0  0  0  0
  -20.9913  -28.3198   24.1394 H   0  0  0  0  0  0
  -20.5741  -26.2202   23.3592 H   0  0  0  0  0  0
  -21.6625  -26.7497   22.1161 H   0  0  0  0  0  0
  -19.6967  -25.6248   21.1226 H   0  0  0  0  0  0
  -19.6678  -27.3128   20.6708 H   0  0  0  0  0  0
  -17.4185  -26.6589   21.4000 H   0  0  0  0  0  0
  -18.0270  -26.0012   22.8968 H   0  0  0  0  0  0
  -19.7934  -30.7196   24.2231 H   0  0  0  0  0  0
  -17.5062  -31.6281   24.5070 H   0  0  0  0  0  0
  -15.5363  -30.2994   23.7763 H   0  0  0  0  0  0
  -15.8591  -28.0752   22.7284 H   0  0  0  0  0  0
  -24.5643  -30.7284   25.7819 H   0  0  0  0  0  0
  -24.8944  -32.3007   26.4953 H   0  0  0  0  0  0
  -25.7853  -30.8833   27.0248 H   0  0  0  0  0  0
  -26.2883  -29.6752   24.1168 H   0  0  0  0  0  0
  -27.3686  -29.7324   25.4861 H   0  0  0  0  0  0
  -27.8723  -30.4307   23.9631 H   0  0  0  0  0  0
  -27.2496  -33.3527   26.2243 H   0  0  0  0  0  0
  -28.3634  -32.7074   25.0354 H   0  0  0  0  0  0
  -28.0678  -31.8436   26.5364 H   0  0  0  0  0  0
  -28.2672  -38.0112   24.7531 H   0  0  0  0  0  0
  -28.1111  -36.2658   24.6305 H   0  0  0  0  0  0
  -27.2368  -37.1484   25.8878 H   0  0  0  0  0  0
  -20.9254  -29.8658   21.6854 H   0  0  0  0  0  0
  -26.0230  -38.2907   24.1392 H   0  0  0  0  0  0
  -31.7216  -15.8564   25.1791 H   0  0  0  0  0  0
  -29.6986  -17.2800   24.1673 H   0  0  0  0  0  0
  -32.4872  -12.2958   22.9545 H   0  0  0  0  0  0
  -32.8444  -12.7910   24.6073 H   0  0  0  0  0  0
  -34.1451  -12.3905   23.4635 H   0  0  0  0  0  0
  -34.0528  -15.3889   24.8844 H   0  0  0  0  0  0
  -34.4328  -16.1481   23.3684 H   0  0  0  0  0  0
  -35.2822  -14.6929   23.8428 H   0  0  0  0  0  0
  -26.2723  -22.7924   17.9086 H   0  0  0  0  0  0
  -27.5955  -23.4905   16.9356 H   0  0  0  0  0  0
  -26.2111  -24.4662   17.4265 H   0  0  0  0  0  0
  -27.4082  -19.2910   20.7460 H   0  0  0  0  0  0
  -28.3962  -18.5616   19.5226 H   0  0  0  0  0  0
  -28.8146  -18.7221   22.5126 H   0  0  0  0  0  0
  -30.2567  -18.5701   21.5182 H   0  0  0  0  0  0
  -29.9474  -20.3815   19.5071 H   0  0  0  0  0  0
  -29.4356  -20.9991   21.0484 H   0  0  0  0  0  0
  -29.1702  -16.4340   20.5092 H   0  0  0  0  0  0
  -28.0481  -16.4546   21.8526 H   0  0  0  0  0  0
  -27.1440  -21.5598   19.9347 H   0  0  0  0  0  0
  -27.9460  -21.2598   18.4113 H   0  0  0  0  0  0
  -27.9130  -25.9994   17.9820 H   0  0  0  0  0  0
  -29.3746  -25.3911   18.5815 H   0  0  0  0  0  0
  -33.5514  -14.2959   22.0525 H   0  0  0  0  0  0
  -26.9351  -24.1733   19.8423 H   0  0  0  0  0  0
  -29.4252  -23.0153   18.8143 H   0  0  0  0  0  0
  -28.9838  -23.1751   20.3617 H   0  0  0  0  0  0
  1 25  1  0  0  0
  1 30  2  0  0  0
  1 74  1  0  0  0
  2  3  1  0  0  0
  2 25  1  0  0  0
  2 88  1  0  0  0
  2 89  1  0  0  0
  3  4  1  0  0  0
  3 90  1  0  0  0
  3 91  1  0  0  0
  4  5  1  0  0  0
  4 92  1  0  0  0
  4 93  1  0  0  0
  5  6  1  0  0  0
  5 26  1  0  0  0
  5 94  1  0  0  0
  6 25  1  0  0  0
  6 95  1  0  0  0
  6 96  1  0  0  0
  7  8  2  0  0  0
  7 26  1  0  0  0
  7 29  1  0  0  0
  8  9  1  0  0  0
  8 22  1  0  0  0
  9 10  1  0  0  0
  9 27  2  0  0  0
 10 11  2  0  0  0
 10 15  1  0  0  0
 11 12  1  0  0  0
 11 97  1  0  0  0
 12 13  2  0  0  0
 12 98  1  0  0  0
 13 14  1  0  0  0
 13 31  1  0  0  0
 14 15  2  0  0  0
 14 99  1  0  0  0
 15100  1  0  0  0
 16 17  2  0  0  0
 16 21  1  0  0  0
 16 31  1  0  0  0
 17 18  1  0  0  0
 17101  1  0  0  0
 18 19  2  0  0  0
 18102  1  0  0  0
 19 20  1  0  0  0
 19 24  1  0  0  0
 20 21  2  0  0  0
 20103  1  0  0  0
 21 23  1  0  0  0
 22 28  1  0  0  0
 22 32  2  0  0  0
 26 27  1  0  0  0
 28104  1  0  0  0
 28105  1  0  0  0
 29106  1  0  0  0
 29107  1  0  0  0
 33 34  1  0  0  0
 33 66  1  0  0  0
 33 70  2  0  0  0
 34 36  1  0  0  0
 34 59  1  0  0  0
 34108  1  0  0  0
 35 44  2  0  0  0
 35 45  1  0  0  0
 35 68  1  0  0  0
 36 56  1  0  0  0
 36109  1  0  0  0
 37 39  1  0  0  0
 37 47  1  0  0  0
 37 66  1  0  0  0
 37110  1  0  0  0
 38 43  2  0  0  0
 38 46  1  0  0  0
 38 47  1  0  0  0
 39 64  1  0  0  0
 39 67  2  0  0  0
 40 52  1  0  0  0
 40 53  2  0  0  0
 40 58  1  0  0  0
 41111  1  0  0  0
 41112  1  0  0  0
 41113  1  0  0  0
 41 48  1  0  0  0
 42 43  1  0  0  0
 42 66  1  0  0  0
 42114  1  0  0  0
 42115  1  0  0  0
 43 44  1  0  0  0
 44116  1  0  0  0
 45 46  2  0  0  0
 45117  1  0  0  0
 46118  1  0  0  0
 47119  1  0  0  0
 47120  1  0  0  0
 48 56  1  0  0  0
 48 65  1  0  0  0
 48121  1  0  0  0
 49 50  1  0  0  0
 49 53  1  0  0  0
 49 64  1  0  0  0
 49122  1  0  0  0
 50 51  1  0  0  0
 50123  1  0  0  0
 50124  1  0  0  0
 51 52  1  0  0  0
 51125  1  0  0  0
 51126  1  0  0  0
 52127  1  0  0  0
 52128  1  0  0  0
 53 54  1  0  0  0
 54 55  2  0  0  0
 54129  1  0  0  0
 55 57  1  0  0  0
 55130  1  0  0  0
 56 69  2  0  0  0
 57 58  2  0  0  0
 57131  1  0  0  0
 58132  1  0  0  0
 59 60  1  0  0  0
 59 61  1  0  0  0
 59 62  1  0  0  0
 60133  1  0  0  0
 60134  1  0  0  0
 60135  1  0  0  0
 61136  1  0  0  0
 61137  1  0  0  0
 61138  1  0  0  0
 62139  1  0  0  0
 62140  1  0  0  0
 62141  1  0  0  0
 63 65  1  0  0  0
 63142  1  0  0  0
 63143  1  0  0  0
 63144  1  0  0  0
 64145  1  0  0  0
 65146  1  0  0  0
 68 83  1  0  0  0
 71 72  2  0  0  0
 71 73  1  0  0  0
 71147  1  0  0  0
 72 86  1  0  0  0
 72148  1  0  0  0
 73 74  2  0  0  0
 73 84  1  0  0  0
 74 86  1  0  0  0
 75149  1  0  0  0
 75150  1  0  0  0
 75151  1  0  0  0
 75 84  1  0  0  0
 76 84  1  0  0  0
 76152  1  0  0  0
 76153  1  0  0  0
 76154  1  0  0  0
 77155  1  0  0  0
 77156  1  0  0  0
 77157  1  0  0  0
 77 85  1  0  0  0
 78 79  1  0  0  0
 78 80  1  0  0  0
 78158  1  0  0  0
 78159  1  0  0  0
 79 81  1  0  0  0
 79160  1  0  0  0
 79161  1  0  0  0
 80 82  1  0  0  0
 80162  1  0  0  0
 80163  1  0  0  0
 81 86  1  0  0  0
 81164  1  0  0  0
 81165  1  0  0  0
 82 87  1  0  0  0
 82166  1  0  0  0
 82167  1  0  0  0
 83 85  1  0  0  0
 83168  1  0  0  0
 83169  1  0  0  0
 84170  1  0  0  0
 85 87  1  0  0  0
 85171  1  0  0  0
 87172  1  0  0  0
 87173  1  0  0  0
M  CHG  1  87   1
M  ISO  4   1 100  68 101  74 100  83 101
M  END
> <chiral flag>
0

> <version>
0

> <s_m_source_file>
/data/baiqing/PycharmProjects/Reinvent-master-3.2/result/LINK_invent/BTK/process_docking_weight1_custom_sum_contain_oxygen_bond_distance_aromatic_linkinvent_7_9_3/rearranged_h_0104.sdf

> <i_m_source_file_index>
10

> <r_mmod_Potential_Energy-OPLS-2005>
41.8542251586914

> <r_mmod_Stretch_Energy-OPLS-2005>
64.5296936035156

> <r_mmod_Bend_Energy-OPLS-2005>
127.935157775879

> <r_mmod_Torsional_Energy-OPLS-2005>
263.981658935547

> <r_mmod_Improper_Torsional_Energy-OPLS-2005>
7.06728267669678

> <r_mmod_Van_der_Waal_Energy-OPLS-2005>
116.916328430176

> <r_mmod_Electrostatic_Energy-OPLS-2005>
-148.608200073242

> <r_mmod_Solvation_Energy-OPLS-2005>
-420.227111816406

> <b_mmod_Minimization_Converged-OPLS-2005>
0

> <r_mmod_RMS_Derivative-OPLS-2005>
11.6731958389282

$$$$
10
                    3D
 Structure written by MMmdl.
152159  0  0  1  0            999 V2000
  -30.4539  -15.1947   20.3991 C   0  0  0  0  0  0
  -30.4415  -12.7670   19.5099 C   0  0  0  0  0  0
  -29.5328  -12.5677   18.2728 C   0  0  0  0  0  0
  -28.0772  -12.3011   18.6982 C   0  0  0  0  0  0
  -27.6110  -13.2681   19.8159 C   0  0  2  0  0  0
  -28.6470  -13.4163   20.9477 C   0  0  0  0  0  0
  -25.2391  -13.8210   20.5702 C   0  0  0  0  0  0
  -24.1764  -13.0410   20.9264 C   0  0  0  0  0  0
  -24.6418  -11.6904   20.8776 C   0  0  0  0  0  0
  -23.9098  -10.4281   21.0407 C   0  0  0  0  0  0
  -24.3636   -9.4197   21.9194 C   0  0  0  0  0  0
  -23.6305   -8.2239   22.0754 C   0  0  0  0  0  0
  -22.4278   -8.0289   21.3555 C   0  0  0  0  0  0
  -21.9916   -9.0257   20.4647 C   0  0  0  0  0  0
  -22.7252  -10.2137   20.3060 C   0  0  0  0  0  0
  -21.6857   -6.0742   22.5282 C   0  0  0  0  0  0
  -21.4015   -6.5641   23.8215 C   0  0  0  0  0  0
  -21.3658   -5.6790   24.9182 C   0  0  0  0  0  0
  -21.6055   -4.3053   24.7217 C   0  0  0  0  0  0
  -21.8824   -3.8148   23.4334 C   0  0  0  0  0  0
  -21.9178   -4.6971   22.3396 C   0  0  0  0  0  0
  -22.7762  -13.5172   21.1885 C   0  0  0  0  0  0
  -22.1639   -4.2154   21.0968 F   0  0  0  0  0  0
  -21.5625   -3.4528   25.7725 F   0  0  0  0  0  0
  -29.8869  -13.9018   20.3264 N   0  0  0  0  0  0
  -26.2810  -12.9488   20.3154 N   0  0  0  0  0  0
  -25.9357  -11.6606   20.5736 N   0  0  0  0  0  0
  -22.0404  -12.8199   22.0461 N   0  0  0  0  0  0
  -25.4000  -15.1935   20.4099 N   0  0  0  0  0  0
  -31.6820  -15.2130   20.2334 O   0  0  0  0  0  0
  -21.6653   -6.8881   21.4249 O   0  0  0  0  0  0
  -22.3456  -14.5461   20.6702 O   0  0  0  0  0  0
  -24.6599  -31.8274   23.1724 C   0  0  0  0  0  0
  -25.9302  -32.4594   23.8175 C   0  0  1  0  0  0
  -27.2127  -26.9682   20.1986 C   0  0  0  0  0  0
  -25.5997  -33.8414   24.2108 N   0  0  0  0  0  0
  -23.4733  -30.4385   21.5225 C   0  0  2  0  0  0
  -24.9233  -28.8293   20.1185 C   0  0  0  0  0  0
  -22.7634  -29.4473   22.4796 C   0  0  0  0  0  0
  -18.0317  -28.1446   22.8422 C   0  0  0  0  0  0
  -24.1506  -36.7215   23.2650 C   0  0  0  0  0  0
  -26.0383  -30.6499   21.3922 C   0  0  0  0  0  0
  -26.1046  -29.2406   20.7465 C   0  0  0  0  0  0
  -27.2496  -28.3316   20.7556 C   0  0  0  0  0  0
  -26.0000  -26.6910   19.5335 C   0  0  0  0  0  0
  -24.8907  -27.5718   19.4925 C   0  0  0  0  0  0
  -23.7107  -29.7541   20.1485 C   0  0  0  0  0  0
  -25.4148  -36.2981   24.0296 C   0  0  1  0  0  0
  -20.5937  -28.3770   23.1182 C   0  0  2  0  0  0
  -20.6782  -26.9432   22.5429 C   0  0  0  0  0  0
  -19.5772  -26.6388   21.5213 C   0  0  0  0  0  0
  -18.1918  -26.7974   22.1575 C   0  0  0  0  0  0
  -19.1576  -28.8925   23.2799 C   0  0  0  0  0  0
  -18.9488  -30.1501   23.8840 C   0  0  0  0  0  0
  -17.6473  -30.6587   24.0590 C   0  0  0  0  0  0
  -25.9103  -34.9355   23.5018 C   0  0  0  0  0  0
  -16.5366  -29.9100   23.6353 C   0  0  0  0  0  0
  -16.7297  -28.6560   23.0308 C   0  0  0  0  0  0
  -26.4583  -31.6503   25.0676 C   0  0  0  0  0  0
  -25.3737  -31.3717   26.1346 C   0  0  0  0  0  0
  -27.0489  -30.2881   24.6358 C   0  0  0  0  0  0
  -27.6099  -32.4300   25.7461 C   0  0  0  0  0  0
  -27.5567  -37.1762   24.8461 C   0  0  0  0  0  0
  -21.4307  -29.3044   22.3491 N   0  0  0  0  0  0
  -26.4286  -37.3723   23.9398 N   0  0  0  0  0  0
  -24.7444  -30.9990   22.0828 N   0  0  0  0  0  0
  -23.4178  -28.8052   23.3064 O   0  0  0  0  0  0
  -28.2440  -25.9086   20.1986 O   0  0  0  0  0  0
  -26.5686  -34.8872   22.4598 O   0  0  0  0  0  0
  -23.5678  -32.1226   23.6839 O   0  0  0  0  0  0
  -27.6316  -20.9780   21.6523 C   0  0  0  0  0  0
  -30.0730  -21.4285   21.7335 C   0  0  0  0  0  0
  -29.1556  -19.5438   20.0959 C   0  0  0  0  0  0
  -28.6377  -22.7599   19.9953 C   0  0  0  0  0  0
  -29.8867  -18.0535   20.7538 C   0  0  0  0  0  0
  -28.0773  -24.3381   20.6131 C   0  0  0  0  0  0
  -28.8887  -21.1756   20.7834 C   0  0  0  0  0  0
  -29.6659  -16.4373   20.4554 N   0  0  0  0  0  0
  -31.4603  -12.9788   19.1796 H   0  0  0  0  0  0
  -30.5068  -11.8517   20.1009 H   0  0  0  0  0  0
  -29.9067  -11.7495   17.6572 H   0  0  0  0  0  0
  -29.5697  -13.4647   17.6529 H   0  0  0  0  0  0
  -28.0224  -11.2725   19.0562 H   0  0  0  0  0  0
  -27.4102  -12.3625   17.8357 H   0  0  0  0  0  0
  -27.5318  -14.2406   19.3299 H   0  0  0  0  0  0
  -28.8002  -12.4749   21.4747 H   0  0  0  0  0  0
  -28.2965  -14.1382   21.6883 H   0  0  0  0  0  0
  -25.2778   -9.5695   22.4774 H   0  0  0  0  0  0
  -24.0007   -7.4642   22.7482 H   0  0  0  0  0  0
  -21.0836   -8.8791   19.8958 H   0  0  0  0  0  0
  -22.3700  -10.9686   19.6181 H   0  0  0  0  0  0
  -21.2024   -7.6147   23.9730 H   0  0  0  0  0  0
  -21.1483   -6.0517   25.9085 H   0  0  0  0  0  0
  -22.0616   -2.7607   23.2842 H   0  0  0  0  0  0
  -22.3978  -11.9850   22.4888 H   0  0  0  0  0  0
  -21.1045  -13.1289   22.2643 H   0  0  0  0  0  0
  -24.6262  -15.8370   20.5345 H   0  0  0  0  0  0
  -26.2317  -15.6370   20.0456 H   0  0  0  0  0  0
  -26.7356  -32.5144   23.0877 H   0  0  0  0  0  0
  -25.0108  -33.9509   25.0226 H   0  0  0  0  0  0
  -22.7892  -31.2711   21.3494 H   0  0  0  0  0  0
  -23.3767  -35.9543   23.3289 H   0  0  0  0  0  0
  -24.3600  -36.8894   22.2070 H   0  0  0  0  0  0
  -23.7237  -37.6394   23.6713 H   0  0  0  0  0  0
  -26.2090  -31.3880   20.6086 H   0  0  0  0  0  0
  -26.9026  -30.7135   22.0422 H   0  0  0  0  0  0
  -28.1534  -28.6471   21.2584 H   0  0  0  0  0  0
  -25.8966  -25.7292   19.0516 H   0  0  0  0  0  0
  -23.9887  -27.2517   18.9878 H   0  0  0  0  0  0
  -23.8685  -30.5209   19.3881 H   0  0  0  0  0  0
  -22.8209  -29.2081   19.8278 H   0  0  0  0  0  0
  -25.1346  -36.1793   25.0784 H   0  0  0  0  0  0
  -21.0038  -28.3414   24.1302 H   0  0  0  0  0  0
  -20.5639  -26.2392   23.3666 H   0  0  0  0  0  0
  -21.6658  -26.7373   22.1291 H   0  0  0  0  0  0
  -19.6907  -25.6277   21.1289 H   0  0  0  0  0  0
  -19.6731  -27.3156   20.6713 H   0  0  0  0  0  0
  -17.4232  -26.6732   21.3934 H   0  0  0  0  0  0
  -18.0279  -26.0121   22.8967 H   0  0  0  0  0  0
  -19.7932  -30.7357   24.2183 H   0  0  0  0  0  0
  -17.5027  -31.6215   24.5275 H   0  0  0  0  0  0
  -15.5358  -30.2997   23.7737 H   0  0  0  0  0  0
  -15.8712  -28.0887   22.6985 H   0  0  0  0  0  0
  -24.5937  -30.7062   25.7627 H   0  0  0  0  0  0
  -24.8920  -32.2922   26.4665 H   0  0  0  0  0  0
  -25.8004  -30.8938   27.0177 H   0  0  0  0  0  0
  -26.3151  -29.6540   24.1376 H   0  0  0  0  0  0
  -27.4073  -29.7241   25.4975 H   0  0  0  0  0  0
  -27.9069  -30.4077   23.9739 H   0  0  0  0  0  0
  -27.2685  -33.3630   26.1939 H   0  0  0  0  0  0
  -28.3956  -32.6798   25.0322 H   0  0  0  0  0  0
  -28.0722  -31.8496   26.5459 H   0  0  0  0  0  0
  -28.2564  -38.0076   24.7537 H   0  0  0  0  0  0
  -28.1091  -36.2606   24.6282 H   0  0  0  0  0  0
  -27.2286  -37.1395   25.8865 H   0  0  0  0  0  0
  -20.9579  -29.8692   21.6563 H   0  0  0  0  0  0
  -26.0137  -38.2781   24.1434 H   0  0  0  0  0  0
  -27.7132  -20.0835   22.2711 H   0  0  0  0  0  0
  -26.7377  -20.8651   21.0364 H   0  0  0  0  0  0
  -27.4604  -21.8205   22.3247 H   0  0  0  0  0  0
  -30.2290  -20.5959   22.4202 H   0  0  0  0  0  0
  -29.9102  -22.3171   22.3471 H   0  0  0  0  0  0
  -31.0033  -21.5782   21.1844 H   0  0  0  0  0  0
  -28.1742  -19.2344   19.7387 H   0  0  0  0  0  0
  -29.7073  -19.7174   19.1720 H   0  0  0  0  0  0
  -29.5857  -22.9780   19.5079 H   0  0  0  0  0  0
  -27.9685  -22.5543   19.1585 H   0  0  0  0  0  0
  -29.6979  -18.1161   21.8263 H   0  0  0  0  0  0
  -30.9659  -18.2013   20.6745 H   0  0  0  0  0  0
  -28.5027  -24.3608   21.6169 H   0  0  0  0  0  0
  -27.0098  -24.2093   20.8063 H   0  0  0  0  0  0
  -28.6842  -16.2102   20.4316 H   0  0  0  0  0  0
  1 25  1  0  0  0
  1 30  2  0  0  0
  1 78  1  0  0  0
  2  3  1  0  0  0
  2 25  1  0  0  0
  2 79  1  0  0  0
  2 80  1  0  0  0
  3  4  1  0  0  0
  3 81  1  0  0  0
  3 82  1  0  0  0
  4  5  1  0  0  0
  4 83  1  0  0  0
  4 84  1  0  0  0
  5  6  1  0  0  0
  5 26  1  0  0  0
  5 85  1  0  0  0
  6 25  1  0  0  0
  6 86  1  0  0  0
  6 87  1  0  0  0
  7  8  2  0  0  0
  7 26  1  0  0  0
  7 29  1  0  0  0
  8  9  1  0  0  0
  8 22  1  0  0  0
  9 10  1  0  0  0
  9 27  2  0  0  0
 10 11  2  0  0  0
 10 15  1  0  0  0
 11 12  1  0  0  0
 11 88  1  0  0  0
 12 13  2  0  0  0
 12 89  1  0  0  0
 13 14  1  0  0  0
 13 31  1  0  0  0
 14 15  2  0  0  0
 14 90  1  0  0  0
 15 91  1  0  0  0
 16 17  2  0  0  0
 16 21  1  0  0  0
 16 31  1  0  0  0
 17 18  1  0  0  0
 17 92  1  0  0  0
 18 19  2  0  0  0
 18 93  1  0  0  0
 19 20  1  0  0  0
 19 24  1  0  0  0
 20 21  2  0  0  0
 20 94  1  0  0  0
 21 23  1  0  0  0
 22 28  1  0  0  0
 22 32  2  0  0  0
 26 27  1  0  0  0
 28 95  1  0  0  0
 28 96  1  0  0  0
 29 97  1  0  0  0
 29 98  1  0  0  0
 33 34  1  0  0  0
 33 66  1  0  0  0
 33 70  2  0  0  0
 34 36  1  0  0  0
 34 59  1  0  0  0
 34 99  1  0  0  0
 35 44  2  0  0  0
 35 45  1  0  0  0
 35 68  1  0  0  0
 36 56  1  0  0  0
 36100  1  0  0  0
 37 39  1  0  0  0
 37 47  1  0  0  0
 37 66  1  0  0  0
 37101  1  0  0  0
 38 43  2  0  0  0
 38 46  1  0  0  0
 38 47  1  0  0  0
 39 64  1  0  0  0
 39 67  2  0  0  0
 40 52  1  0  0  0
 40 53  2  0  0  0
 40 58  1  0  0  0
 41102  1  0  0  0
 41103  1  0  0  0
 41104  1  0  0  0
 41 48  1  0  0  0
 42 43  1  0  0  0
 42 66  1  0  0  0
 42105  1  0  0  0
 42106  1  0  0  0
 43 44  1  0  0  0
 44107  1  0  0  0
 45 46  2  0  0  0
 45108  1  0  0  0
 46109  1  0  0  0
 47110  1  0  0  0
 47111  1  0  0  0
 48 56  1  0  0  0
 48 65  1  0  0  0
 48112  1  0  0  0
 49 50  1  0  0  0
 49 53  1  0  0  0
 49 64  1  0  0  0
 49113  1  0  0  0
 50 51  1  0  0  0
 50114  1  0  0  0
 50115  1  0  0  0
 51 52  1  0  0  0
 51116  1  0  0  0
 51117  1  0  0  0
 52118  1  0  0  0
 52119  1  0  0  0
 53 54  1  0  0  0
 54 55  2  0  0  0
 54120  1  0  0  0
 55 57  1  0  0  0
 55121  1  0  0  0
 56 69  2  0  0  0
 57 58  2  0  0  0
 57122  1  0  0  0
 58123  1  0  0  0
 59 60  1  0  0  0
 59 61  1  0  0  0
 59 62  1  0  0  0
 60124  1  0  0  0
 60125  1  0  0  0
 60126  1  0  0  0
 61127  1  0  0  0
 61128  1  0  0  0
 61129  1  0  0  0
 62130  1  0  0  0
 62131  1  0  0  0
 62132  1  0  0  0
 63 65  1  0  0  0
 63133  1  0  0  0
 63134  1  0  0  0
 63135  1  0  0  0
 64136  1  0  0  0
 65137  1  0  0  0
 68 76  1  0  0  0
 71138  1  0  0  0
 71139  1  0  0  0
 71140  1  0  0  0
 71 77  1  0  0  0
 72 77  1  0  0  0
 72141  1  0  0  0
 72142  1  0  0  0
 72143  1  0  0  0
 73 75  1  0  0  0
 73 77  1  0  0  0
 73144  1  0  0  0
 73145  1  0  0  0
 74 76  1  0  0  0
 74 77  1  0  0  0
 74146  1  0  0  0
 74147  1  0  0  0
 75 78  1  0  0  0
 75148  1  0  0  0
 75149  1  0  0  0
 76150  1  0  0  0
 76151  1  0  0  0
 78152  1  0  0  0
M  ISO  4   1 100  68 101  76 101  78 100
M  END
> <chiral flag>
0

> <version>
0

> <s_m_source_file>
/data/baiqing/PycharmProjects/Reinvent-master-3.2/result/LINK_invent/BTK/process_docking_weight1_custom_sum_contain_oxygen_bond_distance_aromatic_linkinvent_7_9_3/rearranged_h_0104.sdf

> <i_m_source_file_index>
11

> <r_mmod_Potential_Energy-OPLS-2005>
1187.15441894531

> <r_mmod_Stretch_Energy-OPLS-2005>
560.663208007812

> <r_mmod_Bend_Energy-OPLS-2005>
426.547882080078

> <r_mmod_Torsional_Energy-OPLS-2005>
249.705841064453

> <r_mmod_Improper_Torsional_Energy-OPLS-2005>
4.38702630996704

> <r_mmod_Van_der_Waal_Energy-OPLS-2005>
105.507133483887

> <r_mmod_Electrostatic_Energy-OPLS-2005>
-346.434234619141

> <r_mmod_Solvation_Energy-OPLS-2005>
-204.417846679688

> <b_mmod_Minimization_Converged-OPLS-2005>
0

> <r_mmod_RMS_Derivative-OPLS-2005>
3.88859868049622

$$$$
11
                    3D
 Structure written by MMmdl.
177185  0  0  1  0            999 V2000
  -30.6040  -14.6769   20.4959 C   0  0  0  0  0  0
  -30.4300  -12.4146   19.4697 C   0  0  0  0  0  0
  -29.5106  -12.5056   18.2331 C   0  0  0  0  0  0
  -28.0323  -12.3375   18.6409 C   0  0  0  0  0  0
  -27.6458  -13.2166   19.8609 C   0  0  2  0  0  0
  -28.6834  -13.1021   20.9963 C   0  0  0  0  0  0
  -25.2464  -13.8062   20.5451 C   0  0  0  0  0  0
  -24.1780  -13.0370   20.9150 C   0  0  0  0  0  0
  -24.6376  -11.6873   20.8751 C   0  0  0  0  0  0
  -23.9048  -10.4271   21.0440 C   0  0  0  0  0  0
  -24.3629   -9.4194   21.9211 C   0  0  0  0  0  0
  -23.6294   -8.2233   22.0781 C   0  0  0  0  0  0
  -22.4286   -8.0265   21.3546 C   0  0  0  0  0  0
  -21.9908   -9.0242   20.4662 C   0  0  0  0  0  0
  -22.7227  -10.2125   20.3078 C   0  0  0  0  0  0
  -21.6857   -6.0746   22.5274 C   0  0  0  0  0  0
  -21.4002   -6.5651   23.8203 C   0  0  0  0  0  0
  -21.3657   -5.6795   24.9161 C   0  0  0  0  0  0
  -21.6053   -4.3056   24.7212 C   0  0  0  0  0  0
  -21.8816   -3.8161   23.4328 C   0  0  0  0  0  0
  -21.9188   -4.6979   22.3394 C   0  0  0  0  0  0
  -22.7827  -13.5209   21.1791 C   0  0  0  0  0  0
  -22.1662   -4.2194   21.0957 F   0  0  0  0  0  0
  -21.5640   -3.4523   25.7716 F   0  0  0  0  0  0
  -29.9872  -13.4526   20.4252 N   0  0  0  0  0  0
  -26.2952  -12.9301   20.3280 N   0  0  0  0  0  0
  -25.9337  -11.6472   20.5852 N   0  0  0  0  0  0
  -22.0452  -12.8252   22.0383 N   0  0  0  0  0  0
  -25.3937  -15.1676   20.3363 N   0  0  0  0  0  0
  -31.7738  -14.7986   20.1189 O   0  0  0  0  0  0
  -21.6635   -6.8880   21.4231 O   0  0  0  0  0  0
  -22.3544  -14.5507   20.6607 O   0  0  0  0  0  0
  -24.6256  -31.8560   23.2002 C   0  0  0  0  0  0
  -25.9093  -32.4751   23.8327 C   0  0  1  0  0  0
  -27.2267  -27.2898   20.1101 C   0  0  0  0  0  0
  -25.5924  -33.8564   24.2255 N   0  0  0  0  0  0
  -23.4205  -30.4792   21.5443 C   0  0  2  0  0  0
  -24.8676  -28.9282   20.1107 C   0  0  0  0  0  0
  -22.7456  -29.4612   22.4934 C   0  0  0  0  0  0
  -18.0282  -28.1397   22.8488 C   0  0  0  0  0  0
  -24.1503  -36.7275   23.2637 C   0  0  0  0  0  0
  -25.9634  -30.7787   21.3736 C   0  0  0  0  0  0
  -26.0367  -29.4033   20.7144 C   0  0  0  0  0  0
  -27.2142  -28.5949   20.7058 C   0  0  0  0  0  0
  -26.0301  -26.8664   19.4909 C   0  0  0  0  0  0
  -24.8677  -27.6661   19.4937 C   0  0  0  0  0  0
  -23.6355  -29.8132   20.1608 C   0  0  0  0  0  0
  -25.4131  -36.3068   24.0322 C   0  0  1  0  0  0
  -20.5877  -28.3693   23.1295 C   0  0  2  0  0  0
  -20.6799  -26.9425   22.5401 C   0  0  0  0  0  0
  -19.5778  -26.6384   21.5211 C   0  0  0  0  0  0
  -18.1942  -26.7954   22.1606 C   0  0  0  0  0  0
  -19.1531  -28.8857   23.2893 C   0  0  0  0  0  0
  -18.9453  -30.1462   23.8899 C   0  0  0  0  0  0
  -17.6452  -30.6583   24.0562 C   0  0  0  0  0  0
  -25.9052  -34.9441   23.5081 C   0  0  0  0  0  0
  -16.5349  -29.9062   23.6344 C   0  0  0  0  0  0
  -16.7273  -28.6495   23.0346 C   0  0  0  0  0  0
  -26.4504  -31.6565   25.0697 C   0  0  0  0  0  0
  -25.3740  -31.3671   26.1413 C   0  0  0  0  0  0
  -27.0340  -30.2991   24.6147 C   0  0  0  0  0  0
  -27.6064  -32.4307   25.7477 C   0  0  0  0  0  0
  -27.5580  -37.1789   24.8464 C   0  0  0  0  0  0
  -21.4164  -29.3052   22.3695 N   0  0  0  0  0  0
  -26.4288  -37.3765   23.9410 N   0  0  0  0  0  0
  -24.6888  -31.0563   22.0959 N   0  0  0  0  0  0
  -23.4161  -28.8156   23.3037 O   0  0  0  0  0  0
  -28.3675  -26.4650   20.1783 O   0  0  0  0  0  0
  -26.5622  -34.8913   22.4644 O   0  0  0  0  0  0
  -23.5415  -32.1373   23.7326 O   0  0  0  0  0  0
  -27.3568  -20.7428   21.0805 C   0  0  0  0  0  0
  -26.9799  -19.4775   21.5591 C   0  0  0  0  0  0
  -29.4822  -19.7763   20.4577 C   0  0  0  0  0  0
  -28.6250  -20.9460   20.5200 C   0  0  0  0  0  0
  -27.8459  -18.3552   21.5635 C   0  0  0  0  0  0
  -29.1548  -18.4550   20.9822 C   0  0  0  0  0  0
  -31.1926  -16.7206   23.2710 C   0  0  0  0  0  0
  -31.9581  -18.8267   22.1071 C   0  0  0  0  0  0
  -25.9261  -20.3422   25.1224 C   0  0  0  0  0  0
  -28.9535  -22.3630   19.8794 C   0  0  0  0  0  0
  -27.2383  -17.0922   22.1748 C   0  0  0  0  0  0
  -28.4085  -23.7544   20.5082 C   0  0  0  0  0  0
  -27.2449  -17.0199   23.7175 C   0  0  0  0  0  0
  -26.2837  -17.9916   24.4317 C   0  0  0  0  0  0
  -28.4722  -25.0876   19.6016 C   0  0  0  0  0  0
  -30.2286  -17.2487   20.9006 C   0  0  1  0  0  0
  -31.4268  -17.3986   21.9040 C   0  0  0  0  0  0
  -29.8348  -15.7758   20.8304 N   0  0  0  0  0  0
  -26.8891  -19.3174   24.6745 N   0  3  0  0  0  0
  -31.4728  -12.5400   19.1720 H   0  0  0  0  0  0
  -30.3690  -11.4234   19.9237 H   0  0  0  0  0  0
  -29.7868  -11.7455   17.5015 H   0  0  0  0  0  0
  -29.6496  -13.4693   17.7383 H   0  0  0  0  0  0
  -27.8730  -11.2844   18.8792 H   0  0  0  0  0  0
  -27.3797  -12.5564   17.7973 H   0  0  0  0  0  0
  -27.6585  -14.2498   19.5167 H   0  0  0  0  0  0
  -28.7024  -12.0891   21.4008 H   0  0  0  0  0  0
  -28.4238  -13.7526   21.8327 H   0  0  0  0  0  0
  -25.2776   -9.5694   22.4789 H   0  0  0  0  0  0
  -24.0015   -7.4639   22.7509 H   0  0  0  0  0  0
  -21.0844   -8.8756   19.8956 H   0  0  0  0  0  0
  -22.3675  -10.9687   19.6201 H   0  0  0  0  0  0
  -21.1983   -7.6161   23.9706 H   0  0  0  0  0  0
  -21.1487   -6.0529   25.9065 H   0  0  0  0  0  0
  -22.0605   -2.7631   23.2795 H   0  0  0  0  0  0
  -22.4043  -11.9932   22.4826 H   0  0  0  0  0  0
  -21.1071  -13.1324   22.2540 H   0  0  0  0  0  0
  -24.5822  -15.7753   20.3612 H   0  0  0  0  0  0
  -26.1810  -15.5815   19.8569 H   0  0  0  0  0  0
  -26.7143  -32.5413   23.1049 H   0  0  0  0  0  0
  -25.0092  -33.9724   25.0411 H   0  0  0  0  0  0
  -22.7137  -31.2987   21.4010 H   0  0  0  0  0  0
  -23.3768  -35.9591   23.3303 H   0  0  0  0  0  0
  -24.3571  -36.8891   22.2037 H   0  0  0  0  0  0
  -23.7254  -37.6479   23.6671 H   0  0  0  0  0  0
  -26.0987  -31.5441   20.6079 H   0  0  0  0  0  0
  -26.8404  -30.8213   22.0090 H   0  0  0  0  0  0
  -28.1121  -28.9600   21.1838 H   0  0  0  0  0  0
  -25.9576  -25.8970   19.0222 H   0  0  0  0  0  0
  -23.9666  -27.2917   19.0270 H   0  0  0  0  0  0
  -23.7550  -30.5932   19.4073 H   0  0  0  0  0  0
  -22.7537  -29.2450   19.8594 H   0  0  0  0  0  0
  -25.1316  -36.1895   25.0812 H   0  0  0  0  0  0
  -20.9970  -28.3263   24.1411 H   0  0  0  0  0  0
  -20.5729  -26.2285   23.3582 H   0  0  0  0  0  0
  -21.6672  -26.7506   22.1191 H   0  0  0  0  0  0
  -19.6992  -25.6296   21.1237 H   0  0  0  0  0  0
  -19.6757  -27.3191   20.6761 H   0  0  0  0  0  0
  -17.4229  -26.6722   21.3991 H   0  0  0  0  0  0
  -18.0292  -26.0089   22.8996 H   0  0  0  0  0  0
  -19.7924  -30.7291   24.2249 H   0  0  0  0  0  0
  -17.5004  -31.6279   24.5130 H   0  0  0  0  0  0
  -15.5348  -30.2952   23.7690 H   0  0  0  0  0  0
  -15.8689  -28.0817   22.7039 H   0  0  0  0  0  0
  -24.5975  -30.6955   25.7751 H   0  0  0  0  0  0
  -24.8862  -32.2802   26.4829 H   0  0  0  0  0  0
  -25.8067  -30.8889   27.0202 H   0  0  0  0  0  0
  -26.2907  -29.6736   24.1189 H   0  0  0  0  0  0
  -27.4052  -29.7261   25.4652 H   0  0  0  0  0  0
  -27.8782  -30.4284   23.9366 H   0  0  0  0  0  0
  -27.2703  -33.3631   26.2028 H   0  0  0  0  0  0
  -28.3900  -32.6802   25.0311 H   0  0  0  0  0  0
  -28.0708  -31.8433   26.5405 H   0  0  0  0  0  0
  -28.2597  -38.0095   24.7512 H   0  0  0  0  0  0
  -28.1089  -36.2611   24.6310 H   0  0  0  0  0  0
  -27.2284  -37.1451   25.8867 H   0  0  0  0  0  0
  -20.9311  -29.8727   21.6891 H   0  0  0  0  0  0
  -26.0168  -38.2836   24.1415 H   0  0  0  0  0  0
  -26.6353  -21.5480   21.1097 H   0  0  0  0  0  0
  -25.9704  -19.3728   21.9296 H   0  0  0  0  0  0
  -30.4402  -19.8949   19.9733 H   0  0  0  0  0  0
  -30.3804  -17.1965   23.8127 H   0  0  0  0  0  0
  -32.0826  -16.7967   23.8968 H   0  0  0  0  0  0
  -30.9695  -15.6557   23.1887 H   0  0  0  0  0  0
  -32.8821  -18.8086   22.6841 H   0  0  0  0  0  0
  -31.2466  -19.4594   22.6380 H   0  0  0  0  0  0
  -32.2007  -19.2981   21.1546 H   0  0  0  0  0  0
  -26.4375  -21.2822   25.3214 H   0  0  0  0  0  0
  -25.4191  -20.0296   26.0360 H   0  0  0  0  0  0
  -25.1770  -20.5312   24.3520 H   0  0  0  0  0  0
  -28.5676  -22.3004   18.8627 H   0  0  0  0  0  0
  -30.0351  -22.4359   19.7660 H   0  0  0  0  0  0
  -27.6541  -16.1872   21.7569 H   0  0  0  0  0  0
  -26.1974  -17.0547   21.8567 H   0  0  0  0  0  0
  -28.9568  -23.9376   21.4311 H   0  0  0  0  0  0
  -27.3708  -23.6336   20.8114 H   0  0  0  0  0  0
  -28.2519  -17.1017   24.1151 H   0  0  0  0  0  0
  -26.9151  -16.0142   23.9813 H   0  0  0  0  0  0
  -25.9974  -17.5712   25.3975 H   0  0  0  0  0  0
  -25.3624  -18.0948   23.8559 H   0  0  0  0  0  0
  -27.8181  -24.9657   18.7401 H   0  0  0  0  0  0
  -29.4675  -25.0844   19.1559 H   0  0  0  0  0  0
  -30.6659  -17.4197   19.9147 H   0  0  0  0  0  0
  -32.2643  -16.8610   21.4602 H   0  0  0  0  0  0
  -28.8742  -15.5719   21.0544 H   0  0  0  0  0  0
  -27.6097  -19.2335   25.3752 H   0  0  0  0  0  0
  -27.3278  -19.6372   23.8228 H   0  0  0  0  0  0
  1 25  1  0  0  0
  1 30  2  0  0  0
  1 88  1  0  0  0
  2  3  1  0  0  0
  2 25  1  0  0  0
  2 90  1  0  0  0
  2 91  1  0  0  0
  3  4  1  0  0  0
  3 92  1  0  0  0
  3 93  1  0  0  0
  4  5  1  0  0  0
  4 94  1  0  0  0
  4 95  1  0  0  0
  5  6  1  0  0  0
  5 26  1  0  0  0
  5 96  1  0  0  0
  6 25  1  0  0  0
  6 97  1  0  0  0
  6 98  1  0  0  0
  7  8  2  0  0  0
  7 26  1  0  0  0
  7 29  1  0  0  0
  8  9  1  0  0  0
  8 22  1  0  0  0
  9 10  1  0  0  0
  9 27  2  0  0  0
 10 11  2  0  0  0
 10 15  1  0  0  0
 11 12  1  0  0  0
 11 99  1  0  0  0
 12 13  2  0  0  0
 12100  1  0  0  0
 13 14  1  0  0  0
 13 31  1  0  0  0
 14 15  2  0  0  0
 14101  1  0  0  0
 15102  1  0  0  0
 16 17  2  0  0  0
 16 21  1  0  0  0
 16 31  1  0  0  0
 17 18  1  0  0  0
 17103  1  0  0  0
 18 19  2  0  0  0
 18104  1  0  0  0
 19 20  1  0  0  0
 19 24  1  0  0  0
 20 21  2  0  0  0
 20105  1  0  0  0
 21 23  1  0  0  0
 22 28  1  0  0  0
 22 32  2  0  0  0
 26 27  1  0  0  0
 28106  1  0  0  0
 28107  1  0  0  0
 29108  1  0  0  0
 29109  1  0  0  0
 33 34  1  0  0  0
 33 66  1  0  0  0
 33 70  2  0  0  0
 34 36  1  0  0  0
 34 59  1  0  0  0
 34110  1  0  0  0
 35 44  2  0  0  0
 35 45  1  0  0  0
 35 68  1  0  0  0
 36 56  1  0  0  0
 36111  1  0  0  0
 37 39  1  0  0  0
 37 47  1  0  0  0
 37 66  1  0  0  0
 37112  1  0  0  0
 38 43  2  0  0  0
 38 46  1  0  0  0
 38 47  1  0  0  0
 39 64  1  0  0  0
 39 67  2  0  0  0
 40 52  1  0  0  0
 40 53  2  0  0  0
 40 58  1  0  0  0
 41113  1  0  0  0
 41114  1  0  0  0
 41115  1  0  0  0
 41 48  1  0  0  0
 42 43  1  0  0  0
 42 66  1  0  0  0
 42116  1  0  0  0
 42117  1  0  0  0
 43 44  1  0  0  0
 44118  1  0  0  0
 45 46  2  0  0  0
 45119  1  0  0  0
 46120  1  0  0  0
 47121  1  0  0  0
 47122  1  0  0  0
 48 56  1  0  0  0
 48 65  1  0  0  0
 48123  1  0  0  0
 49 50  1  0  0  0
 49 53  1  0  0  0
 49 64  1  0  0  0
 49124  1  0  0  0
 50 51  1  0  0  0
 50125  1  0  0  0
 50126  1  0  0  0
 51 52  1  0  0  0
 51127  1  0  0  0
 51128  1  0  0  0
 52129  1  0  0  0
 52130  1  0  0  0
 53 54  1  0  0  0
 54 55  2  0  0  0
 54131  1  0  0  0
 55 57  1  0  0  0
 55132  1  0  0  0
 56 69  2  0  0  0
 57 58  2  0  0  0
 57133  1  0  0  0
 58134  1  0  0  0
 59 60  1  0  0  0
 59 61  1  0  0  0
 59 62  1  0  0  0
 60135  1  0  0  0
 60136  1  0  0  0
 60137  1  0  0  0
 61138  1  0  0  0
 61139  1  0  0  0
 61140  1  0  0  0
 62141  1  0  0  0
 62142  1  0  0  0
 62143  1  0  0  0
 63 65  1  0  0  0
 63144  1  0  0  0
 63145  1  0  0  0
 63146  1  0  0  0
 64147  1  0  0  0
 65148  1  0  0  0
 68 85  1  0  0  0
 71 72  2  0  0  0
 71 74  1  0  0  0
 71149  1  0  0  0
 72 75  1  0  0  0
 72150  1  0  0  0
 73 74  2  0  0  0
 73 76  1  0  0  0
 73151  1  0  0  0
 74 80  1  0  0  0
 75 76  2  0  0  0
 75 81  1  0  0  0
 76 86  1  0  0  0
 77152  1  0  0  0
 77153  1  0  0  0
 77154  1  0  0  0
 77 87  1  0  0  0
 78 87  1  0  0  0
 78155  1  0  0  0
 78156  1  0  0  0
 78157  1  0  0  0
 79 89  1  0  0  0
 79158  1  0  0  0
 79159  1  0  0  0
 79160  1  0  0  0
 80 82  1  0  0  0
 80161  1  0  0  0
 80162  1  0  0  0
 81 83  1  0  0  0
 81163  1  0  0  0
 81164  1  0  0  0
 82 85  1  0  0  0
 82165  1  0  0  0
 82166  1  0  0  0
 83 84  1  0  0  0
 83167  1  0  0  0
 83168  1  0  0  0
 84 89  1  0  0  0
 84169  1  0  0  0
 84170  1  0  0  0
 85171  1  0  0  0
 85172  1  0  0  0
 86 87  1  0  0  0
 86 88  1  0  0  0
 86173  1  0  0  0
 87174  1  0  0  0
 88175  1  0  0  0
 89176  1  0  0  0
 89177  1  0  0  0
M  CHG  1  89   1
M  ISO  4   1 100  68 101  85 101  88 100
M  END
> <chiral flag>
0

> <version>
0

> <s_m_source_file>
/data/baiqing/PycharmProjects/Reinvent-master-3.2/result/LINK_invent/BTK/process_docking_weight1_custom_sum_contain_oxygen_bond_distance_aromatic_linkinvent_7_9_3/rearranged_h_0104.sdf

> <i_m_source_file_index>
12

> <r_mmod_Potential_Energy-OPLS-2005>
-72.1352386474609

> <r_mmod_Stretch_Energy-OPLS-2005>
121.90283203125

> <r_mmod_Bend_Energy-OPLS-2005>
192.637481689453

> <r_mmod_Torsional_Energy-OPLS-2005>
214.7509765625

> <r_mmod_Improper_Torsional_Energy-OPLS-2005>
5.36760425567627

> <r_mmod_Van_der_Waal_Energy-OPLS-2005>
140.05094909668

> <r_mmod_Electrostatic_Energy-OPLS-2005>
-363.331481933594

> <r_mmod_Solvation_Energy-OPLS-2005>
-443.2978515625

> <b_mmod_Minimization_Converged-OPLS-2005>
0

> <r_mmod_RMS_Derivative-OPLS-2005>
3.97991013526917

$$$$
12
                    3D
 Structure written by MMmdl.
149156  0  0  1  0            999 V2000
  -30.3315  -15.5563   20.3398 C   0  0  0  0  0  0
  -30.4270  -13.0232   19.5378 C   0  0  0  0  0  0
  -29.5472  -12.6375   18.3166 C   0  0  0  0  0  0
  -28.1154  -12.2955   18.7572 C   0  0  0  0  0  0
  -27.5976  -13.2993   19.8134 C   0  0  2  0  0  0
  -28.6163  -13.6024   20.9356 C   0  0  0  0  0  0
  -25.2329  -13.8273   20.5779 C   0  0  0  0  0  0
  -24.1710  -13.0433   20.9275 C   0  0  0  0  0  0
  -24.6398  -11.6941   20.8756 C   0  0  0  0  0  0
  -23.9100  -10.4290   21.0392 C   0  0  0  0  0  0
  -24.3640   -9.4205   21.9176 C   0  0  0  0  0  0
  -23.6305   -8.2245   22.0751 C   0  0  0  0  0  0
  -22.4285   -8.0283   21.3545 C   0  0  0  0  0  0
  -21.9925   -9.0256   20.4645 C   0  0  0  0  0  0
  -22.7265  -10.2129   20.3047 C   0  0  0  0  0  0
  -21.6858   -6.0736   22.5277 C   0  0  0  0  0  0
  -21.4021   -6.5639   23.8210 C   0  0  0  0  0  0
  -21.3661   -5.6790   24.9172 C   0  0  0  0  0  0
  -21.6042   -4.3053   24.7222 C   0  0  0  0  0  0
  -21.8819   -3.8146   23.4343 C   0  0  0  0  0  0
  -21.9193   -4.6962   22.3400 C   0  0  0  0  0  0
  -22.7724  -13.5171   21.1914 C   0  0  0  0  0  0
  -22.1662   -4.2150   21.0978 F   0  0  0  0  0  0
  -21.5626   -3.4535   25.7735 F   0  0  0  0  0  0
  -29.8022  -14.2016   20.2846 N   0  0  0  0  0  0
  -26.2768  -12.9586   20.3219 N   0  0  0  0  0  0
  -25.9342  -11.6666   20.5699 N   0  0  0  0  0  0
  -22.0386  -12.8152   22.0469 N   0  0  0  0  0  0
  -25.3936  -15.2012   20.4225 N   0  0  0  0  0  0
  -31.5644  -15.5060   20.1783 O   0  0  0  0  0  0
  -21.6645   -6.8881   21.4241 O   0  0  0  0  0  0
  -22.3400  -14.5471   20.6751 O   0  0  0  0  0  0
  -24.6804  -31.8038   23.1543 C   0  0  0  0  0  0
  -25.9401  -32.4487   23.8075 C   0  0  1  0  0  0
  -27.2260  -26.7390   20.2134 C   0  0  0  0  0  0
  -25.5992  -33.8311   24.1968 N   0  0  0  0  0  0
  -23.5044  -30.4068   21.5077 C   0  0  2  0  0  0
  -24.9613  -28.7532   20.1186 C   0  0  0  0  0  0
  -22.7748  -29.4338   22.4730 C   0  0  0  0  0  0
  -18.0334  -28.1416   22.8460 C   0  0  0  0  0  0
  -24.1496  -36.7160   23.2653 C   0  0  0  0  0  0
  -26.0831  -30.5490   21.4124 C   0  0  0  0  0  0
  -26.1497  -29.1174   20.7626 C   0  0  0  0  0  0
  -27.2693  -28.1380   20.7760 C   0  0  0  0  0  0
  -26.0047  -26.5727   19.5147 C   0  0  0  0  0  0
  -24.9257  -27.5058   19.4711 C   0  0  0  0  0  0
  -23.7559  -29.7046   20.1423 C   0  0  0  0  0  0
  -25.4146  -36.2908   24.0284 C   0  0  1  0  0  0
  -20.5967  -28.3776   23.1154 C   0  0  2  0  0  0
  -20.6800  -26.9439   22.5406 C   0  0  0  0  0  0
  -19.5777  -26.6373   21.5217 C   0  0  0  0  0  0
  -18.1960  -26.7945   22.1622 C   0  0  0  0  0  0
  -19.1599  -28.8920   23.2788 C   0  0  0  0  0  0
  -18.9506  -30.1503   23.8832 C   0  0  0  0  0  0
  -17.6496  -30.6603   24.0550 C   0  0  0  0  0  0
  -25.9122  -34.9296   23.4962 C   0  0  0  0  0  0
  -16.5387  -29.9085   23.6349 C   0  0  0  0  0  0
  -16.7314  -28.6504   23.0370 C   0  0  0  0  0  0
  -26.4588  -31.6507   25.0682 C   0  0  0  0  0  0
  -25.3661  -31.3812   26.1302 C   0  0  0  0  0  0
  -27.0512  -30.2851   24.6551 C   0  0  0  0  0  0
  -27.6044  -32.4358   25.7496 C   0  0  0  0  0  0
  -27.5565  -37.1740   24.8466 C   0  0  0  0  0  0
  -21.4399  -29.3032   22.3479 N   0  0  0  0  0  0
  -26.4275  -37.3666   23.9406 N   0  0  0  0  0  0
  -24.7791  -30.9518   22.0773 N   0  0  0  0  0  0
  -23.4207  -28.7937   23.3061 O   0  0  0  0  0  0
  -28.2050  -25.5470   20.2835 O   0  0  0  0  0  0
  -26.5760  -34.8867   22.4576 O   0  0  0  0  0  0
  -23.5833  -32.1092   23.6523 O   0  0  0  0  0  0
  -30.0624  -22.3790   19.2010 C   0  0  0  0  0  0
  -29.7529  -22.3754   21.6753 C   0  0  0  0  0  0
  -28.7674  -20.2818   20.2950 C   0  0  0  0  0  0
  -29.7994  -18.6577   20.3582 C   0  0  0  0  0  0
  -28.0103  -23.8142   20.2027 C   0  0  0  0  0  0
  -29.0377  -22.1887   20.3287 C   0  0  0  0  0  0
  -29.5732  -16.9059   20.3868 N   0  0  0  0  0  0
  -31.4260  -13.2748   19.1797 H   0  0  0  0  0  0
  -30.5690  -12.1677   20.2007 H   0  0  0  0  0  0
  -29.9880  -11.7989   17.7756 H   0  0  0  0  0  0
  -29.5206  -13.4750   17.6178 H   0  0  0  0  0  0
  -28.1293  -11.2924   19.1858 H   0  0  0  0  0  0
  -27.4459  -12.2550   17.8973 H   0  0  0  0  0  0
  -27.4707  -14.2296   19.2576 H   0  0  0  0  0  0
  -28.8569  -12.7100   21.5157 H   0  0  0  0  0  0
  -28.1964  -14.3233   21.6390 H   0  0  0  0  0  0
  -25.2779   -9.5685   22.4759 H   0  0  0  0  0  0
  -24.0007   -7.4638   22.7476 H   0  0  0  0  0  0
  -21.0853   -8.8782   19.8955 H   0  0  0  0  0  0
  -22.3719  -10.9669   19.6159 H   0  0  0  0  0  0
  -21.2023   -7.6148   23.9715 H   0  0  0  0  0  0
  -21.1482   -6.0520   25.9075 H   0  0  0  0  0  0
  -22.0597   -2.7608   23.2841 H   0  0  0  0  0  0
  -22.4022  -11.9831   22.4874 H   0  0  0  0  0  0
  -21.0997  -13.1158   22.2673 H   0  0  0  0  0  0
  -24.6210  -15.8487   20.5337 H   0  0  0  0  0  0
  -26.2336  -15.6437   20.0744 H   0  0  0  0  0  0
  -26.7480  -32.4969   23.0786 H   0  0  0  0  0  0
  -25.0053  -33.9353   25.0063 H   0  0  0  0  0  0
  -22.8279  -31.2433   21.3205 H   0  0  0  0  0  0
  -23.3775  -35.9471   23.3271 H   0  0  0  0  0  0
  -24.3567  -36.8862   22.2076 H   0  0  0  0  0  0
  -23.7238  -37.6322   23.6753 H   0  0  0  0  0  0
  -26.2827  -31.2764   20.6243 H   0  0  0  0  0  0
  -26.9353  -30.6150   22.0764 H   0  0  0  0  0  0
  -28.1659  -28.4239   21.3078 H   0  0  0  0  0  0
  -25.8467  -25.6260   19.0177 H   0  0  0  0  0  0
  -24.0279  -27.2189   18.9413 H   0  0  0  0  0  0
  -23.9286  -30.4647   19.3796 H   0  0  0  0  0  0
  -22.8609  -29.1696   19.8204 H   0  0  0  0  0  0
  -25.1357  -36.1674   25.0775 H   0  0  0  0  0  0
  -21.0051  -28.3397   24.1279 H   0  0  0  0  0  0
  -20.5667  -26.2400   23.3665 H   0  0  0  0  0  0
  -21.6663  -26.7389   22.1225 H   0  0  0  0  0  0
  -19.6935  -25.6267   21.1290 H   0  0  0  0  0  0
  -19.6715  -27.3146   20.6717 H   0  0  0  0  0  0
  -17.4230  -26.6690   21.4025 H   0  0  0  0  0  0
  -18.0349  -26.0101   22.9032 H   0  0  0  0  0  0
  -19.7981  -30.7336   24.2177 H   0  0  0  0  0  0
  -17.5047  -31.6276   24.5164 H   0  0  0  0  0  0
  -15.5384  -30.2966   23.7708 H   0  0  0  0  0  0
  -15.8715  -28.0798   22.7129 H   0  0  0  0  0  0
  -24.5861  -30.7149   25.7601 H   0  0  0  0  0  0
  -24.8831  -32.3029   26.4555 H   0  0  0  0  0  0
  -25.7843  -30.9084   27.0195 H   0  0  0  0  0  0
  -26.3219  -29.6476   24.1542 H   0  0  0  0  0  0
  -27.3954  -29.7286   25.5280 H   0  0  0  0  0  0
  -27.9195  -30.3990   24.0059 H   0  0  0  0  0  0
  -27.2590  -33.3722   26.1888 H   0  0  0  0  0  0
  -28.3947  -32.6818   25.0391 H   0  0  0  0  0  0
  -28.0607  -31.8607   26.5564 H   0  0  0  0  0  0
  -28.2560  -38.0056   24.7512 H   0  0  0  0  0  0
  -28.1082  -36.2580   24.6296 H   0  0  0  0  0  0
  -27.2276  -37.1381   25.8868 H   0  0  0  0  0  0
  -20.9698  -29.8688   21.6549 H   0  0  0  0  0  0
  -26.0102  -38.2716   24.1414 H   0  0  0  0  0  0
  -30.8783  -21.6585   19.2714 H   0  0  0  0  0  0
  -30.5012  -23.3776   19.2233 H   0  0  0  0  0  0
  -29.5920  -22.2508   18.2257 H   0  0  0  0  0  0
  -30.5513  -21.6453   21.8133 H   0  0  0  0  0  0
  -29.0538  -22.2599   22.5041 H   0  0  0  0  0  0
  -30.1972  -23.3682   21.7589 H   0  0  0  0  0  0
  -28.0456  -20.1333   21.0991 H   0  0  0  0  0  0
  -28.1665  -20.1451   19.3959 H   0  0  0  0  0  0
  -30.4260  -18.8031   21.2387 H   0  0  0  0  0  0
  -30.5005  -18.7762   19.5313 H   0  0  0  0  0  0
  -27.2215  -23.6592   20.9391 H   0  0  0  0  0  0
  -27.4897  -23.7010   19.2517 H   0  0  0  0  0  0
  -28.5877  -16.6964   20.4649 H   0  0  0  0  0  0
  1 25  1  0  0  0
  1 30  2  0  0  0
  1 77  1  0  0  0
  2  3  1  0  0  0
  2 25  1  0  0  0
  2 78  1  0  0  0
  2 79  1  0  0  0
  3  4  1  0  0  0
  3 80  1  0  0  0
  3 81  1  0  0  0
  4  5  1  0  0  0
  4 82  1  0  0  0
  4 83  1  0  0  0
  5  6  1  0  0  0
  5 26  1  0  0  0
  5 84  1  0  0  0
  6 25  1  0  0  0
  6 85  1  0  0  0
  6 86  1  0  0  0
  7  8  2  0  0  0
  7 26  1  0  0  0
  7 29  1  0  0  0
  8  9  1  0  0  0
  8 22  1  0  0  0
  9 10  1  0  0  0
  9 27  2  0  0  0
 10 11  2  0  0  0
 10 15  1  0  0  0
 11 12  1  0  0  0
 11 87  1  0  0  0
 12 13  2  0  0  0
 12 88  1  0  0  0
 13 14  1  0  0  0
 13 31  1  0  0  0
 14 15  2  0  0  0
 14 89  1  0  0  0
 15 90  1  0  0  0
 16 17  2  0  0  0
 16 21  1  0  0  0
 16 31  1  0  0  0
 17 18  1  0  0  0
 17 91  1  0  0  0
 18 19  2  0  0  0
 18 92  1  0  0  0
 19 20  1  0  0  0
 19 24  1  0  0  0
 20 21  2  0  0  0
 20 93  1  0  0  0
 21 23  1  0  0  0
 22 28  1  0  0  0
 22 32  2  0  0  0
 26 27  1  0  0  0
 28 94  1  0  0  0
 28 95  1  0  0  0
 29 96  1  0  0  0
 29 97  1  0  0  0
 33 34  1  0  0  0
 33 66  1  0  0  0
 33 70  2  0  0  0
 34 36  1  0  0  0
 34 59  1  0  0  0
 34 98  1  0  0  0
 35 44  2  0  0  0
 35 45  1  0  0  0
 35 68  1  0  0  0
 36 56  1  0  0  0
 36 99  1  0  0  0
 37 39  1  0  0  0
 37 47  1  0  0  0
 37 66  1  0  0  0
 37100  1  0  0  0
 38 43  2  0  0  0
 38 46  1  0  0  0
 38 47  1  0  0  0
 39 64  1  0  0  0
 39 67  2  0  0  0
 40 52  1  0  0  0
 40 53  2  0  0  0
 40 58  1  0  0  0
 41101  1  0  0  0
 41102  1  0  0  0
 41103  1  0  0  0
 41 48  1  0  0  0
 42 43  1  0  0  0
 42 66  1  0  0  0
 42104  1  0  0  0
 42105  1  0  0  0
 43 44  1  0  0  0
 44106  1  0  0  0
 45 46  2  0  0  0
 45107  1  0  0  0
 46108  1  0  0  0
 47109  1  0  0  0
 47110  1  0  0  0
 48 56  1  0  0  0
 48 65  1  0  0  0
 48111  1  0  0  0
 49 50  1  0  0  0
 49 53  1  0  0  0
 49 64  1  0  0  0
 49112  1  0  0  0
 50 51  1  0  0  0
 50113  1  0  0  0
 50114  1  0  0  0
 51 52  1  0  0  0
 51115  1  0  0  0
 51116  1  0  0  0
 52117  1  0  0  0
 52118  1  0  0  0
 53 54  1  0  0  0
 54 55  2  0  0  0
 54119  1  0  0  0
 55 57  1  0  0  0
 55120  1  0  0  0
 56 69  2  0  0  0
 57 58  2  0  0  0
 57121  1  0  0  0
 58122  1  0  0  0
 59 60  1  0  0  0
 59 61  1  0  0  0
 59 62  1  0  0  0
 60123  1  0  0  0
 60124  1  0  0  0
 60125  1  0  0  0
 61126  1  0  0  0
 61127  1  0  0  0
 61128  1  0  0  0
 62129  1  0  0  0
 62130  1  0  0  0
 62131  1  0  0  0
 63 65  1  0  0  0
 63132  1  0  0  0
 63133  1  0  0  0
 63134  1  0  0  0
 64135  1  0  0  0
 65136  1  0  0  0
 68 75  1  0  0  0
 71137  1  0  0  0
 71138  1  0  0  0
 71139  1  0  0  0
 71 76  1  0  0  0
 72 76  1  0  0  0
 72140  1  0  0  0
 72141  1  0  0  0
 72142  1  0  0  0
 73 74  1  0  0  0
 73 76  1  0  0  0
 73143  1  0  0  0
 73144  1  0  0  0
 74 77  1  0  0  0
 74145  1  0  0  0
 74146  1  0  0  0
 75 76  1  0  0  0
 75147  1  0  0  0
 75148  1  0  0  0
 77149  1  0  0  0
M  ISO  4   1 100  68 101  75 101  77 100
M  END
> <chiral flag>
0

> <version>
0

> <s_m_source_file>
/data/baiqing/PycharmProjects/Reinvent-master-3.2/result/LINK_invent/BTK/process_docking_weight1_custom_sum_contain_oxygen_bond_distance_aromatic_linkinvent_7_9_3/rearranged_h_0104.sdf

> <i_m_source_file_index>
13

> <r_mmod_Potential_Energy-OPLS-2005>
2277.4052734375

> <r_mmod_Stretch_Energy-OPLS-2005>
1099.90832519531

> <r_mmod_Bend_Energy-OPLS-2005>
608.213195800781

> <r_mmod_Torsional_Energy-OPLS-2005>
218.865051269531

> <r_mmod_Improper_Torsional_Energy-OPLS-2005>
3.63943529129028

> <r_mmod_Van_der_Waal_Energy-OPLS-2005>
107.358436584473

> <r_mmod_Electrostatic_Energy-OPLS-2005>
-352.276336669922

> <r_mmod_Solvation_Energy-OPLS-2005>
-210.505645751953

> <b_mmod_Minimization_Converged-OPLS-2005>
0

> <r_mmod_RMS_Derivative-OPLS-2005>
0.656064033508301

$$$$
13
                    3D
 Structure written by MMmdl.
175183  0  0  1  0            999 V2000
  -30.5770  -14.7867   20.4617 C   0  0  0  0  0  0
  -30.4427  -12.4832   19.4742 C   0  0  0  0  0  0
  -29.5100  -12.5098   18.2402 C   0  0  0  0  0  0
  -28.0368  -12.3317   18.6540 C   0  0  0  0  0  0
  -27.6440  -13.2294   19.8553 C   0  0  2  0  0  0
  -28.6885  -13.1469   20.9875 C   0  0  0  0  0  0
  -25.2528  -13.8194   20.5728 C   0  0  0  0  0  0
  -24.1809  -13.0456   20.9213 C   0  0  0  0  0  0
  -24.6393  -11.6921   20.8776 C   0  0  0  0  0  0
  -23.9084  -10.4290   21.0416 C   0  0  0  0  0  0
  -24.3621   -9.4198   21.9195 C   0  0  0  0  0  0
  -23.6295   -8.2241   22.0763 C   0  0  0  0  0  0
  -22.4287   -8.0283   21.3543 C   0  0  0  0  0  0
  -21.9919   -9.0252   20.4657 C   0  0  0  0  0  0
  -22.7252  -10.2127   20.3065 C   0  0  0  0  0  0
  -21.6850   -6.0733   22.5277 C   0  0  0  0  0  0
  -21.4000   -6.5636   23.8209 C   0  0  0  0  0  0
  -21.3658   -5.6795   24.9173 C   0  0  0  0  0  0
  -21.6049   -4.3057   24.7226 C   0  0  0  0  0  0
  -21.8821   -3.8148   23.4354 C   0  0  0  0  0  0
  -21.9187   -4.6964   22.3402 C   0  0  0  0  0  0
  -22.7824  -13.5218   21.1855 C   0  0  0  0  0  0
  -22.1657   -4.2146   21.0986 F   0  0  0  0  0  0
  -21.5638   -3.4548   25.7742 F   0  0  0  0  0  0
  -29.9825  -13.5386   20.4119 N   0  0  0  0  0  0
  -26.2951  -12.9396   20.3313 N   0  0  0  0  0  0
  -25.9324  -11.6543   20.5801 N   0  0  0  0  0  0
  -22.0465  -12.8207   22.0410 N   0  0  0  0  0  0
  -25.4239  -15.1931   20.4142 N   0  0  0  0  0  0
  -31.7240  -14.9213   20.0267 O   0  0  0  0  0  0
  -21.6633   -6.8887   21.4243 O   0  0  0  0  0  0
  -22.3511  -14.5522   20.6714 O   0  0  0  0  0  0
  -24.6359  -31.8576   23.1928 C   0  0  0  0  0  0
  -25.9155  -32.4766   23.8308 C   0  0  1  0  0  0
  -27.2161  -27.2232   20.1502 C   0  0  0  0  0  0
  -25.5954  -33.8566   24.2263 N   0  0  0  0  0  0
  -23.4345  -30.4708   21.5479 C   0  0  2  0  0  0
  -24.8754  -28.9001   20.1244 C   0  0  0  0  0  0
  -22.7538  -29.4619   22.5026 C   0  0  0  0  0  0
  -18.0267  -28.1381   22.8506 C   0  0  0  0  0  0
  -24.1476  -36.7279   23.2658 C   0  0  0  0  0  0
  -25.9790  -30.7531   21.3753 C   0  0  0  0  0  0
  -26.0492  -29.3685   20.7263 C   0  0  0  0  0  0
  -27.2259  -28.5456   20.7238 C   0  0  0  0  0  0
  -26.0257  -26.8307   19.5117 C   0  0  0  0  0  0
  -24.8674  -27.6371   19.5087 C   0  0  0  0  0  0
  -23.6478  -29.7931   20.1684 C   0  0  0  0  0  0
  -25.4104  -36.3084   24.0329 C   0  0  1  0  0  0
  -20.5892  -28.3713   23.1282 C   0  0  2  0  0  0
  -20.6774  -26.9440   22.5428 C   0  0  0  0  0  0
  -19.5753  -26.6386   21.5248 C   0  0  0  0  0  0
  -18.1910  -26.7943   22.1624 C   0  0  0  0  0  0
  -19.1528  -28.8866   23.2867 C   0  0  0  0  0  0
  -18.9466  -30.1459   23.8896 C   0  0  0  0  0  0
  -17.6457  -30.6605   24.0565 C   0  0  0  0  0  0
  -25.9071  -34.9455   23.5109 C   0  0  0  0  0  0
  -16.5349  -29.9105   23.6350 C   0  0  0  0  0  0
  -16.7259  -28.6494   23.0395 C   0  0  0  0  0  0
  -26.4503  -31.6605   25.0714 C   0  0  0  0  0  0
  -25.3689  -31.3718   26.1427 C   0  0  0  0  0  0
  -27.0403  -30.3034   24.6220 C   0  0  0  0  0  0
  -27.6114  -32.4358   25.7415 C   0  0  0  0  0  0
  -27.5583  -37.1753   24.8467 C   0  0  0  0  0  0
  -21.4255  -29.3046   22.3702 N   0  0  0  0  0  0
  -26.4292  -37.3773   23.9424 N   0  0  0  0  0  0
  -24.7032  -31.0451   22.0953 N   0  0  0  0  0  0
  -23.4185  -28.8200   23.3199 O   0  0  0  0  0  0
  -28.3288  -26.3482   20.1246 O   0  0  0  0  0  0
  -26.5677  -34.8942   22.4697 O   0  0  0  0  0  0
  -23.5510  -32.1455   23.7172 O   0  0  0  0  0  0
  -29.0094  -21.6843   18.2573 C   0  0  0  0  0  0
  -28.5918  -22.1724   19.5481 C   0  0  0  0  0  0
  -29.6956  -20.4698   18.3687 C   0  0  0  0  0  0
  -28.8498  -21.0659   20.3757 C   0  0  0  0  0  0
  -28.7312  -22.4493   16.9711 C   0  0  0  0  0  0
  -28.5335  -20.9207   21.8332 C   0  0  0  0  0  0
  -26.3466  -23.2744   20.1091 C   0  0  0  0  0  0
  -30.5039  -20.2907   15.8657 C   0  0  0  0  0  0
  -30.4742  -18.2631   17.1891 C   0  0  0  0  0  0
  -32.0960  -20.0760   17.7168 C   0  0  0  0  0  0
  -29.7229  -16.1598   22.2852 C   0  0  0  0  0  0
  -30.0031  -18.6381   20.3150 C   0  0  0  0  0  0
  -29.3552  -17.1501   20.0566 C   0  0  0  0  0  0
  -28.3122  -24.9009   20.6111 C   0  0  0  0  0  0
  -27.8103  -23.5992   19.7610 C   0  0  1  0  0  0
  -30.6340  -19.7865   17.3257 C   0  0  0  0  0  0
  -29.4854  -19.9729   19.6834 N   0  0  0  0  0  0
  -29.8199  -15.9047   20.8491 N   0  0  0  0  0  0
  -31.4783  -12.6325   19.1602 H   0  0  0  0  0  0
  -30.4225  -11.5067   19.9597 H   0  0  0  0  0  0
  -29.7945  -11.7262   17.5357 H   0  0  0  0  0  0
  -29.6231  -13.4565   17.7108 H   0  0  0  0  0  0
  -27.8894  -11.2836   18.9162 H   0  0  0  0  0  0
  -27.3778  -12.5276   17.8075 H   0  0  0  0  0  0
  -27.6438  -14.2543   19.4836 H   0  0  0  0  0  0
  -28.7400  -12.1348   21.3927 H   0  0  0  0  0  0
  -28.3982  -13.7921   21.8172 H   0  0  0  0  0  0
  -25.2769   -9.5657   22.4789 H   0  0  0  0  0  0
  -23.9989   -7.4621   22.7477 H   0  0  0  0  0  0
  -21.0862   -8.8798   19.8953 H   0  0  0  0  0  0
  -22.3738  -10.9684   19.6184 H   0  0  0  0  0  0
  -21.1985   -7.6142   23.9716 H   0  0  0  0  0  0
  -21.1482   -6.0524   25.9082 H   0  0  0  0  0  0
  -22.0606   -2.7608   23.2860 H   0  0  0  0  0  0
  -22.4085  -11.9853   22.4776 H   0  0  0  0  0  0
  -21.1100  -13.1237   22.2638 H   0  0  0  0  0  0
  -24.6645  -15.8533   20.5411 H   0  0  0  0  0  0
  -26.2797  -15.6290   20.0966 H   0  0  0  0  0  0
  -26.7235  -32.5392   23.1066 H   0  0  0  0  0  0
  -25.0015  -33.9706   25.0353 H   0  0  0  0  0  0
  -22.7310  -31.2911   21.3936 H   0  0  0  0  0  0
  -23.3782  -35.9562   23.3317 H   0  0  0  0  0  0
  -24.3557  -36.8941   22.2082 H   0  0  0  0  0  0
  -23.7199  -37.6439   23.6739 H   0  0  0  0  0  0
  -26.1139  -31.5069   20.5996 H   0  0  0  0  0  0
  -26.8581  -30.8111   22.0037 H   0  0  0  0  0  0
  -28.1302  -28.9064   21.1930 H   0  0  0  0  0  0
  -25.9831  -25.8816   18.9981 H   0  0  0  0  0  0
  -23.9681  -27.2711   19.0298 H   0  0  0  0  0  0
  -23.7683  -30.5647   19.4081 H   0  0  0  0  0  0
  -22.7601  -29.2282   19.8747 H   0  0  0  0  0  0
  -25.1266  -36.1967   25.0817 H   0  0  0  0  0  0
  -20.9912  -28.3328   24.1434 H   0  0  0  0  0  0
  -20.5755  -26.2324   23.3631 H   0  0  0  0  0  0
  -21.6614  -26.7549   22.1151 H   0  0  0  0  0  0
  -19.6970  -25.6301   21.1260 H   0  0  0  0  0  0
  -19.6688  -27.3213   20.6792 H   0  0  0  0  0  0
  -17.4202  -26.6740   21.3987 H   0  0  0  0  0  0
  -18.0254  -26.0040   22.8962 H   0  0  0  0  0  0
  -19.7941  -30.7238   24.2291 H   0  0  0  0  0  0
  -17.5040  -31.6297   24.5158 H   0  0  0  0  0  0
  -15.5352  -30.3004   23.7702 H   0  0  0  0  0  0
  -15.8648  -28.0816   22.7162 H   0  0  0  0  0  0
  -24.5941  -30.7013   25.7706 H   0  0  0  0  0  0
  -24.8734  -32.2823   26.4821 H   0  0  0  0  0  0
  -25.7937  -30.8931   27.0258 H   0  0  0  0  0  0
  -26.3010  -29.6670   24.1326 H   0  0  0  0  0  0
  -27.4242  -29.7421   25.4749 H   0  0  0  0  0  0
  -27.8796  -30.4365   23.9371 H   0  0  0  0  0  0
  -27.2912  -33.3825   26.1785 H   0  0  0  0  0  0
  -28.3953  -32.6638   25.0177 H   0  0  0  0  0  0
  -28.0729  -31.8571   26.5444 H   0  0  0  0  0  0
  -28.2585  -38.0065   24.7573 H   0  0  0  0  0  0
  -28.1098  -36.2602   24.6240 H   0  0  0  0  0  0
  -27.2283  -37.1333   25.8857 H   0  0  0  0  0  0
  -20.9533  -29.8694   21.6782 H   0  0  0  0  0  0
  -26.0199  -38.2853   24.1441 H   0  0  0  0  0  0
  -27.8462  -23.0765   17.0206 H   0  0  0  0  0  0
  -28.4781  -21.7771   16.1566 H   0  0  0  0  0  0
  -29.5776  -23.0769   16.6951 H   0  0  0  0  0  0
  -27.9810  -21.7797   22.2074 H   0  0  0  0  0  0
  -29.4426  -20.8300   22.4269 H   0  0  0  0  0  0
  -27.9220  -20.0343   22.0157 H   0  0  0  0  0  0
  -25.8834  -22.6711   19.3292 H   0  0  0  0  0  0
  -25.7403  -24.1685   20.2302 H   0  0  0  0  0  0
  -26.2678  -22.7179   21.0418 H   0  0  0  0  0  0
  -29.5228  -20.0734   15.4434 H   0  0  0  0  0  0
  -31.2181  -19.7994   15.2032 H   0  0  0  0  0  0
  -30.7189  -21.3525   15.7613 H   0  0  0  0  0  0
  -29.4248  -17.9785   17.1087 H   0  0  0  0  0  0
  -30.9590  -17.7352   18.0040 H   0  0  0  0  0  0
  -30.9704  -17.8759   16.2969 H   0  0  0  0  0  0
  -32.3158  -21.1430   17.6590 H   0  0  0  0  0  0
  -32.7982  -19.5608   17.0592 H   0  0  0  0  0  0
  -32.3178  -19.7632   18.7331 H   0  0  0  0  0  0
  -28.8150  -16.7174   22.5213 H   0  0  0  0  0  0
  -30.5794  -16.7508   22.6112 H   0  0  0  0  0  0
  -29.7138  -15.2473   22.8806 H   0  0  0  0  0  0
  -31.0669  -18.5705   20.1015 H   0  0  0  0  0  0
  -29.9899  -18.7832   21.3919 H   0  0  0  0  0  0
  -29.3615  -16.8537   19.0141 H   0  0  0  0  0  0
  -28.2894  -17.2491   20.2607 H   0  0  0  0  0  0
  -29.3485  -24.7018   20.8839 H   0  0  0  0  0  0
  -27.7945  -24.8987   21.5725 H   0  0  0  0  0  0
  -27.7820  -24.0586   18.7826 H   0  0  0  0  0  0
  1 25  1  0  0  0
  1 30  2  0  0  0
  1 88  1  0  0  0
  2  3  1  0  0  0
  2 25  1  0  0  0
  2 89  1  0  0  0
  2 90  1  0  0  0
  3  4  1  0  0  0
  3 91  1  0  0  0
  3 92  1  0  0  0
  4  5  1  0  0  0
  4 93  1  0  0  0
  4 94  1  0  0  0
  5  6  1  0  0  0
  5 26  1  0  0  0
  5 95  1  0  0  0
  6 25  1  0  0  0
  6 96  1  0  0  0
  6 97  1  0  0  0
  7  8  2  0  0  0
  7 26  1  0  0  0
  7 29  1  0  0  0
  8  9  1  0  0  0
  8 22  1  0  0  0
  9 10  1  0  0  0
  9 27  2  0  0  0
 10 11  2  0  0  0
 10 15  1  0  0  0
 11 12  1  0  0  0
 11 98  1  0  0  0
 12 13  2  0  0  0
 12 99  1  0  0  0
 13 14  1  0  0  0
 13 31  1  0  0  0
 14 15  2  0  0  0
 14100  1  0  0  0
 15101  1  0  0  0
 16 17  2  0  0  0
 16 21  1  0  0  0
 16 31  1  0  0  0
 17 18  1  0  0  0
 17102  1  0  0  0
 18 19  2  0  0  0
 18103  1  0  0  0
 19 20  1  0  0  0
 19 24  1  0  0  0
 20 21  2  0  0  0
 20104  1  0  0  0
 21 23  1  0  0  0
 22 28  1  0  0  0
 22 32  2  0  0  0
 26 27  1  0  0  0
 28105  1  0  0  0
 28106  1  0  0  0
 29107  1  0  0  0
 29108  1  0  0  0
 33 34  1  0  0  0
 33 66  1  0  0  0
 33 70  2  0  0  0
 34 36  1  0  0  0
 34 59  1  0  0  0
 34109  1  0  0  0
 35 44  2  0  0  0
 35 45  1  0  0  0
 35 68  1  0  0  0
 36 56  1  0  0  0
 36110  1  0  0  0
 37 39  1  0  0  0
 37 47  1  0  0  0
 37 66  1  0  0  0
 37111  1  0  0  0
 38 43  2  0  0  0
 38 46  1  0  0  0
 38 47  1  0  0  0
 39 64  1  0  0  0
 39 67  2  0  0  0
 40 52  1  0  0  0
 40 53  2  0  0  0
 40 58  1  0  0  0
 41112  1  0  0  0
 41113  1  0  0  0
 41114  1  0  0  0
 41 48  1  0  0  0
 42 43  1  0  0  0
 42 66  1  0  0  0
 42115  1  0  0  0
 42116  1  0  0  0
 43 44  1  0  0  0
 44117  1  0  0  0
 45 46  2  0  0  0
 45118  1  0  0  0
 46119  1  0  0  0
 47120  1  0  0  0
 47121  1  0  0  0
 48 56  1  0  0  0
 48 65  1  0  0  0
 48122  1  0  0  0
 49 50  1  0  0  0
 49 53  1  0  0  0
 49 64  1  0  0  0
 49123  1  0  0  0
 50 51  1  0  0  0
 50124  1  0  0  0
 50125  1  0  0  0
 51 52  1  0  0  0
 51126  1  0  0  0
 51127  1  0  0  0
 52128  1  0  0  0
 52129  1  0  0  0
 53 54  1  0  0  0
 54 55  2  0  0  0
 54130  1  0  0  0
 55 57  1  0  0  0
 55131  1  0  0  0
 56 69  2  0  0  0
 57 58  2  0  0  0
 57132  1  0  0  0
 58133  1  0  0  0
 59 60  1  0  0  0
 59 61  1  0  0  0
 59 62  1  0  0  0
 60134  1  0  0  0
 60135  1  0  0  0
 60136  1  0  0  0
 61137  1  0  0  0
 61138  1  0  0  0
 61139  1  0  0  0
 62140  1  0  0  0
 62141  1  0  0  0
 62142  1  0  0  0
 63 65  1  0  0  0
 63143  1  0  0  0
 63144  1  0  0  0
 63145  1  0  0  0
 64146  1  0  0  0
 65147  1  0  0  0
 68 84  1  0  0  0
 71 72  1  0  0  0
 71 73  2  0  0  0
 71 75  1  0  0  0
 72 74  2  0  0  0
 72 85  1  0  0  0
 73 86  1  0  0  0
 73 87  1  0  0  0
 74 76  1  0  0  0
 74 87  1  0  0  0
 75148  1  0  0  0
 75149  1  0  0  0
 75150  1  0  0  0
 76151  1  0  0  0
 76152  1  0  0  0
 76153  1  0  0  0
 77154  1  0  0  0
 77155  1  0  0  0
 77156  1  0  0  0
 77 85  1  0  0  0
 78157  1  0  0  0
 78158  1  0  0  0
 78159  1  0  0  0
 78 86  1  0  0  0
 79 86  1  0  0  0
 79160  1  0  0  0
 79161  1  0  0  0
 79162  1  0  0  0
 80 86  1  0  0  0
 80163  1  0  0  0
 80164  1  0  0  0
 80165  1  0  0  0
 81 88  1  0  0  0
 81166  1  0  0  0
 81167  1  0  0  0
 81168  1  0  0  0
 82 83  1  0  0  0
 82 87  1  0  0  0
 82169  1  0  0  0
 82170  1  0  0  0
 83 88  1  0  0  0
 83171  1  0  0  0
 83172  1  0  0  0
 84 85  1  0  0  0
 84173  1  0  0  0
 84174  1  0  0  0
 85175  1  0  0  0
M  ISO  4   1 100  68 101  84 101  88 100
M  END
> <chiral flag>
0

> <version>
0

> <s_m_source_file>
/data/baiqing/PycharmProjects/Reinvent-master-3.2/result/LINK_invent/BTK/process_docking_weight1_custom_sum_contain_oxygen_bond_distance_aromatic_linkinvent_7_9_3/rearranged_h_0104.sdf

> <i_m_source_file_index>
14

> <r_mmod_Potential_Energy-OPLS-2005>
468.448883056641

> <r_mmod_Stretch_Energy-OPLS-2005>
181.737869262695

> <r_mmod_Bend_Energy-OPLS-2005>
263.066589355469

> <r_mmod_Torsional_Energy-OPLS-2005>
353.907440185547

> <r_mmod_Improper_Torsional_Energy-OPLS-2005>
6.89912176132202

> <r_mmod_Van_der_Waal_Energy-OPLS-2005>
132.470199584961

> <r_mmod_Electrostatic_Energy-OPLS-2005>
-379.247772216797

> <r_mmod_Solvation_Energy-OPLS-2005>
-190.398529052734

> <b_mmod_Minimization_Converged-OPLS-2005>
0

> <r_mmod_RMS_Derivative-OPLS-2005>
4.58031702041626

$$$$
14
                    3D
 Structure written by MMmdl.
161169  0  0  1  0            999 V2000
  -30.5726  -14.8832   20.4231 C   0  0  0  0  0  0
  -30.4343  -12.5425   19.4950 C   0  0  0  0  0  0
  -29.5139  -12.5138   18.2536 C   0  0  0  0  0  0
  -28.0455  -12.3202   18.6728 C   0  0  0  0  0  0
  -27.6341  -13.2441   19.8497 C   0  0  2  0  0  0
  -28.6797  -13.2457   20.9871 C   0  0  0  0  0  0
  -25.2469  -13.8206   20.5734 C   0  0  0  0  0  0
  -24.1782  -13.0434   20.9221 C   0  0  0  0  0  0
  -24.6389  -11.6912   20.8760 C   0  0  0  0  0  0
  -23.9069  -10.4288   21.0412 C   0  0  0  0  0  0
  -24.3616   -9.4205   21.9188 C   0  0  0  0  0  0
  -23.6293   -8.2242   22.0761 C   0  0  0  0  0  0
  -22.4281   -8.0275   21.3549 C   0  0  0  0  0  0
  -21.9913   -9.0246   20.4655 C   0  0  0  0  0  0
  -22.7236  -10.2123   20.3068 C   0  0  0  0  0  0
  -21.6857   -6.0729   22.5272 C   0  0  0  0  0  0
  -21.4013   -6.5639   23.8199 C   0  0  0  0  0  0
  -21.3661   -5.6798   24.9169 C   0  0  0  0  0  0
  -21.6046   -4.3061   24.7227 C   0  0  0  0  0  0
  -21.8818   -3.8144   23.4352 C   0  0  0  0  0  0
  -21.9194   -4.6955   22.3404 C   0  0  0  0  0  0
  -22.7802  -13.5201   21.1857 C   0  0  0  0  0  0
  -22.1666   -4.2136   21.0983 F   0  0  0  0  0  0
  -21.5627   -3.4547   25.7742 F   0  0  0  0  0  0
  -29.9620  -13.6353   20.3910 N   0  0  0  0  0  0
  -26.2907  -12.9435   20.3312 N   0  0  0  0  0  0
  -25.9326  -11.6564   20.5779 N   0  0  0  0  0  0
  -22.0459  -12.8199   22.0422 N   0  0  0  0  0  0
  -25.4127  -15.1939   20.4162 N   0  0  0  0  0  0
  -31.7682  -14.9406   20.1182 O   0  0  0  0  0  0
  -21.6654   -6.8864   21.4235 O   0  0  0  0  0  0
  -22.3494  -14.5510   20.6696 O   0  0  0  0  0  0
  -24.6395  -31.8467   23.1905 C   0  0  0  0  0  0
  -25.9191  -32.4706   23.8263 C   0  0  1  0  0  0
  -27.2230  -27.1731   20.1438 C   0  0  0  0  0  0
  -25.5949  -33.8500   24.2197 N   0  0  0  0  0  0
  -23.4394  -30.4658   21.5352 C   0  0  2  0  0  0
  -24.8896  -28.8940   20.1117 C   0  0  0  0  0  0
  -22.7542  -29.4559   22.4882 C   0  0  0  0  0  0
  -18.0299  -28.1378   22.8498 C   0  0  0  0  0  0
  -24.1478  -36.7226   23.2637 C   0  0  0  0  0  0
  -25.9914  -30.7334   21.3806 C   0  0  0  0  0  0
  -26.0634  -29.3465   20.7252 C   0  0  0  0  0  0
  -27.2276  -28.4999   20.7255 C   0  0  0  0  0  0
  -26.0215  -26.8074   19.4975 C   0  0  0  0  0  0
  -24.8788  -27.6370   19.4859 C   0  0  0  0  0  0
  -23.6641  -29.7913   20.1549 C   0  0  0  0  0  0
  -25.4109  -36.3014   24.0318 C   0  0  1  0  0  0
  -20.5910  -28.3694   23.1261 C   0  0  2  0  0  0
  -20.6774  -26.9399   22.5408 C   0  0  0  0  0  0
  -19.5743  -26.6370   21.5215 C   0  0  0  0  0  0
  -18.1932  -26.7918   22.1631 C   0  0  0  0  0  0
  -19.1559  -28.8853   23.2869 C   0  0  0  0  0  0
  -18.9472  -30.1456   23.8883 C   0  0  0  0  0  0
  -17.6470  -30.6580   24.0554 C   0  0  0  0  0  0
  -25.9069  -34.9404   23.5065 C   0  0  0  0  0  0
  -16.5359  -29.9068   23.6335 C   0  0  0  0  0  0
  -16.7289  -28.6479   23.0375 C   0  0  0  0  0  0
  -26.4554  -31.6563   25.0684 C   0  0  0  0  0  0
  -25.3761  -31.3691   26.1372 C   0  0  0  0  0  0
  -27.0408  -30.2971   24.6256 C   0  0  0  0  0  0
  -27.6082  -32.4351   25.7452 C   0  0  0  0  0  0
  -27.5562  -37.1781   24.8461 C   0  0  0  0  0  0
  -21.4236  -29.3045   22.3647 N   0  0  0  0  0  0
  -26.4266  -37.3739   23.9411 N   0  0  0  0  0  0
  -24.7096  -31.0355   22.0920 N   0  0  0  0  0  0
  -23.4211  -28.8114   23.3013 O   0  0  0  0  0  0
  -28.3184  -26.2532   20.2356 O   0  0  0  0  0  0
  -26.5652  -34.8911   22.4636 O   0  0  0  0  0  0
  -23.5530  -32.1318   23.7162 O   0  0  0  0  0  0
  -30.0799  -19.8200   21.4869 C   0  0  0  0  0  0
  -28.7467  -19.7907   19.5712 C   0  0  0  0  0  0
  -29.5907  -19.0063   20.4304 C   0  0  0  0  0  0
  -29.7585  -21.2222   21.6558 C   0  0  0  0  0  0
  -28.9527  -21.9458   20.6945 C   0  0  0  0  0  0
  -31.8107  -22.2514   22.7147 C   0  0  0  0  0  0
  -30.1112  -21.0621   24.1903 C   0  0  0  0  0  0
  -30.2165  -17.5195   20.0922 C   0  0  0  0  0  0
  -28.3389  -24.7548   19.8341 C   0  0  0  0  0  0
  -30.3317  -21.8951   22.9131 C   0  0  0  0  0  0
  -28.4403  -23.5038   20.9183 C   0  0  2  0  0  0
  -28.4263  -21.1451   19.7083 N   0  0  0  0  0  0
  -29.8210  -16.0758   20.5578 N   0  0  0  0  0  0
  -27.1668  -23.4067   21.6474 N   0  3  0  0  0  0
  -31.4684  -12.6864   19.1802 H   0  0  0  0  0  0
  -30.4140  -11.5826   20.0136 H   0  0  0  0  0  0
  -29.8149  -11.7157   17.5724 H   0  0  0  0  0  0
  -29.6192  -13.4466   17.6987 H   0  0  0  0  0  0
  -27.9238  -11.2769   18.9674 H   0  0  0  0  0  0
  -27.3842  -12.4731   17.8200 H   0  0  0  0  0  0
  -27.6072  -14.2534   19.4380 H   0  0  0  0  0  0
  -28.7523  -12.2638   21.4582 H   0  0  0  0  0  0
  -28.3967  -13.9454   21.7743 H   0  0  0  0  0  0
  -25.2746   -9.5694   22.4778 H   0  0  0  0  0  0
  -23.9996   -7.4644   22.7495 H   0  0  0  0  0  0
  -21.0836   -8.8758   19.8975 H   0  0  0  0  0  0
  -22.3670  -10.9666   19.6197 H   0  0  0  0  0  0
  -21.2009   -7.6146   23.9691 H   0  0  0  0  0  0
  -21.1485   -6.0537   25.9064 H   0  0  0  0  0  0
  -22.0599   -2.7605   23.2856 H   0  0  0  0  0  0
  -22.4089  -11.9868   22.4814 H   0  0  0  0  0  0
  -21.1076  -13.1221   22.2628 H   0  0  0  0  0  0
  -24.6396  -15.8387   20.5376 H   0  0  0  0  0  0
  -26.2474  -15.6403   20.0598 H   0  0  0  0  0  0
  -26.7247  -32.5335   23.0983 H   0  0  0  0  0  0
  -25.0090  -33.9616   25.0340 H   0  0  0  0  0  0
  -22.7400  -31.2903   21.3805 H   0  0  0  0  0  0
  -23.3746  -35.9553   23.3298 H   0  0  0  0  0  0
  -24.3574  -36.8853   22.2055 H   0  0  0  0  0  0
  -23.7233  -37.6423   23.6674 H   0  0  0  0  0  0
  -26.1374  -31.4877   20.6064 H   0  0  0  0  0  0
  -26.8673  -30.7882   22.0165 H   0  0  0  0  0  0
  -28.1232  -28.8418   21.2257 H   0  0  0  0  0  0
  -25.9209  -25.8490   19.0159 H   0  0  0  0  0  0
  -23.9785  -27.2842   19.0019 H   0  0  0  0  0  0
  -23.7974  -30.5644   19.3974 H   0  0  0  0  0  0
  -22.7795  -29.2299   19.8473 H   0  0  0  0  0  0
  -25.1302  -36.1834   25.0812 H   0  0  0  0  0  0
  -21.0005  -28.3260   24.1381 H   0  0  0  0  0  0
  -20.5660  -26.2299   23.3614 H   0  0  0  0  0  0
  -21.6636  -26.7405   22.1197 H   0  0  0  0  0  0
  -19.6884  -25.6279   21.1248 H   0  0  0  0  0  0
  -19.6670  -27.3175   20.6743 H   0  0  0  0  0  0
  -17.4194  -26.6695   21.4035 H   0  0  0  0  0  0
  -18.0314  -26.0052   22.9020 H   0  0  0  0  0  0
  -19.7955  -30.7280   24.2234 H   0  0  0  0  0  0
  -17.5025  -31.6264   24.5144 H   0  0  0  0  0  0
  -15.5361  -30.2965   23.7663 H   0  0  0  0  0  0
  -15.8691  -28.0787   22.7112 H   0  0  0  0  0  0
  -24.5994  -30.6960   25.7704 H   0  0  0  0  0  0
  -24.8888  -32.2854   26.4719 H   0  0  0  0  0  0
  -25.8063  -30.8957   27.0210 H   0  0  0  0  0  0
  -27.4012  -29.7270   25.4831 H   0  0  0  0  0  0
  -26.3010  -29.6719   24.1251 H   0  0  0  0  0  0
  -27.8927  -30.4203   23.9566 H   0  0  0  0  0  0
  -27.2680  -33.3658   26.2006 H   0  0  0  0  0  0
  -28.3895  -32.6931   25.0292 H   0  0  0  0  0  0
  -28.0790  -31.8543   26.5392 H   0  0  0  0  0  0
  -28.2566  -38.0085   24.7481 H   0  0  0  0  0  0
  -28.1068  -36.2612   24.6306 H   0  0  0  0  0  0
  -27.2295  -37.1456   25.8868 H   0  0  0  0  0  0
  -20.9427  -29.8765   21.6846 H   0  0  0  0  0  0
  -26.0129  -38.2803   24.1409 H   0  0  0  0  0  0
  -30.7681  -19.3531   22.1750 H   0  0  0  0  0  0
  -28.3384  -19.3218   18.6875 H   0  0  0  0  0  0
  -31.9439  -22.9107   21.8573 H   0  0  0  0  0  0
  -32.4206  -21.3627   22.5451 H   0  0  0  0  0  0
  -32.2139  -22.7672   23.5869 H   0  0  0  0  0  0
  -29.0563  -20.8170   24.3223 H   0  0  0  0  0  0
  -30.4257  -21.6180   25.0737 H   0  0  0  0  0  0
  -30.6714  -20.1282   24.1962 H   0  0  0  0  0  0
  -31.2723  -17.6133   20.3521 H   0  0  0  0  0  0
  -30.2206  -17.4679   19.0025 H   0  0  0  0  0  0
  -27.5513  -24.5312   19.1178 H   0  0  0  0  0  0
  -29.2485  -24.6783   19.2371 H   0  0  0  0  0  0
  -29.8049  -22.8165   23.1331 H   0  0  0  0  0  0
  -29.1611  -23.9414   21.5999 H   0  0  0  0  0  0
  -28.8537  -15.9427   20.8117 H   0  0  0  0  0  0
  -26.4614  -23.0267   21.0411 H   0  0  0  0  0  0
  -26.8766  -24.3081   21.9815 H   0  0  0  0  0  0
  -27.2686  -22.7841   22.4284 H   0  0  0  0  0  0
  1 25  1  0  0  0
  1 30  2  0  0  0
  1 83  1  0  0  0
  2  3  1  0  0  0
  2 25  1  0  0  0
  2 85  1  0  0  0
  2 86  1  0  0  0
  3  4  1  0  0  0
  3 87  1  0  0  0
  3 88  1  0  0  0
  4  5  1  0  0  0
  4 89  1  0  0  0
  4 90  1  0  0  0
  5  6  1  0  0  0
  5 26  1  0  0  0
  5 91  1  0  0  0
  6 25  1  0  0  0
  6 92  1  0  0  0
  6 93  1  0  0  0
  7  8  2  0  0  0
  7 26  1  0  0  0
  7 29  1  0  0  0
  8  9  1  0  0  0
  8 22  1  0  0  0
  9 10  1  0  0  0
  9 27  2  0  0  0
 10 11  2  0  0  0
 10 15  1  0  0  0
 11 12  1  0  0  0
 11 94  1  0  0  0
 12 13  2  0  0  0
 12 95  1  0  0  0
 13 14  1  0  0  0
 13 31  1  0  0  0
 14 15  2  0  0  0
 14 96  1  0  0  0
 15 97  1  0  0  0
 16 17  2  0  0  0
 16 21  1  0  0  0
 16 31  1  0  0  0
 17 18  1  0  0  0
 17 98  1  0  0  0
 18 19  2  0  0  0
 18 99  1  0  0  0
 19 20  1  0  0  0
 19 24  1  0  0  0
 20 21  2  0  0  0
 20100  1  0  0  0
 21 23  1  0  0  0
 22 28  1  0  0  0
 22 32  2  0  0  0
 26 27  1  0  0  0
 28101  1  0  0  0
 28102  1  0  0  0
 29103  1  0  0  0
 29104  1  0  0  0
 33 34  1  0  0  0
 33 66  1  0  0  0
 33 70  2  0  0  0
 34 36  1  0  0  0
 34 59  1  0  0  0
 34105  1  0  0  0
 35 44  2  0  0  0
 35 45  1  0  0  0
 35 68  1  0  0  0
 36 56  1  0  0  0
 36106  1  0  0  0
 37 39  1  0  0  0
 37 47  1  0  0  0
 37 66  1  0  0  0
 37107  1  0  0  0
 38 43  2  0  0  0
 38 46  1  0  0  0
 38 47  1  0  0  0
 39 64  1  0  0  0
 39 67  2  0  0  0
 40 52  1  0  0  0
 40 53  2  0  0  0
 40 58  1  0  0  0
 41108  1  0  0  0
 41109  1  0  0  0
 41110  1  0  0  0
 41 48  1  0  0  0
 42 43  1  0  0  0
 42 66  1  0  0  0
 42111  1  0  0  0
 42112  1  0  0  0
 43 44  1  0  0  0
 44113  1  0  0  0
 45 46  2  0  0  0
 45114  1  0  0  0
 46115  1  0  0  0
 47116  1  0  0  0
 47117  1  0  0  0
 48 56  1  0  0  0
 48 65  1  0  0  0
 48118  1  0  0  0
 49 50  1  0  0  0
 49 53  1  0  0  0
 49 64  1  0  0  0
 49119  1  0  0  0
 50 51  1  0  0  0
 50120  1  0  0  0
 50121  1  0  0  0
 51 52  1  0  0  0
 51122  1  0  0  0
 51123  1  0  0  0
 52124  1  0  0  0
 52125  1  0  0  0
 53 54  1  0  0  0
 54 55  2  0  0  0
 54126  1  0  0  0
 55 57  1  0  0  0
 55127  1  0  0  0
 56 69  2  0  0  0
 57 58  2  0  0  0
 57128  1  0  0  0
 58129  1  0  0  0
 59 60  1  0  0  0
 59 61  1  0  0  0
 59 62  1  0  0  0
 60130  1  0  0  0
 60131  1  0  0  0
 60132  1  0  0  0
 61133  1  0  0  0
 61134  1  0  0  0
 61135  1  0  0  0
 62136  1  0  0  0
 62137  1  0  0  0
 62138  1  0  0  0
 63 65  1  0  0  0
 63139  1  0  0  0
 63140  1  0  0  0
 63141  1  0  0  0
 64142  1  0  0  0
 65143  1  0  0  0
 68 79  1  0  0  0
 71 73  2  0  0  0
 71 74  1  0  0  0
 71144  1  0  0  0
 72 73  1  0  0  0
 72 82  2  0  0  0
 72145  1  0  0  0
 73 78  1  0  0  0
 74 75  2  0  0  0
 74 80  1  0  0  0
 75 81  1  0  0  0
 75 82  1  0  0  0
 76146  1  0  0  0
 76147  1  0  0  0
 76148  1  0  0  0
 76 80  1  0  0  0
 77 80  1  0  0  0
 77149  1  0  0  0
 77150  1  0  0  0
 77151  1  0  0  0
 78 83  1  0  0  0
 78152  1  0  0  0
 78153  1  0  0  0
 79 81  1  0  0  0
 79154  1  0  0  0
 79155  1  0  0  0
 80156  1  0  0  0
 81 84  1  0  0  0
 81157  1  0  0  0
 83158  1  0  0  0
 84159  1  0  0  0
 84160  1  0  0  0
 84161  1  0  0  0
M  CHG  1  84   1
M  ISO  4   1 100  68 101  79 101  83 100
M  END
> <chiral flag>
0

> <version>
0

> <s_m_source_file>
/data/baiqing/PycharmProjects/Reinvent-master-3.2/result/LINK_invent/BTK/process_docking_weight1_custom_sum_contain_oxygen_bond_distance_aromatic_linkinvent_7_9_3/rearranged_h_0104.sdf

> <i_m_source_file_index>
15

> <r_mmod_Potential_Energy-OPLS-2005>
-38.1143798828125

> <r_mmod_Stretch_Energy-OPLS-2005>
211.006713867188

> <r_mmod_Bend_Energy-OPLS-2005>
274.21435546875

> <r_mmod_Torsional_Energy-OPLS-2005>
215.999740600586

> <r_mmod_Improper_Torsional_Energy-OPLS-2005>
9.6631555557251

> <r_mmod_Van_der_Waal_Energy-OPLS-2005>
138.605575561523

> <r_mmod_Electrostatic_Energy-OPLS-2005>
-557.931945800781

> <r_mmod_Solvation_Energy-OPLS-2005>
-479.440582275391

> <b_mmod_Minimization_Converged-OPLS-2005>
0

> <r_mmod_RMS_Derivative-OPLS-2005>
1.96649181842804

$$$$
15
                    3D
 Structure written by MMmdl.
165173  0  0  1  0            999 V2000
  -30.5188  -15.0794   20.4265 C   0  0  0  0  0  0
  -30.4286  -12.6665   19.5374 C   0  0  0  0  0  0
  -29.5309  -12.5626   18.2791 C   0  0  0  0  0  0
  -28.0652  -12.3283   18.6854 C   0  0  0  0  0  0
  -27.6219  -13.2661   19.8398 C   0  0  2  0  0  0
  -28.6569  -13.3276   20.9842 C   0  0  0  0  0  0
  -25.2368  -13.8260   20.5716 C   0  0  0  0  0  0
  -24.1700  -13.0427   20.9206 C   0  0  0  0  0  0
  -24.6354  -11.6943   20.8729 C   0  0  0  0  0  0
  -23.9040  -10.4311   21.0400 C   0  0  0  0  0  0
  -24.3595   -9.4239   21.9174 C   0  0  0  0  0  0
  -23.6289   -8.2259   22.0760 C   0  0  0  0  0  0
  -22.4264   -8.0282   21.3554 C   0  0  0  0  0  0
  -21.9895   -9.0244   20.4640 C   0  0  0  0  0  0
  -22.7216  -10.2127   20.3062 C   0  0  0  0  0  0
  -21.6870   -6.0728   22.5271 C   0  0  0  0  0  0
  -21.4016   -6.5632   23.8200 C   0  0  0  0  0  0
  -21.3671   -5.6785   24.9163 C   0  0  0  0  0  0
  -21.6057   -4.3048   24.7219 C   0  0  0  0  0  0
  -21.8817   -3.8131   23.4337 C   0  0  0  0  0  0
  -21.9196   -4.6950   22.3398 C   0  0  0  0  0  0
  -22.7729  -13.5186   21.1865 C   0  0  0  0  0  0
  -22.1660   -4.2133   21.0980 F   0  0  0  0  0  0
  -21.5649   -3.4558   25.7745 F   0  0  0  0  0  0
  -29.9257  -13.7943   20.3987 N   0  0  0  0  0  0
  -26.2817  -12.9523   20.3234 N   0  0  0  0  0  0
  -25.9286  -11.6631   20.5674 N   0  0  0  0  0  0
  -22.0386  -12.8194   22.0451 N   0  0  0  0  0  0
  -25.3955  -15.1995   20.4253 N   0  0  0  0  0  0
  -31.6777  -15.1159   19.9926 O   0  0  0  0  0  0
  -21.6647   -6.8871   21.4225 O   0  0  0  0  0  0
  -22.3404  -14.5482   20.6711 O   0  0  0  0  0  0
  -24.6546  -31.8319   23.1785 C   0  0  0  0  0  0
  -25.9286  -32.4620   23.8222 C   0  0  1  0  0  0
  -27.2287  -27.0498   20.1380 C   0  0  0  0  0  0
  -25.6034  -33.8447   24.2145 N   0  0  0  0  0  0
  -23.4629  -30.4454   21.5254 C   0  0  2  0  0  0
  -24.9144  -28.8570   20.1059 C   0  0  0  0  0  0
  -22.7612  -29.4473   22.4811 C   0  0  0  0  0  0
  -18.0319  -28.1371   22.8443 C   0  0  0  0  0  0
  -24.1513  -36.7206   23.2634 C   0  0  0  0  0  0
  -26.0278  -30.6729   21.3961 C   0  0  0  0  0  0
  -26.0957  -29.2802   20.7268 C   0  0  0  0  0  0
  -27.2529  -28.3960   20.7176 C   0  0  0  0  0  0
  -26.0163  -26.7479   19.4800 C   0  0  0  0  0  0
  -24.8922  -27.6078   19.4652 C   0  0  0  0  0  0
  -23.6936  -29.7653   20.1492 C   0  0  0  0  0  0
  -25.4166  -36.2992   24.0288 C   0  0  1  0  0  0
  -20.5939  -28.3710   23.1186 C   0  0  2  0  0  0
  -20.6809  -26.9404   22.5384 C   0  0  0  0  0  0
  -19.5788  -26.6347   21.5197 C   0  0  0  0  0  0
  -18.1958  -26.7901   22.1589 C   0  0  0  0  0  0
  -19.1578  -28.8867   23.2791 C   0  0  0  0  0  0
  -18.9480  -30.1472   23.8802 C   0  0  0  0  0  0
  -17.6472  -30.6549   24.0554 C   0  0  0  0  0  0
  -25.9116  -34.9373   23.5018 C   0  0  0  0  0  0
  -16.5370  -29.9023   23.6351 C   0  0  0  0  0  0
  -16.7307  -28.6462   23.0340 C   0  0  0  0  0  0
  -26.4601  -31.6526   25.0709 C   0  0  0  0  0  0
  -25.3761  -31.3726   26.1369 C   0  0  0  0  0  0
  -27.0506  -30.2898   24.6410 C   0  0  0  0  0  0
  -27.6093  -32.4331   25.7518 C   0  0  0  0  0  0
  -27.5592  -37.1769   24.8460 C   0  0  0  0  0  0
  -21.4303  -29.3018   22.3551 N   0  0  0  0  0  0
  -26.4319  -37.3713   23.9385 N   0  0  0  0  0  0
  -24.7345  -31.0085   22.0852 N   0  0  0  0  0  0
  -23.4206  -28.8020   23.3007 O   0  0  0  0  0  0
  -28.2749  -26.0259   20.1902 O   0  0  0  0  0  0
  -26.5661  -34.8877   22.4574 O   0  0  0  0  0  0
  -23.5646  -32.1275   23.6911 O   0  0  0  0  0  0
  -28.3819  -20.3138   20.9051 C   0  0  0  0  0  0
  -30.4457  -20.5117   19.6860 C   0  0  0  0  0  0
  -28.3286  -18.7113   20.4887 C   0  0  0  0  0  0
  -30.7397  -18.9896   20.2716 C   0  0  0  0  0  0
  -29.0825  -21.3798   19.9305 C   0  0  2  0  0  0
  -29.6497  -17.8164   20.1637 C   0  0  1  0  0  0
  -29.7000  -16.4500   22.2623 C   0  0  0  0  0  0
  -30.0128  -23.7009   17.8061 C   0  0  0  0  0  0
  -31.1843  -24.6426   19.7509 C   0  0  0  0  0  0
  -28.0540  -24.4467   20.0180 C   0  0  0  0  0  0
  -29.2062  -23.1367   20.1275 C   0  0  2  0  0  0
  -29.8340  -16.3191   20.8023 N   0  0  0  0  0  0
  -30.3522  -23.5239   19.2425 N   0  3  0  0  0  0
  -31.4727  -12.7966   19.2486 H   0  0  0  0  0  0
  -30.4021  -11.7239   20.0883 H   0  0  0  0  0  0
  -29.8755  -11.7511   17.6341 H   0  0  0  0  0  0
  -29.6101  -13.4784   17.6885 H   0  0  0  0  0  0
  -27.9689  -11.2872   18.9978 H   0  0  0  0  0  0
  -27.4067  -12.4467   17.8234 H   0  0  0  0  0  0
  -27.5719  -14.2650   19.4035 H   0  0  0  0  0  0
  -28.7584  -12.3492   21.4614 H   0  0  0  0  0  0
  -28.3100  -14.0029   21.7604 H   0  0  0  0  0  0
  -25.2754   -9.5755   22.4720 H   0  0  0  0  0  0
  -24.0036   -7.4666   22.7485 H   0  0  0  0  0  0
  -21.0843   -8.8742   19.8930 H   0  0  0  0  0  0
  -22.3668  -10.9655   19.6163 H   0  0  0  0  0  0
  -21.1995   -7.6136   23.9691 H   0  0  0  0  0  0
  -21.1508   -6.0522   25.9064 H   0  0  0  0  0  0
  -22.0583   -2.7587   23.2843 H   0  0  0  0  0  0
  -22.4046  -11.9950   22.4987 H   0  0  0  0  0  0
  -21.0955  -13.1182   22.2521 H   0  0  0  0  0  0
  -24.6128  -15.8342   20.5419 H   0  0  0  0  0  0
  -26.2546  -15.6745   20.1789 H   0  0  0  0  0  0
  -26.7335  -32.5168   23.0919 H   0  0  0  0  0  0
  -25.0337  -33.9598   25.0395 H   0  0  0  0  0  0
  -22.7707  -31.2735   21.3595 H   0  0  0  0  0  0
  -23.3807  -35.9497   23.3270 H   0  0  0  0  0  0
  -24.3587  -36.8883   22.2053 H   0  0  0  0  0  0
  -23.7243  -37.6373   23.6708 H   0  0  0  0  0  0
  -26.2221  -31.4301   20.6354 H   0  0  0  0  0  0
  -26.8825  -30.7006   22.0608 H   0  0  0  0  0  0
  -28.1558  -28.7254   21.2115 H   0  0  0  0  0  0
  -25.9027  -25.7969   18.9826 H   0  0  0  0  0  0
  -23.9917  -27.2834   18.9614 H   0  0  0  0  0  0
  -23.8323  -30.5345   19.3881 H   0  0  0  0  0  0
  -22.8088  -29.2034   19.8410 H   0  0  0  0  0  0
  -25.1361  -36.1811   25.0778 H   0  0  0  0  0  0
  -21.0040  -28.3316   24.1304 H   0  0  0  0  0  0
  -20.5704  -26.2328   23.3604 H   0  0  0  0  0  0
  -21.6666  -26.7372   22.1197 H   0  0  0  0  0  0
  -19.6959  -25.6245   21.1245 H   0  0  0  0  0  0
  -19.6741  -27.3130   20.6709 H   0  0  0  0  0  0
  -17.4243  -26.6655   21.3974 H   0  0  0  0  0  0
  -18.0337  -26.0047   22.8990 H   0  0  0  0  0  0
  -19.7972  -30.7335   24.2088 H   0  0  0  0  0  0
  -17.5023  -31.6225   24.5160 H   0  0  0  0  0  0
  -15.5361  -30.2891   23.7733 H   0  0  0  0  0  0
  -15.8716  -28.0774   22.7062 H   0  0  0  0  0  0
  -24.5970  -30.7053   25.7666 H   0  0  0  0  0  0
  -24.8941  -32.2906   26.4723 H   0  0  0  0  0  0
  -25.8042  -30.8942   27.0183 H   0  0  0  0  0  0
  -26.3167  -29.6547   24.1436 H   0  0  0  0  0  0
  -27.4066  -29.7287   25.5062 H   0  0  0  0  0  0
  -27.9096  -30.4081   23.9807 H   0  0  0  0  0  0
  -27.2656  -33.3661   26.1991 H   0  0  0  0  0  0
  -28.3966  -32.6841   25.0396 H   0  0  0  0  0  0
  -28.0688  -31.8534   26.5530 H   0  0  0  0  0  0
  -28.2569  -38.0104   24.7542 H   0  0  0  0  0  0
  -28.1142  -36.2634   24.6270 H   0  0  0  0  0  0
  -27.2292  -37.1357   25.8855 H   0  0  0  0  0  0
  -20.9522  -29.8731   21.6710 H   0  0  0  0  0  0
  -26.0175  -38.2771   24.1390 H   0  0  0  0  0  0
  -28.8491  -20.3879   21.8898 H   0  0  0  0  0  0
  -27.3547  -20.6404   21.0622 H   0  0  0  0  0  0
  -30.6019  -20.4632   18.6058 H   0  0  0  0  0  0
  -31.2791  -21.1156   20.0473 H   0  0  0  0  0  0
  -27.6930  -18.6480   19.6052 H   0  0  0  0  0  0
  -27.7475  -18.1968   21.2545 H   0  0  0  0  0  0
  -31.0001  -19.1008   21.3250 H   0  0  0  0  0  0
  -31.6600  -18.6303   19.8096 H   0  0  0  0  0  0
  -28.5084  -21.2779   19.0084 H   0  0  0  0  0  0
  -29.5825  -17.5909   19.0974 H   0  0  0  0  0  0
  -29.5919  -17.4859   22.5868 H   0  0  0  0  0  0
  -30.5793  -16.0612   22.7823 H   0  0  0  0  0  0
  -28.8308  -15.9160   22.6408 H   0  0  0  0  0  0
  -30.9225  -23.7289   17.2051 H   0  0  0  0  0  0
  -29.4896  -24.6399   17.6212 H   0  0  0  0  0  0
  -29.3988  -22.8864   17.4192 H   0  0  0  0  0  0
  -32.0702  -24.7726   19.1272 H   0  0  0  0  0  0
  -31.5257  -24.4522   20.7689 H   0  0  0  0  0  0
  -30.6552  -25.5940   19.7330 H   0  0  0  0  0  0
  -27.2563  -24.1988   20.7146 H   0  0  0  0  0  0
  -27.5847  -24.3411   19.0410 H   0  0  0  0  0  0
  -29.5779  -23.2213   21.1492 H   0  0  0  0  0  0
  -30.9676  -22.7238   19.2674 H   0  0  0  0  0  0
  1 25  1  0  0  0
  1 30  2  0  0  0
  1 82  1  0  0  0
  2  3  1  0  0  0
  2 25  1  0  0  0
  2 84  1  0  0  0
  2 85  1  0  0  0
  3  4  1  0  0  0
  3 86  1  0  0  0
  3 87  1  0  0  0
  4  5  1  0  0  0
  4 88  1  0  0  0
  4 89  1  0  0  0
  5  6  1  0  0  0
  5 26  1  0  0  0
  5 90  1  0  0  0
  6 25  1  0  0  0
  6 91  1  0  0  0
  6 92  1  0  0  0
  7  8  2  0  0  0
  7 26  1  0  0  0
  7 29  1  0  0  0
  8  9  1  0  0  0
  8 22  1  0  0  0
  9 10  1  0  0  0
  9 27  2  0  0  0
 10 11  2  0  0  0
 10 15  1  0  0  0
 11 12  1  0  0  0
 11 93  1  0  0  0
 12 13  2  0  0  0
 12 94  1  0  0  0
 13 14  1  0  0  0
 13 31  1  0  0  0
 14 15  2  0  0  0
 14 95  1  0  0  0
 15 96  1  0  0  0
 16 17  2  0  0  0
 16 21  1  0  0  0
 16 31  1  0  0  0
 17 18  1  0  0  0
 17 97  1  0  0  0
 18 19  2  0  0  0
 18 98  1  0  0  0
 19 20  1  0  0  0
 19 24  1  0  0  0
 20 21  2  0  0  0
 20 99  1  0  0  0
 21 23  1  0  0  0
 22 28  1  0  0  0
 22 32  2  0  0  0
 26 27  1  0  0  0
 28100  1  0  0  0
 28101  1  0  0  0
 29102  1  0  0  0
 29103  1  0  0  0
 33 34  1  0  0  0
 33 66  1  0  0  0
 33 70  2  0  0  0
 34 36  1  0  0  0
 34 59  1  0  0  0
 34104  1  0  0  0
 35 44  2  0  0  0
 35 45  1  0  0  0
 35 68  1  0  0  0
 36 56  1  0  0  0
 36105  1  0  0  0
 37 39  1  0  0  0
 37 47  1  0  0  0
 37 66  1  0  0  0
 37106  1  0  0  0
 38 43  2  0  0  0
 38 46  1  0  0  0
 38 47  1  0  0  0
 39 64  1  0  0  0
 39 67  2  0  0  0
 40 52  1  0  0  0
 40 53  2  0  0  0
 40 58  1  0  0  0
 41107  1  0  0  0
 41108  1  0  0  0
 41109  1  0  0  0
 41 48  1  0  0  0
 42 43  1  0  0  0
 42 66  1  0  0  0
 42110  1  0  0  0
 42111  1  0  0  0
 43 44  1  0  0  0
 44112  1  0  0  0
 45 46  2  0  0  0
 45113  1  0  0  0
 46114  1  0  0  0
 47115  1  0  0  0
 47116  1  0  0  0
 48 56  1  0  0  0
 48 65  1  0  0  0
 48117  1  0  0  0
 49 50  1  0  0  0
 49 53  1  0  0  0
 49 64  1  0  0  0
 49118  1  0  0  0
 50 51  1  0  0  0
 50119  1  0  0  0
 50120  1  0  0  0
 51 52  1  0  0  0
 51121  1  0  0  0
 51122  1  0  0  0
 52123  1  0  0  0
 52124  1  0  0  0
 53 54  1  0  0  0
 54 55  2  0  0  0
 54125  1  0  0  0
 55 57  1  0  0  0
 55126  1  0  0  0
 56 69  2  0  0  0
 57 58  2  0  0  0
 57127  1  0  0  0
 58128  1  0  0  0
 59 60  1  0  0  0
 59 61  1  0  0  0
 59 62  1  0  0  0
 60129  1  0  0  0
 60130  1  0  0  0
 60131  1  0  0  0
 61132  1  0  0  0
 61133  1  0  0  0
 61134  1  0  0  0
 62135  1  0  0  0
 62136  1  0  0  0
 62137  1  0  0  0
 63 65  1  0  0  0
 63138  1  0  0  0
 63139  1  0  0  0
 63140  1  0  0  0
 64141  1  0  0  0
 65142  1  0  0  0
 68 80  1  0  0  0
 71 73  1  0  0  0
 71143  1  0  0  0
 71144  1  0  0  0
 71 75  1  0  0  0
 72 74  1  0  0  0
 72 75  1  0  0  0
 72145  1  0  0  0
 72146  1  0  0  0
 73 76  1  0  0  0
 73147  1  0  0  0
 73148  1  0  0  0
 74 76  1  0  0  0
 74149  1  0  0  0
 74150  1  0  0  0
 75 81  1  0  0  0
 75151  1  0  0  0
 76 82  1  0  0  0
 76152  1  0  0  0
 77 82  1  0  0  0
 77153  1  0  0  0
 77154  1  0  0  0
 77155  1  0  0  0
 78156  1  0  0  0
 78157  1  0  0  0
 78158  1  0  0  0
 78 83  1  0  0  0
 79 83  1  0  0  0
 79159  1  0  0  0
 79160  1  0  0  0
 79161  1  0  0  0
 80162  1  0  0  0
 80163  1  0  0  0
 80 81  1  0  0  0
 81 83  1  0  0  0
 81164  1  0  0  0
 83165  1  0  0  0
M  CHG  1  83   1
M  ISO  4   1 100  68 101  80 101  82 100
M  END
> <chiral flag>
0

> <version>
0

> <s_m_source_file>
/data/baiqing/PycharmProjects/Reinvent-master-3.2/result/LINK_invent/BTK/process_docking_weight1_custom_sum_contain_oxygen_bond_distance_aromatic_linkinvent_7_9_3/rearranged_h_0104.sdf

> <i_m_source_file_index>
16

> <r_mmod_Potential_Energy-OPLS-2005>
1043.81311035156

> <r_mmod_Stretch_Energy-OPLS-2005>
416.836700439453

> <r_mmod_Bend_Energy-OPLS-2005>
407.950408935547

> <r_mmod_Torsional_Energy-OPLS-2005>
366.772613525391

> <r_mmod_Improper_Torsional_Energy-OPLS-2005>
4.17861461639404

> <r_mmod_Van_der_Waal_Energy-OPLS-2005>
119.583427429199

> <r_mmod_Electrostatic_Energy-OPLS-2005>
-148.2470703125

> <r_mmod_Solvation_Energy-OPLS-2005>
-403.204406738281

> <b_mmod_Minimization_Converged-OPLS-2005>
0

> <r_mmod_RMS_Derivative-OPLS-2005>
3.85300183296204

$$$$
16
                    3D
 Structure written by MMmdl.
174182  0  0  1  0            999 V2000
  -30.5968  -14.6792   19.2397 C   0  0  0  0  0  0
  -31.0973  -12.4637   19.6686 C   0  0  0  0  0  0
  -30.2635  -11.9935   18.5387 C   0  0  0  0  0  0
  -28.9190  -12.0957   19.1686 C   0  0  0  0  0  0
  -28.2586  -13.5360   20.0001 C   0  0  2  0  0  0
  -29.3809  -13.6956   20.9674 C   0  0  0  0  0  0
  -25.1670  -14.6116   19.8261 C   0  0  0  0  0  0
  -23.8369  -13.8976   20.7150 C   0  0  0  0  0  0
  -24.0308  -12.6206   21.7507 C   0  0  0  0  0  0
  -23.5782  -11.0388   21.4928 C   0  0  0  0  0  0
  -24.1625   -9.9060   22.1730 C   0  0  0  0  0  0
  -23.6397   -8.5662   22.1462 C   0  0  0  0  0  0
  -22.4972   -8.2356   21.3783 C   0  0  0  0  0  0
  -22.0458   -9.2588   20.5118 C   0  0  0  0  0  0
  -22.5766  -10.5904   20.5556 C   0  0  0  0  0  0
  -21.7677   -6.1538   22.4933 C   0  0  0  0  0  0
  -21.4495   -6.6173   23.7930 C   0  0  0  0  0  0
  -21.3774   -5.7170   24.8828 C   0  0  0  0  0  0
  -21.6047   -4.3391   24.6875 C   0  0  0  0  0  0
  -21.8739   -3.8623   23.3943 C   0  0  0  0  0  0
  -21.9460   -4.7596   22.3095 C   0  0  0  0  0  0
  -22.4064  -14.1327   20.7637 C   0  0  0  0  0  0
  -22.1826   -4.2636   21.0725 F   0  0  0  0  0  0
  -21.5575   -3.4802   25.7366 F   0  0  0  0  0  0
  -30.4990  -13.7070   20.1157 N   0  0  0  0  0  0
  -26.8573  -13.9140   20.4780 N   0  0  0  0  0  0
  -25.4278  -12.6521   22.1419 N   0  0  0  0  0  0
  -21.6610  -13.5234   21.7182 N   0  0  0  0  0  0
  -25.2852  -15.7335   19.1202 N   0  0  0  0  0  0
  -31.5943  -15.3607   19.4527 O   0  0  0  0  0  0
  -21.8279   -7.0018   21.3942 O   0  0  0  0  0  0
  -21.9310  -14.9645   20.0469 O   0  0  0  0  0  0
  -24.7372  -31.7143   23.1054 C   0  0  0  0  0  0
  -25.9710  -32.3953   23.7774 C   0  0  1  0  0  0
  -26.5579  -25.7283   20.5870 C   0  0  0  0  0  0
  -25.6096  -33.7848   24.1552 N   0  0  0  0  0  0
  -23.5664  -30.3137   21.4765 C   0  0  2  0  0  0
  -24.9240  -28.4750   20.1360 C   0  0  0  0  0  0
  -22.7875  -29.3869   22.4524 C   0  0  0  0  0  0
  -18.0314  -28.1401   22.8467 C   0  0  0  0  0  0
  -24.1500  -36.6951   23.2673 C   0  0  0  0  0  0
  -26.1358  -30.1013   21.5253 C   0  0  0  0  0  0
  -26.0598  -28.5714   20.9340 C   0  0  0  0  0  0
  -26.8644  -27.2386   21.1039 C   0  0  0  0  0  0
  -25.6188  -26.0915   19.5615 C   0  0  0  0  0  0
  -24.8284  -27.2898   19.3834 C   0  0  0  0  0  0
  -23.8464  -29.5953   20.1110 C   0  0  0  0  0  0
  -25.4163  -36.2576   24.0226 C   0  0  1  0  0  0
  -20.5965  -28.3748   23.1077 C   0  0  2  0  0  0
  -20.6734  -26.9365   22.5449 C   0  0  0  0  0  0
  -19.5726  -26.6307   21.5240 C   0  0  0  0  0  0
  -18.1904  -26.7923   22.1629 C   0  0  0  0  0  0
  -19.1600  -28.8916   23.2732 C   0  0  0  0  0  0
  -18.9508  -30.1482   23.8806 C   0  0  0  0  0  0
  -17.6502  -30.6587   24.0532 C   0  0  0  0  0  0
  -25.9198  -34.8993   23.4746 C   0  0  0  0  0  0
  -16.5380  -29.9080   23.6348 C   0  0  0  0  0  0
  -16.7297  -28.6494   23.0385 C   0  0  0  0  0  0
  -26.4679  -31.6306   25.0691 C   0  0  0  0  0  0
  -25.3610  -31.3876   26.1233 C   0  0  0  0  0  0
  -27.0571  -30.2543   24.7001 C   0  0  0  0  0  0
  -27.6038  -32.4258   25.7517 C   0  0  0  0  0  0
  -27.5499  -37.1632   24.8462 C   0  0  0  0  0  0
  -21.4491  -29.2881   22.3321 N   0  0  0  0  0  0
  -26.4183  -37.3429   23.9432 N   0  0  0  0  0  0
  -24.8547  -30.7764   22.0804 N   0  0  0  0  0  0
  -23.4077  -28.7521   23.3084 O   0  0  0  0  0  0
  -26.9437  -24.0187   20.8737 O   0  0  0  0  0  0
  -26.5892  -34.8716   22.4398 O   0  0  0  0  0  0
  -23.6293  -32.0704   23.5559 O   0  0  0  0  0  0
  -26.9520  -14.3282   22.8854 C   0  0  0  0  0  0
  -27.6711  -12.8492   22.7642 C   0  0  0  0  0  0
  -27.5213  -11.6087   21.5960 C   0  0  0  0  0  0
  -25.6784  -14.8176   21.9771 C   0  0  0  0  0  0
  -26.5185  -11.5183   20.2165 C   0  0  0  0  0  0
  -28.2400  -12.5580   24.1763 C   0  0  0  0  0  0
  -30.6053  -10.6165   22.9588 C   0  0  0  0  0  0
  -28.1479   -9.1296   20.8358 C   0  0  0  0  0  0
  -24.6589  -17.3925   22.9685 C   0  0  0  0  0  0
  -29.2549   -9.8681   22.9775 C   0  0  0  0  0  0
  -26.3302  -19.4927   21.5611 C   0  0  0  0  0  0
  -28.4207  -13.9386   17.3247 C   0  0  0  0  0  0
  -26.2884  -21.9069   20.9892 C   0  0  0  0  0  0
  -26.9496  -12.9899   17.7833 C   0  0  0  0  0  0
  -28.0562  -10.1665   21.9837 C   0  0  1  0  0  0
  -25.5540  -17.1406   21.7333 C   0  0  2  0  0  0
  -25.4742  -12.4450   20.0346 N   0  0  0  0  0  0
  -29.6996  -14.7291   18.0762 N   0  0  0  0  0  0
  -26.6721  -11.6499   18.7388 O   0  0  0  0  0  0
  -32.1348  -12.6197   19.3666 H   0  0  0  0  0  0
  -31.1323  -11.7455   20.4771 H   0  0  0  0  0  0
  -30.5334  -10.9529   18.3253 H   0  0  0  0  0  0
  -30.4871  -12.4931   17.6005 H   0  0  0  0  0  0
  -29.0292  -11.2868   19.8607 H   0  0  0  0  0  0
  -28.6364  -11.5976   18.2455 H   0  0  0  0  0  0
  -28.1448  -14.4963   19.5472 H   0  0  0  0  0  0
  -29.3078  -14.6094   21.5692 H   0  0  0  0  0  0
  -29.6511  -12.8625   21.5974 H   0  0  0  0  0  0
  -24.9572  -10.1502   22.8664 H   0  0  0  0  0  0
  -24.0768   -7.8463   22.8207 H   0  0  0  0  0  0
  -21.1994   -9.0698   19.8658 H   0  0  0  0  0  0
  -22.1010  -11.3405   19.9419 H   0  0  0  0  0  0
  -21.2565   -7.6682   23.9602 H   0  0  0  0  0  0
  -21.1519   -6.0846   25.8757 H   0  0  0  0  0  0
  -22.0210   -2.8082   23.2314 H   0  0  0  0  0  0
  -22.0717  -12.9337   22.4217 H   0  0  0  0  0  0
  -20.7289  -13.8818   21.8839 H   0  0  0  0  0  0
  -24.4707  -16.2024   18.7451 H   0  0  0  0  0  0
  -26.1471  -16.0257   18.6648 H   0  0  0  0  0  0
  -26.7822  -32.4174   23.0481 H   0  0  0  0  0  0
  -25.0158  -33.8772   24.9657 H   0  0  0  0  0  0
  -22.9344  -31.1757   21.2596 H   0  0  0  0  0  0
  -23.3725  -35.9298   23.3207 H   0  0  0  0  0  0
  -24.3558  -36.8791   22.2110 H   0  0  0  0  0  0
  -23.7314  -37.6083   23.6912 H   0  0  0  0  0  0
  -26.4484  -30.7188   20.6831 H   0  0  0  0  0  0
  -26.9802  -30.1548   22.1935 H   0  0  0  0  0  0
  -27.6734  -27.2941   21.8144 H   0  0  0  0  0  0
  -25.3078  -25.2630   18.9396 H   0  0  0  0  0  0
  -24.0312  -27.2258   18.6559 H   0  0  0  0  0  0
  -24.1679  -30.3388   19.3767 H   0  0  0  0  0  0
  -22.9178  -29.1801   19.7166 H   0  0  0  0  0  0
  -25.1411  -36.1165   25.0699 H   0  0  0  0  0  0
  -21.0021  -28.3355   24.1198 H   0  0  0  0  0  0
  -20.5492  -26.2370   23.3726 H   0  0  0  0  0  0
  -21.6577  -26.7176   22.1299 H   0  0  0  0  0  0
  -19.6815  -25.6181   21.1318 H   0  0  0  0  0  0
  -19.6648  -27.3075   20.6731 H   0  0  0  0  0  0
  -17.4166  -26.6710   21.4027 H   0  0  0  0  0  0
  -18.0218  -26.0084   22.9031 H   0  0  0  0  0  0
  -19.7970  -30.7318   24.2145 H   0  0  0  0  0  0
  -17.5030  -31.6248   24.5144 H   0  0  0  0  0  0
  -15.5368  -30.2943   23.7693 H   0  0  0  0  0  0
  -15.8700  -28.0759   22.7166 H   0  0  0  0  0  0
  -24.5847  -30.7111   25.7655 H   0  0  0  0  0  0
  -24.8769  -32.3171   26.4214 H   0  0  0  0  0  0
  -25.7734  -30.9401   27.0277 H   0  0  0  0  0  0
  -26.3205  -29.6022   24.2289 H   0  0  0  0  0  0
  -27.3988  -29.7167   25.5847 H   0  0  0  0  0  0
  -27.9285  -30.3516   24.0524 H   0  0  0  0  0  0
  -27.2483  -33.3645   26.1746 H   0  0  0  0  0  0
  -28.4026  -32.6617   25.0492 H   0  0  0  0  0  0
  -28.0454  -31.8589   26.5712 H   0  0  0  0  0  0
  -28.2405  -38.0015   24.7434 H   0  0  0  0  0  0
  -28.1086  -36.2502   24.6333 H   0  0  0  0  0  0
  -27.2229  -37.1313   25.8867 H   0  0  0  0  0  0
  -20.9867  -29.8582   21.6382 H   0  0  0  0  0  0
  -25.9894  -38.2394   24.1496 H   0  0  0  0  0  0
  -27.2723  -14.9960   23.6654 H   0  0  0  0  0  0
  -27.7774  -13.2140   24.9291 H   0  0  0  0  0  0
  -29.3093  -12.7119   24.3278 H   0  0  0  0  0  0
  -27.9171  -11.5883   24.5479 H   0  0  0  0  0  0
  -31.1958  -10.3798   22.0794 H   0  0  0  0  0  0
  -31.1887  -10.2706   23.8135 H   0  0  0  0  0  0
  -30.5511  -11.6930   23.0607 H   0  0  0  0  0  0
  -28.2542   -8.1230   21.2287 H   0  0  0  0  0  0
  -29.0206   -9.2616   20.2100 H   0  0  0  0  0  0
  -27.2672   -9.0882   20.2074 H   0  0  0  0  0  0
  -25.2307  -17.7535   23.8315 H   0  0  0  0  0  0
  -24.1386  -16.4821   23.2696 H   0  0  0  0  0  0
  -23.8757  -18.1296   22.7725 H   0  0  0  0  0  0
  -28.8733   -9.8490   23.9986 H   0  0  0  0  0  0
  -29.5397   -8.8163   22.8446 H   0  0  0  0  0  0
  -26.2294  -19.6934   22.6433 H   0  0  0  0  0  0
  -27.4052  -19.3113   21.4508 H   0  0  0  0  0  0
  -27.9954  -14.7504   16.7345 H   0  0  0  0  0  0
  -28.8854  -13.3483   16.5352 H   0  0  0  0  0  0
  -26.0246  -21.8056   19.9269 H   0  0  0  0  0  0
  -25.3453  -22.1410   21.4898 H   0  0  0  0  0  0
  -26.6303  -12.6089   16.8170 H   0  0  0  0  0  0
  -26.1594  -13.7047   17.8788 H   0  0  0  0  0  0
  -27.1946   -9.7980   22.5427 H   0  0  0  0  0  0
  -24.8200  -17.1863   20.9389 H   0  0  0  0  0  0
  -29.9977  -15.5011   17.4946 H   0  0  0  0  0  0
  1 25  1  0  0  0
  1 30  2  0  0  0
  1 88  1  0  0  0
  2  3  1  0  0  0
  2 25  1  0  0  0
  2 90  1  0  0  0
  2 91  1  0  0  0
  3  4  1  0  0  0
  3 92  1  0  0  0
  3 93  1  0  0  0
  4  5  1  0  0  0
  4 94  1  0  0  0
  4 95  1  0  0  0
  5  6  1  0  0  0
  5 26  1  0  0  0
  5 96  1  0  0  0
  6 25  1  0  0  0
  6 97  1  0  0  0
  6 98  1  0  0  0
  7  8  2  0  0  0
  7 26  1  0  0  0
  7 29  1  0  0  0
  8  9  1  0  0  0
  8 22  1  0  0  0
  9 10  1  0  0  0
  9 27  2  0  0  0
 10 11  2  0  0  0
 10 15  1  0  0  0
 11 12  1  0  0  0
 11 99  1  0  0  0
 12 13  2  0  0  0
 12100  1  0  0  0
 13 14  1  0  0  0
 13 31  1  0  0  0
 14 15  2  0  0  0
 14101  1  0  0  0
 15102  1  0  0  0
 16 17  2  0  0  0
 16 21  1  0  0  0
 16 31  1  0  0  0
 17 18  1  0  0  0
 17103  1  0  0  0
 18 19  2  0  0  0
 18104  1  0  0  0
 19 20  1  0  0  0
 19 24  1  0  0  0
 20 21  2  0  0  0
 20105  1  0  0  0
 21 23  1  0  0  0
 22 28  1  0  0  0
 22 32  2  0  0  0
 26 27  1  0  0  0
 28106  1  0  0  0
 28107  1  0  0  0
 29108  1  0  0  0
 29109  1  0  0  0
 33 34  1  0  0  0
 33 66  1  0  0  0
 33 70  2  0  0  0
 34 36  1  0  0  0
 34 59  1  0  0  0
 34110  1  0  0  0
 35 44  2  0  0  0
 35 45  1  0  0  0
 35 68  1  0  0  0
 36 56  1  0  0  0
 36111  1  0  0  0
 37 39  1  0  0  0
 37 47  1  0  0  0
 37 66  1  0  0  0
 37112  1  0  0  0
 38 43  2  0  0  0
 38 46  1  0  0  0
 38 47  1  0  0  0
 39 64  1  0  0  0
 39 67  2  0  0  0
 40 52  1  0  0  0
 40 53  2  0  0  0
 40 58  1  0  0  0
 41113  1  0  0  0
 41114  1  0  0  0
 41115  1  0  0  0
 41 48  1  0  0  0
 42 43  1  0  0  0
 42 66  1  0  0  0
 42116  1  0  0  0
 42117  1  0  0  0
 43 44  1  0  0  0
 44118  1  0  0  0
 45 46  2  0  0  0
 45119  1  0  0  0
 46120  1  0  0  0
 47121  1  0  0  0
 47122  1  0  0  0
 48 56  1  0  0  0
 48 65  1  0  0  0
 48123  1  0  0  0
 49 50  1  0  0  0
 49 53  1  0  0  0
 49 64  1  0  0  0
 49124  1  0  0  0
 50 51  1  0  0  0
 50125  1  0  0  0
 50126  1  0  0  0
 51 52  1  0  0  0
 51127  1  0  0  0
 51128  1  0  0  0
 52129  1  0  0  0
 52130  1  0  0  0
 53 54  1  0  0  0
 54 55  2  0  0  0
 54131  1  0  0  0
 55 57  1  0  0  0
 55132  1  0  0  0
 56 69  2  0  0  0
 57 58  2  0  0  0
 57133  1  0  0  0
 58134  1  0  0  0
 59 60  1  0  0  0
 59 61  1  0  0  0
 59 62  1  0  0  0
 60135  1  0  0  0
 60136  1  0  0  0
 60137  1  0  0  0
 61138  1  0  0  0
 61139  1  0  0  0
 61140  1  0  0  0
 62141  1  0  0  0
 62142  1  0  0  0
 62143  1  0  0  0
 63 65  1  0  0  0
 63144  1  0  0  0
 63145  1  0  0  0
 63146  1  0  0  0
 64147  1  0  0  0
 65148  1  0  0  0
 68 83  1  0  0  0
 71 72  2  0  0  0
 71 74  1  0  0  0
 71149  1  0  0  0
 72 73  1  0  0  0
 72 76  1  0  0  0
 73 75  2  0  0  0
 73 85  1  0  0  0
 74 86  1  0  0  0
 74 87  2  0  0  0
 75 87  1  0  0  0
 75 89  1  0  0  0
 76150  1  0  0  0
 76151  1  0  0  0
 76152  1  0  0  0
 77 80  1  0  0  0
 77153  1  0  0  0
 77154  1  0  0  0
 77155  1  0  0  0
 78156  1  0  0  0
 78157  1  0  0  0
 78158  1  0  0  0
 78 85  1  0  0  0
 79159  1  0  0  0
 79160  1  0  0  0
 79161  1  0  0  0
 79 86  1  0  0  0
 80 85  1  0  0  0
 80162  1  0  0  0
 80163  1  0  0  0
 81 83  1  0  0  0
 81 86  1  0  0  0
 81164  1  0  0  0
 81165  1  0  0  0
 82 84  1  0  0  0
 82 88  1  0  0  0
 82166  1  0  0  0
 82167  1  0  0  0
 83168  1  0  0  0
 83169  1  0  0  0
 84 89  1  0  0  0
 84170  1  0  0  0
 84171  1  0  0  0
 85172  1  0  0  0
 86173  1  0  0  0
 88174  1  0  0  0
M  ISO  4   1 100  68 101  83 101  88 100
M  END
> <chiral flag>
0

> <version>
0

> <s_m_source_file>
/data/baiqing/PycharmProjects/Reinvent-master-3.2/result/LINK_invent/BTK/process_docking_weight1_custom_sum_contain_oxygen_bond_distance_aromatic_linkinvent_7_9_3/rearranged_h_0104.sdf

> <i_m_source_file_index>
17

> <r_mmod_Potential_Energy-OPLS-2005>
25786.056640625

> <r_mmod_Stretch_Energy-OPLS-2005>
14962.060546875

> <r_mmod_Bend_Energy-OPLS-2005>
2098.22900390625

> <r_mmod_Torsional_Energy-OPLS-2005>
653.165771484375

> <r_mmod_Improper_Torsional_Energy-OPLS-2005>
75.6406860351562

> <r_mmod_Van_der_Waal_Energy-OPLS-2005>
4482.6171875

> <r_mmod_Electrostatic_Energy-OPLS-2005>
-546.130798339844

> <r_mmod_Solvation_Energy-OPLS-2005>
-246.975128173828

> <b_mmod_Minimization_Converged-OPLS-2005>
0

> <r_mmod_RMS_Derivative-OPLS-2005>
28.3093795776367

$$$$
17
                    3D
 Structure written by MMmdl.
158165  0  0  1  0            999 V2000
  -30.5600  -14.9650   20.3649 C   0  0  0  0  0  0
  -30.4443  -12.5976   19.4805 C   0  0  0  0  0  0
  -29.5194  -12.4939   18.2472 C   0  0  0  0  0  0
  -28.0561  -12.2715   18.6817 C   0  0  0  0  0  0
  -27.6183  -13.2183   19.8282 C   0  0  2  0  0  0
  -28.6736  -13.3143   20.9516 C   0  0  0  0  0  0
  -25.2480  -13.8132   20.5753 C   0  0  0  0  0  0
  -24.1745  -13.0416   20.9234 C   0  0  0  0  0  0
  -24.6327  -11.6891   20.8768 C   0  0  0  0  0  0
  -23.8989  -10.4294   21.0407 C   0  0  0  0  0  0
  -24.3592   -9.4238   21.9180 C   0  0  0  0  0  0
  -23.6297   -8.2260   22.0755 C   0  0  0  0  0  0
  -22.4260   -8.0283   21.3565 C   0  0  0  0  0  0
  -21.9876   -9.0237   20.4662 C   0  0  0  0  0  0
  -22.7169  -10.2128   20.3054 C   0  0  0  0  0  0
  -21.6865   -6.0733   22.5269 C   0  0  0  0  0  0
  -21.4003   -6.5642   23.8197 C   0  0  0  0  0  0
  -21.3650   -5.6801   24.9164 C   0  0  0  0  0  0
  -21.6049   -4.3060   24.7220 C   0  0  0  0  0  0
  -21.8838   -3.8147   23.4346 C   0  0  0  0  0  0
  -21.9208   -4.6956   22.3394 C   0  0  0  0  0  0
  -22.7797  -13.5262   21.1877 C   0  0  0  0  0  0
  -22.1687   -4.2156   21.0962 F   0  0  0  0  0  0
  -21.5606   -3.4535   25.7730 F   0  0  0  0  0  0
  -29.9421  -13.7143   20.3252 N   0  0  0  0  0  0
  -26.2838  -12.9280   20.3284 N   0  0  0  0  0  0
  -25.9249  -11.6450   20.5776 N   0  0  0  0  0  0
  -22.0396  -12.8271   22.0417 N   0  0  0  0  0  0
  -25.4236  -15.1868   20.4206 N   0  0  0  0  0  0
  -31.7920  -14.9842   20.2872 O   0  0  0  0  0  0
  -21.6662   -6.8869   21.4233 O   0  0  0  0  0  0
  -22.3521  -14.5585   20.6739 O   0  0  0  0  0  0
  -24.6419  -31.8458   23.1874 C   0  0  0  0  0  0
  -25.9210  -32.4701   23.8263 C   0  0  1  0  0  0
  -27.2226  -27.1572   20.1428 C   0  0  0  0  0  0
  -25.5969  -33.8506   24.2191 N   0  0  0  0  0  0
  -23.4435  -30.4626   21.5343 C   0  0  2  0  0  0
  -24.8930  -28.8925   20.1078 C   0  0  0  0  0  0
  -22.7559  -29.4531   22.4863 C   0  0  0  0  0  0
  -18.0295  -28.1376   22.8497 C   0  0  0  0  0  0
  -24.1483  -36.7241   23.2639 C   0  0  0  0  0  0
  -25.9970  -30.7247   21.3827 C   0  0  0  0  0  0
  -26.0693  -29.3371   20.7247 C   0  0  0  0  0  0
  -27.2347  -28.4852   20.7272 C   0  0  0  0  0  0
  -26.0227  -26.8132   19.4789 C   0  0  0  0  0  0
  -24.8802  -27.6432   19.4699 C   0  0  0  0  0  0
  -23.6667  -29.7906   20.1536 C   0  0  0  0  0  0
  -25.4114  -36.3029   24.0314 C   0  0  1  0  0  0
  -20.5909  -28.3696   23.1234 C   0  0  2  0  0  0
  -20.6765  -26.9396   22.5395 C   0  0  0  0  0  0
  -19.5731  -26.6355   21.5209 C   0  0  0  0  0  0
  -18.1917  -26.7914   22.1637 C   0  0  0  0  0  0
  -19.1557  -28.8864   23.2842 C   0  0  0  0  0  0
  -18.9492  -30.1461   23.8855 C   0  0  0  0  0  0
  -17.6494  -30.6586   24.0551 C   0  0  0  0  0  0
  -25.9072  -34.9414   23.5051 C   0  0  0  0  0  0
  -16.5374  -29.9078   23.6355 C   0  0  0  0  0  0
  -16.7290  -28.6499   23.0373 C   0  0  0  0  0  0
  -26.4532  -31.6569   25.0697 C   0  0  0  0  0  0
  -25.3727  -31.3767   26.1406 C   0  0  0  0  0  0
  -27.0391  -30.2966   24.6265 C   0  0  0  0  0  0
  -27.6057  -32.4341   25.7479 C   0  0  0  0  0  0
  -27.5568  -37.1776   24.8469 C   0  0  0  0  0  0
  -21.4246  -29.3046   22.3646 N   0  0  0  0  0  0
  -26.4278  -37.3752   23.9408 N   0  0  0  0  0  0
  -24.7138  -31.0307   22.0910 N   0  0  0  0  0  0
  -23.4212  -28.8080   23.3003 O   0  0  0  0  0  0
  -28.2816  -26.1855   20.2287 O   0  0  0  0  0  0
  -26.5641  -34.8921   22.4623 O   0  0  0  0  0  0
  -23.5541  -32.1345   23.7100 O   0  0  0  0  0  0
  -27.1473  -21.4513   20.3995 C   0  0  0  0  0  0
  -29.0027  -16.2760   19.0054 C   0  0  0  0  0  0
  -29.8412  -20.6592   22.0769 C   0  0  0  0  0  0
  -28.9581  -23.3577   20.4869 C   0  0  0  0  0  0
  -30.1507  -17.6692   20.6479 C   0  0  0  0  0  0
  -29.1815  -19.0127   20.2788 C   0  0  0  0  0  0
  -28.0333  -24.6719   19.9862 C   0  0  0  0  0  0
  -28.6370  -21.7350   20.1174 C   0  0  1  0  0  0
  -29.8059  -16.1807   20.2319 N   0  0  0  0  0  0
  -29.5332  -20.5208   20.6353 N   0  3  1  0  0  0
  -31.4715  -12.7672   19.1544 H   0  0  0  0  0  0
  -30.4554  -11.6620   20.0424 H   0  0  0  0  0  0
  -29.8487  -11.6770   17.6046 H   0  0  0  0  0  0
  -29.5998  -13.3974   17.6430 H   0  0  0  0  0  0
  -27.9763  -11.2380   19.0227 H   0  0  0  0  0  0
  -27.3820  -12.3606   17.8286 H   0  0  0  0  0  0
  -27.5295  -14.1914   19.3651 H   0  0  0  0  0  0
  -28.7772  -12.3650   21.4801 H   0  0  0  0  0  0
  -28.3683  -14.0594   21.6897 H   0  0  0  0  0  0
  -25.2723   -9.5764   22.4756 H   0  0  0  0  0  0
  -24.0048   -7.4650   22.7449 H   0  0  0  0  0  0
  -21.0820   -8.8713   19.8966 H   0  0  0  0  0  0
  -22.3579  -10.9669   19.6178 H   0  0  0  0  0  0
  -21.1966   -7.6144   23.9706 H   0  0  0  0  0  0
  -21.1463   -6.0513   25.9075 H   0  0  0  0  0  0
  -22.0634   -2.7621   23.2823 H   0  0  0  0  0  0
  -22.3987  -11.9947   22.4832 H   0  0  0  0  0  0
  -21.1023  -13.1351   22.2607 H   0  0  0  0  0  0
  -24.6698  -15.8543   20.5483 H   0  0  0  0  0  0
  -26.2916  -15.6152   20.1286 H   0  0  0  0  0  0
  -26.7274  -32.5309   23.0991 H   0  0  0  0  0  0
  -25.0181  -33.9626   25.0389 H   0  0  0  0  0  0
  -22.7473  -31.2909   21.3802 H   0  0  0  0  0  0
  -23.3759  -35.9557   23.3282 H   0  0  0  0  0  0
  -24.3581  -36.8891   22.2060 H   0  0  0  0  0  0
  -23.7231  -37.6436   23.6673 H   0  0  0  0  0  0
  -26.1525  -31.4801   20.6110 H   0  0  0  0  0  0
  -26.8681  -30.7725   22.0242 H   0  0  0  0  0  0
  -28.1280  -28.8177   21.2368 H   0  0  0  0  0  0
  -25.9295  -25.8616   18.9780 H   0  0  0  0  0  0
  -23.9835  -27.3008   18.9706 H   0  0  0  0  0  0
  -23.7974  -30.5657   19.3962 H   0  0  0  0  0  0
  -22.7793  -29.2328   19.8491 H   0  0  0  0  0  0
  -25.1307  -36.1847   25.0807 H   0  0  0  0  0  0
  -21.0023  -28.3273   24.1339 H   0  0  0  0  0  0
  -20.5617  -26.2311   23.3614 H   0  0  0  0  0  0
  -21.6637  -26.7368   22.1223 H   0  0  0  0  0  0
  -19.6872  -25.6253   21.1267 H   0  0  0  0  0  0
  -19.6643  -27.3137   20.6718 H   0  0  0  0  0  0
  -17.4178  -26.6676   21.4046 H   0  0  0  0  0  0
  -18.0307  -26.0054   22.9029 H   0  0  0  0  0  0
  -19.7977  -30.7301   24.2175 H   0  0  0  0  0  0
  -17.5057  -31.6273   24.5171 H   0  0  0  0  0  0
  -15.5375  -30.2985   23.7700 H   0  0  0  0  0  0
  -15.8673  -28.0810   22.7112 H   0  0  0  0  0  0
  -24.5908  -30.7099   25.7756 H   0  0  0  0  0  0
  -24.8913  -32.2961   26.4752 H   0  0  0  0  0  0
  -25.8039  -30.9024   27.0234 H   0  0  0  0  0  0
  -26.3016  -29.6700   24.1242 H   0  0  0  0  0  0
  -27.3995  -29.7245   25.4821 H   0  0  0  0  0  0
  -27.8917  -30.4207   23.9586 H   0  0  0  0  0  0
  -27.2643  -33.3660   26.1997 H   0  0  0  0  0  0
  -28.3903  -32.6891   25.0342 H   0  0  0  0  0  0
  -28.0688  -31.8525   26.5461 H   0  0  0  0  0  0
  -28.2585  -38.0078   24.7531 H   0  0  0  0  0  0
  -28.1074  -36.2613   24.6276 H   0  0  0  0  0  0
  -27.2290  -37.1410   25.8879 H   0  0  0  0  0  0
  -20.9431  -29.8834   21.6908 H   0  0  0  0  0  0
  -26.0133  -38.2809   24.1445 H   0  0  0  0  0  0
  -26.5106  -22.2172   19.9566 H   0  0  0  0  0  0
  -26.9315  -21.4236   21.4675 H   0  0  0  0  0  0
  -26.8207  -20.5061   19.9674 H   0  0  0  0  0  0
  -27.9719  -16.5525   19.2291 H   0  0  0  0  0  0
  -28.9922  -15.3679   18.4064 H   0  0  0  0  0  0
  -29.4191  -17.0220   18.3288 H   0  0  0  0  0  0
  -30.5808  -19.9246   22.3941 H   0  0  0  0  0  0
  -28.9457  -20.5237   22.6821 H   0  0  0  0  0  0
  -30.2511  -21.6439   22.2994 H   0  0  0  0  0  0
  -28.9992  -23.4353   21.5725 H   0  0  0  0  0  0
  -29.9776  -23.5600   20.1596 H   0  0  0  0  0  0
  -30.2762  -17.6390   21.7314 H   0  0  0  0  0  0
  -31.1508  -17.8677   20.2578 H   0  0  0  0  0  0
  -28.2131  -18.8171   20.7360 H   0  0  0  0  0  0
  -28.9885  -19.0199   19.2058 H   0  0  0  0  0  0
  -27.0398  -24.4735   20.3865 H   0  0  0  0  0  0
  -27.9332  -24.5708   18.9041 H   0  0  0  0  0  0
  -28.7395  -21.6768   19.0320 H   0  0  0  0  0  0
  -30.4240  -20.6706   20.1840 H   0  0  0  0  0  0
  1 25  1  0  0  0
  1 30  2  0  0  0
  1 79  1  0  0  0
  2  3  1  0  0  0
  2 25  1  0  0  0
  2 81  1  0  0  0
  2 82  1  0  0  0
  3  4  1  0  0  0
  3 83  1  0  0  0
  3 84  1  0  0  0
  4  5  1  0  0  0
  4 85  1  0  0  0
  4 86  1  0  0  0
  5  6  1  0  0  0
  5 26  1  0  0  0
  5 87  1  0  0  0
  6 25  1  0  0  0
  6 88  1  0  0  0
  6 89  1  0  0  0
  7  8  2  0  0  0
  7 26  1  0  0  0
  7 29  1  0  0  0
  8  9  1  0  0  0
  8 22  1  0  0  0
  9 10  1  0  0  0
  9 27  2  0  0  0
 10 11  2  0  0  0
 10 15  1  0  0  0
 11 12  1  0  0  0
 11 90  1  0  0  0
 12 13  2  0  0  0
 12 91  1  0  0  0
 13 14  1  0  0  0
 13 31  1  0  0  0
 14 15  2  0  0  0
 14 92  1  0  0  0
 15 93  1  0  0  0
 16 17  2  0  0  0
 16 21  1  0  0  0
 16 31  1  0  0  0
 17 18  1  0  0  0
 17 94  1  0  0  0
 18 19  2  0  0  0
 18 95  1  0  0  0
 19 20  1  0  0  0
 19 24  1  0  0  0
 20 21  2  0  0  0
 20 96  1  0  0  0
 21 23  1  0  0  0
 22 28  1  0  0  0
 22 32  2  0  0  0
 26 27  1  0  0  0
 28 97  1  0  0  0
 28 98  1  0  0  0
 29 99  1  0  0  0
 29100  1  0  0  0
 33 34  1  0  0  0
 33 66  1  0  0  0
 33 70  2  0  0  0
 34 36  1  0  0  0
 34 59  1  0  0  0
 34101  1  0  0  0
 35 44  2  0  0  0
 35 45  1  0  0  0
 35 68  1  0  0  0
 36 56  1  0  0  0
 36102  1  0  0  0
 37 39  1  0  0  0
 37 47  1  0  0  0
 37 66  1  0  0  0
 37103  1  0  0  0
 38 43  2  0  0  0
 38 46  1  0  0  0
 38 47  1  0  0  0
 39 64  1  0  0  0
 39 67  2  0  0  0
 40 52  1  0  0  0
 40 53  2  0  0  0
 40 58  1  0  0  0
 41104  1  0  0  0
 41105  1  0  0  0
 41106  1  0  0  0
 41 48  1  0  0  0
 42 43  1  0  0  0
 42 66  1  0  0  0
 42107  1  0  0  0
 42108  1  0  0  0
 43 44  1  0  0  0
 44109  1  0  0  0
 45 46  2  0  0  0
 45110  1  0  0  0
 46111  1  0  0  0
 47112  1  0  0  0
 47113  1  0  0  0
 48 56  1  0  0  0
 48 65  1  0  0  0
 48114  1  0  0  0
 49 50  1  0  0  0
 49 53  1  0  0  0
 49 64  1  0  0  0
 49115  1  0  0  0
 50 51  1  0  0  0
 50116  1  0  0  0
 50117  1  0  0  0
 51 52  1  0  0  0
 51118  1  0  0  0
 51119  1  0  0  0
 52120  1  0  0  0
 52121  1  0  0  0
 53 54  1  0  0  0
 54 55  2  0  0  0
 54122  1  0  0  0
 55 57  1  0  0  0
 55123  1  0  0  0
 56 69  2  0  0  0
 57 58  2  0  0  0
 57124  1  0  0  0
 58125  1  0  0  0
 59 60  1  0  0  0
 59 61  1  0  0  0
 59 62  1  0  0  0
 60126  1  0  0  0
 60127  1  0  0  0
 60128  1  0  0  0
 61129  1  0  0  0
 61130  1  0  0  0
 61131  1  0  0  0
 62132  1  0  0  0
 62133  1  0  0  0
 62134  1  0  0  0
 63 65  1  0  0  0
 63135  1  0  0  0
 63136  1  0  0  0
 63137  1  0  0  0
 64138  1  0  0  0
 65139  1  0  0  0
 68 77  1  0  0  0
 71140  1  0  0  0
 71141  1  0  0  0
 71142  1  0  0  0
 71 78  1  0  0  0
 72 79  1  0  0  0
 72143  1  0  0  0
 72144  1  0  0  0
 72145  1  0  0  0
 73146  1  0  0  0
 73147  1  0  0  0
 73148  1  0  0  0
 73 80  1  0  0  0
 74 77  1  0  0  0
 74 78  1  0  0  0
 74149  1  0  0  0
 74150  1  0  0  0
 75 76  1  0  0  0
 75 79  1  0  0  0
 75151  1  0  0  0
 75152  1  0  0  0
 76 80  1  0  0  0
 76153  1  0  0  0
 76154  1  0  0  0
 77155  1  0  0  0
 77156  1  0  0  0
 78 80  1  0  0  0
 78157  1  0  0  0
 80158  1  0  0  0
M  CHG  1  80   1
M  ISO  4   1 100  68 101  77 101  79 100
M  END
> <chiral flag>
0

> <version>
0

> <s_m_source_file>
/data/baiqing/PycharmProjects/Reinvent-master-3.2/result/LINK_invent/BTK/process_docking_weight1_custom_sum_contain_oxygen_bond_distance_aromatic_linkinvent_7_9_3/rearranged_h_0104.sdf

> <i_m_source_file_index>
18

> <r_mmod_Potential_Energy-OPLS-2005>
538.287780761719

> <r_mmod_Stretch_Energy-OPLS-2005>
268.749145507812

> <r_mmod_Bend_Energy-OPLS-2005>
256.963653564453

> <r_mmod_Torsional_Energy-OPLS-2005>
305.067230224609

> <r_mmod_Improper_Torsional_Energy-OPLS-2005>
8.38954544067383

> <r_mmod_Van_der_Waal_Energy-OPLS-2005>
121.516792297363

> <r_mmod_Electrostatic_Energy-OPLS-2005>
-173.845794677734

> <r_mmod_Solvation_Energy-OPLS-2005>
-448.157470703125

> <b_mmod_Minimization_Converged-OPLS-2005>
0

> <r_mmod_RMS_Derivative-OPLS-2005>
3.39524412155151

$$$$
18
                    3D
 Structure written by MMmdl.
170178  0  0  1  0            999 V2000
  -30.6759  -14.4937   20.5083 C   0  0  0  0  0  0
  -30.4183  -12.2958   19.4318 C   0  0  0  0  0  0
  -29.4969  -12.4799   18.2091 C   0  0  0  0  0  0
  -28.0126  -12.3717   18.6170 C   0  0  0  0  0  0
  -27.6554  -13.2027   19.8785 C   0  0  2  0  0  0
  -28.7012  -13.0058   20.9961 C   0  0  0  0  0  0
  -25.2534  -13.8152   20.5735 C   0  0  0  0  0  0
  -24.1783  -13.0446   20.9172 C   0  0  0  0  0  0
  -24.6344  -11.6905   20.8726 C   0  0  0  0  0  0
  -23.9057  -10.4296   21.0413 C   0  0  0  0  0  0
  -24.3602   -9.4217   21.9190 C   0  0  0  0  0  0
  -23.6288   -8.2254   22.0783 C   0  0  0  0  0  0
  -22.4265   -8.0283   21.3587 C   0  0  0  0  0  0
  -21.9906   -9.0252   20.4675 C   0  0  0  0  0  0
  -22.7234  -10.2127   20.3073 C   0  0  0  0  0  0
  -21.6856   -6.0721   22.5284 C   0  0  0  0  0  0
  -21.4013   -6.5642   23.8203 C   0  0  0  0  0  0
  -21.3648   -5.6834   24.9174 C   0  0  0  0  0  0
  -21.6026   -4.3092   24.7254 C   0  0  0  0  0  0
  -21.8817   -3.8157   23.4391 C   0  0  0  0  0  0
  -21.9192   -4.6939   22.3427 C   0  0  0  0  0  0
  -22.7798  -13.5245   21.1814 C   0  0  0  0  0  0
  -22.1659   -4.2105   21.1008 F   0  0  0  0  0  0
  -21.5641   -3.4593   25.7779 F   0  0  0  0  0  0
  -30.0216  -13.3060   20.4257 N   0  0  0  0  0  0
  -26.2967  -12.9317   20.3396 N   0  0  0  0  0  0
  -25.9265  -11.6502   20.5772 N   0  0  0  0  0  0
  -22.0467  -12.8219   22.0352 N   0  0  0  0  0  0
  -25.4333  -15.1878   20.4186 N   0  0  0  0  0  0
  -31.8416  -14.6390   20.1302 O   0  0  0  0  0  0
  -21.6662   -6.8864   21.4260 O   0  0  0  0  0  0
  -22.3494  -14.5563   20.6684 O   0  0  0  0  0  0
  -24.6165  -31.8683   23.2119 C   0  0  0  0  0  0
  -25.9082  -32.4819   23.8369 C   0  0  1  0  0  0
  -27.2306  -27.4199   20.0829 C   0  0  0  0  0  0
  -25.5940  -33.8609   24.2301 N   0  0  0  0  0  0
  -23.4029  -30.4924   21.5556 C   0  0  2  0  0  0
  -24.8505  -28.9696   20.1108 C   0  0  0  0  0  0
  -22.7449  -29.4619   22.5016 C   0  0  0  0  0  0
  -18.0273  -28.1365   22.8509 C   0  0  0  0  0  0
  -24.1504  -36.7323   23.2626 C   0  0  0  0  0  0
  -25.9343  -30.8289   21.3695 C   0  0  0  0  0  0
  -26.0119  -29.4620   20.7182 C   0  0  0  0  0  0
  -27.1990  -28.6879   20.7180 C   0  0  0  0  0  0
  -26.0473  -26.9603   19.4638 C   0  0  0  0  0  0
  -24.8651  -27.7173   19.4811 C   0  0  0  0  0  0
  -23.6120  -29.8355   20.1665 C   0  0  0  0  0  0
  -25.4123  -36.3090   24.0308 C   0  0  1  0  0  0
  -20.5870  -28.3643   23.1368 C   0  0  2  0  0  0
  -20.6782  -26.9389   22.5441 C   0  0  0  0  0  0
  -19.5742  -26.6378   21.5253 C   0  0  0  0  0  0
  -18.1915  -26.7912   22.1646 C   0  0  0  0  0  0
  -19.1520  -28.8830   23.2921 C   0  0  0  0  0  0
  -18.9444  -30.1445   23.8910 C   0  0  0  0  0  0
  -17.6441  -30.6579   24.0565 C   0  0  0  0  0  0
  -25.9056  -34.9462   23.5091 C   0  0  0  0  0  0
  -16.5338  -29.9071   23.6329 C   0  0  0  0  0  0
  -16.7263  -28.6489   23.0361 C   0  0  0  0  0  0
  -26.4502  -31.6575   25.0686 C   0  0  0  0  0  0
  -25.3748  -31.3701   26.1416 C   0  0  0  0  0  0
  -27.0340  -30.3006   24.6060 C   0  0  0  0  0  0
  -27.6047  -32.4299   25.7504 C   0  0  0  0  0  0
  -27.5575  -37.1824   24.8451 C   0  0  0  0  0  0
  -21.4171  -29.2986   22.3762 N   0  0  0  0  0  0
  -26.4292  -37.3787   23.9389 N   0  0  0  0  0  0
  -24.6693  -31.0781   22.1025 N   0  0  0  0  0  0
  -23.4236  -28.8158   23.3034 O   0  0  0  0  0  0
  -28.3751  -26.6388   20.1479 O   0  0  0  0  0  0
  -26.5611  -34.8927   22.4650 O   0  0  0  0  0  0
  -23.5365  -32.1429   23.7511 O   0  0  0  0  0  0
  -28.0553  -21.0618   20.1385 C   0  0  0  0  0  0
  -27.8123  -22.4442   19.9977 C   0  0  0  0  0  0
  -29.1766  -20.4855   19.4961 C   0  0  0  0  0  0
  -28.6975  -23.2273   19.2292 C   0  0  0  0  0  0
  -30.0960  -21.3873   18.8900 C   0  0  0  0  0  0
  -31.3959  -20.9328   18.2475 C   0  0  0  0  0  0
  -29.2020  -18.3050   16.1608 C   0  0  0  0  0  0
  -28.9135  -16.3078   17.5498 C   0  0  0  0  0  0
  -28.2294  -24.5337   18.5750 C   0  0  0  0  0  0
  -29.3551  -18.1256   20.6330 C   0  0  0  0  0  0
  -30.4117  -16.9679   20.6663 C   0  0  0  0  0  0
  -28.0705  -18.5024   18.3871 C   0  0  0  0  0  0
  -28.8287  -25.9217   18.9814 C   0  0  0  0  0  0
  -29.2662  -18.9477   19.2975 C   0  0  1  0  0  0
  -29.8535  -22.7116   18.7577 N   0  0  0  0  0  0
  -29.9129  -15.5777   20.7829 N   0  0  0  0  0  0
  -28.3978  -17.6454   17.2144 N   0  3  0  0  0  0
  -31.4680  -12.3791   19.1460 H   0  0  0  0  0  0
  -30.3104  -11.2918   19.8459 H   0  0  0  0  0  0
  -29.7210  -11.7307   17.4490 H   0  0  0  0  0  0
  -29.6856  -13.4466   17.7425 H   0  0  0  0  0  0
  -27.7914  -11.3190   18.7984 H   0  0  0  0  0  0
  -27.3832  -12.6795   17.7830 H   0  0  0  0  0  0
  -27.6891  -14.2473   19.5853 H   0  0  0  0  0  0
  -28.6767  -11.9770   21.3630 H   0  0  0  0  0  0
  -28.4867  -13.6348   21.8611 H   0  0  0  0  0  0
  -25.2730   -9.5707   22.4763 H   0  0  0  0  0  0
  -23.9991   -7.4671   22.7527 H   0  0  0  0  0  0
  -21.0833   -8.8773   19.8978 H   0  0  0  0  0  0
  -22.3690  -10.9670   19.6185 H   0  0  0  0  0  0
  -21.1978   -7.6145   23.9687 H   0  0  0  0  0  0
  -21.1475   -6.0571   25.9076 H   0  0  0  0  0  0
  -22.0578   -2.7612   23.2938 H   0  0  0  0  0  0
  -22.4125  -11.9859   22.4668 H   0  0  0  0  0  0
  -21.1086  -13.1212   22.2614 H   0  0  0  0  0  0
  -24.6783  -15.8519   20.5570 H   0  0  0  0  0  0
  -26.3026  -15.6284   20.1586 H   0  0  0  0  0  0
  -26.7154  -32.5558   23.1142 H   0  0  0  0  0  0
  -25.0094  -33.9770   25.0443 H   0  0  0  0  0  0
  -22.6875  -31.3057   21.4238 H   0  0  0  0  0  0
  -23.3743  -35.9680   23.3285 H   0  0  0  0  0  0
  -24.3591  -36.8958   22.2040 H   0  0  0  0  0  0
  -23.7302  -37.6535   23.6669 H   0  0  0  0  0  0
  -26.0458  -31.5916   20.5982 H   0  0  0  0  0  0
  -26.8232  -30.8860   21.9843 H   0  0  0  0  0  0
  -28.0885  -29.0569   21.2103 H   0  0  0  0  0  0
  -25.9787  -26.0076   18.9834 H   0  0  0  0  0  0
  -23.9745  -27.3305   19.0070 H   0  0  0  0  0  0
  -23.7212  -30.6140   19.4109 H   0  0  0  0  0  0
  -22.7365  -29.2563   19.8686 H   0  0  0  0  0  0
  -25.1315  -36.1920   25.0796 H   0  0  0  0  0  0
  -20.9948  -28.3192   24.1502 H   0  0  0  0  0  0
  -20.5789  -26.2225   23.3606 H   0  0  0  0  0  0
  -21.6642  -26.7487   22.1178 H   0  0  0  0  0  0
  -19.6916  -25.6309   21.1235 H   0  0  0  0  0  0
  -19.6682  -27.3240   20.6830 H   0  0  0  0  0  0
  -17.4215  -26.6710   21.4013 H   0  0  0  0  0  0
  -18.0260  -26.0042   22.9019 H   0  0  0  0  0  0
  -19.7920  -30.7260   24.2292 H   0  0  0  0  0  0
  -17.4996  -31.6268   24.5149 H   0  0  0  0  0  0
  -15.5342  -30.2973   23.7653 H   0  0  0  0  0  0
  -15.8667  -28.0817   22.7065 H   0  0  0  0  0  0
  -24.5905  -30.7084   25.7734 H   0  0  0  0  0  0
  -24.8971  -32.2879   26.4841 H   0  0  0  0  0  0
  -25.8066  -30.8854   27.0178 H   0  0  0  0  0  0
  -26.2882  -29.6771   24.1113 H   0  0  0  0  0  0
  -27.4115  -29.7238   25.4517 H   0  0  0  0  0  0
  -27.8716  -30.4321   23.9207 H   0  0  0  0  0  0
  -27.2612  -33.3572   26.2111 H   0  0  0  0  0  0
  -28.3874  -32.6903   25.0367 H   0  0  0  0  0  0
  -28.0694  -31.8397   26.5419 H   0  0  0  0  0  0
  -28.2578  -38.0133   24.7505 H   0  0  0  0  0  0
  -28.1087  -36.2663   24.6277 H   0  0  0  0  0  0
  -27.2288  -37.1471   25.8852 H   0  0  0  0  0  0
  -20.9351  -29.8690   21.6964 H   0  0  0  0  0  0
  -26.0159  -38.2853   24.1397 H   0  0  0  0  0  0
  -27.3209  -20.4345   20.6251 H   0  0  0  0  0  0
  -26.8857  -22.8635   20.3637 H   0  0  0  0  0  0
  -31.1959  -20.3177   17.3730 H   0  0  0  0  0  0
  -31.9985  -20.3578   18.9491 H   0  0  0  0  0  0
  -32.0040  -21.7805   17.9279 H   0  0  0  0  0  0
  -29.2056  -17.6979   15.2551 H   0  0  0  0  0  0
  -30.2397  -18.4235   16.4659 H   0  0  0  0  0  0
  -28.8041  -19.2855   15.8982 H   0  0  0  0  0  0
  -28.8597  -15.6532   16.6803 H   0  0  0  0  0  0
  -28.3227  -15.8549   18.3407 H   0  0  0  0  0  0
  -29.9539  -16.3605   17.8672 H   0  0  0  0  0  0
  -27.1490  -24.5042   18.5648 H   0  0  0  0  0  0
  -28.4772  -24.4115   17.5199 H   0  0  0  0  0  0
  -29.6805  -18.8250   21.4055 H   0  0  0  0  0  0
  -28.3748  -17.8063   20.9850 H   0  0  0  0  0  0
  -31.0689  -17.1307   21.5235 H   0  0  0  0  0  0
  -31.0677  -17.0460   19.7986 H   0  0  0  0  0  0
  -27.5691  -19.3825   17.9789 H   0  0  0  0  0  0
  -27.2969  -18.0110   18.9783 H   0  0  0  0  0  0
  -28.7074  -26.6002   18.1362 H   0  0  0  0  0  0
  -29.9080  -25.8054   19.0777 H   0  0  0  0  0  0
  -30.1918  -18.7605   18.7619 H   0  0  0  0  0  0
  -28.9561  -15.4136   21.0587 H   0  0  0  0  0  0
  -27.5029  -17.4792   16.7748 H   0  0  0  0  0  0
  1 25  1  0  0  0
  1 30  2  0  0  0
  1 86  1  0  0  0
  2  3  1  0  0  0
  2 25  1  0  0  0
  2 88  1  0  0  0
  2 89  1  0  0  0
  3  4  1  0  0  0
  3 90  1  0  0  0
  3 91  1  0  0  0
  4  5  1  0  0  0
  4 92  1  0  0  0
  4 93  1  0  0  0
  5  6  1  0  0  0
  5 26  1  0  0  0
  5 94  1  0  0  0
  6 25  1  0  0  0
  6 95  1  0  0  0
  6 96  1  0  0  0
  7  8  2  0  0  0
  7 26  1  0  0  0
  7 29  1  0  0  0
  8  9  1  0  0  0
  8 22  1  0  0  0
  9 10  1  0  0  0
  9 27  2  0  0  0
 10 11  2  0  0  0
 10 15  1  0  0  0
 11 12  1  0  0  0
 11 97  1  0  0  0
 12 13  2  0  0  0
 12 98  1  0  0  0
 13 14  1  0  0  0
 13 31  1  0  0  0
 14 15  2  0  0  0
 14 99  1  0  0  0
 15100  1  0  0  0
 16 17  2  0  0  0
 16 21  1  0  0  0
 16 31  1  0  0  0
 17 18  1  0  0  0
 17101  1  0  0  0
 18 19  2  0  0  0
 18102  1  0  0  0
 19 20  1  0  0  0
 19 24  1  0  0  0
 20 21  2  0  0  0
 20103  1  0  0  0
 21 23  1  0  0  0
 22 28  1  0  0  0
 22 32  2  0  0  0
 26 27  1  0  0  0
 28104  1  0  0  0
 28105  1  0  0  0
 29106  1  0  0  0
 29107  1  0  0  0
 33 34  1  0  0  0
 33 66  1  0  0  0
 33 70  2  0  0  0
 34 36  1  0  0  0
 34 59  1  0  0  0
 34108  1  0  0  0
 35 44  2  0  0  0
 35 45  1  0  0  0
 35 68  1  0  0  0
 36 56  1  0  0  0
 36109  1  0  0  0
 37 39  1  0  0  0
 37 47  1  0  0  0
 37 66  1  0  0  0
 37110  1  0  0  0
 38 43  2  0  0  0
 38 46  1  0  0  0
 38 47  1  0  0  0
 39 64  1  0  0  0
 39 67  2  0  0  0
 40 52  1  0  0  0
 40 53  2  0  0  0
 40 58  1  0  0  0
 41111  1  0  0  0
 41112  1  0  0  0
 41113  1  0  0  0
 41 48  1  0  0  0
 42 43  1  0  0  0
 42 66  1  0  0  0
 42114  1  0  0  0
 42115  1  0  0  0
 43 44  1  0  0  0
 44116  1  0  0  0
 45 46  2  0  0  0
 45117  1  0  0  0
 46118  1  0  0  0
 47119  1  0  0  0
 47120  1  0  0  0
 48 56  1  0  0  0
 48 65  1  0  0  0
 48121  1  0  0  0
 49 50  1  0  0  0
 49 53  1  0  0  0
 49 64  1  0  0  0
 49122  1  0  0  0
 50 51  1  0  0  0
 50123  1  0  0  0
 50124  1  0  0  0
 51 52  1  0  0  0
 51125  1  0  0  0
 51126  1  0  0  0
 52127  1  0  0  0
 52128  1  0  0  0
 53 54  1  0  0  0
 54 55  2  0  0  0
 54129  1  0  0  0
 55 57  1  0  0  0
 55130  1  0  0  0
 56 69  2  0  0  0
 57 58  2  0  0  0
 57131  1  0  0  0
 58132  1  0  0  0
 59 60  1  0  0  0
 59 61  1  0  0  0
 59 62  1  0  0  0
 60133  1  0  0  0
 60134  1  0  0  0
 60135  1  0  0  0
 61136  1  0  0  0
 61137  1  0  0  0
 61138  1  0  0  0
 62139  1  0  0  0
 62140  1  0  0  0
 62141  1  0  0  0
 63 65  1  0  0  0
 63142  1  0  0  0
 63143  1  0  0  0
 63144  1  0  0  0
 64145  1  0  0  0
 65146  1  0  0  0
 68 83  1  0  0  0
 71 72  2  0  0  0
 71 73  1  0  0  0
 71147  1  0  0  0
 72 74  1  0  0  0
 72148  1  0  0  0
 73 75  2  0  0  0
 73 84  1  0  0  0
 74 79  1  0  0  0
 74 85  2  0  0  0
 75 76  1  0  0  0
 75 85  1  0  0  0
 76149  1  0  0  0
 76150  1  0  0  0
 76151  1  0  0  0
 77152  1  0  0  0
 77153  1  0  0  0
 77154  1  0  0  0
 77 87  1  0  0  0
 78 87  1  0  0  0
 78155  1  0  0  0
 78156  1  0  0  0
 78157  1  0  0  0
 79 83  1  0  0  0
 79158  1  0  0  0
 79159  1  0  0  0
 80 81  1  0  0  0
 80160  1  0  0  0
 80161  1  0  0  0
 80 84  1  0  0  0
 81 86  1  0  0  0
 81162  1  0  0  0
 81163  1  0  0  0
 82 84  1  0  0  0
 82 87  1  0  0  0
 82164  1  0  0  0
 82165  1  0  0  0
 83166  1  0  0  0
 83167  1  0  0  0
 84168  1  0  0  0
 86169  1  0  0  0
 87170  1  0  0  0
M  CHG  1  87   1
M  ISO  4   1 100  68 101  83 101  86 100
M  END
> <chiral flag>
0

> <version>
0

> <s_m_source_file>
/data/baiqing/PycharmProjects/Reinvent-master-3.2/result/LINK_invent/BTK/process_docking_weight1_custom_sum_contain_oxygen_bond_distance_aromatic_linkinvent_7_9_3/rearranged_h_0104.sdf

> <i_m_source_file_index>
19

> <r_mmod_Potential_Energy-OPLS-2005>
-209.634780883789

> <r_mmod_Stretch_Energy-OPLS-2005>
46.996509552002

> <r_mmod_Bend_Energy-OPLS-2005>
141.1767578125

> <r_mmod_Torsional_Energy-OPLS-2005>
284.000305175781

> <r_mmod_Improper_Torsional_Energy-OPLS-2005>
9.85017776489258

> <r_mmod_Van_der_Waal_Energy-OPLS-2005>
149.761520385742

> <r_mmod_Electrostatic_Energy-OPLS-2005>
-382.946044921875

> <r_mmod_Solvation_Energy-OPLS-2005>
-477.776733398438

> <b_mmod_Minimization_Converged-OPLS-2005>
0

> <r_mmod_RMS_Derivative-OPLS-2005>
4.03808259963989

$$$$
19
                    3D
 Structure written by MMmdl.
174182  0  0  1  0            999 V2000
  -30.6447  -14.6629   20.5196 C   0  0  0  0  0  0
  -30.4396  -12.4143   19.4616 C   0  0  0  0  0  0
  -29.5058  -12.4911   18.2333 C   0  0  0  0  0  0
  -28.0345  -12.3170   18.6570 C   0  0  0  0  0  0
  -27.6507  -13.2177   19.8610 C   0  0  2  0  0  0
  -28.6960  -13.1119   20.9939 C   0  0  0  0  0  0
  -25.2553  -13.8185   20.5680 C   0  0  0  0  0  0
  -24.1813  -13.0432   20.9197 C   0  0  0  0  0  0
  -24.6388  -11.6915   20.8758 C   0  0  0  0  0  0
  -23.9061  -10.4284   21.0412 C   0  0  0  0  0  0
  -24.3608   -9.4209   21.9197 C   0  0  0  0  0  0
  -23.6283   -8.2238   22.0768 C   0  0  0  0  0  0
  -22.4272   -8.0269   21.3545 C   0  0  0  0  0  0
  -21.9908   -9.0243   20.4649 C   0  0  0  0  0  0
  -22.7239  -10.2128   20.3055 C   0  0  0  0  0  0
  -21.6845   -6.0726   22.5276 C   0  0  0  0  0  0
  -21.4017   -6.5634   23.8206 C   0  0  0  0  0  0
  -21.3656   -5.6793   24.9173 C   0  0  0  0  0  0
  -21.6036   -4.3053   24.7227 C   0  0  0  0  0  0
  -21.8823   -3.8143   23.4350 C   0  0  0  0  0  0
  -21.9194   -4.6957   22.3406 C   0  0  0  0  0  0
  -22.7844  -13.5235   21.1858 C   0  0  0  0  0  0
  -22.1663   -4.2140   21.0982 F   0  0  0  0  0  0
  -21.5622   -3.4540   25.7745 F   0  0  0  0  0  0
  -30.0063  -13.4524   20.4210 N   0  0  0  0  0  0
  -26.2974  -12.9356   20.3336 N   0  0  0  0  0  0
  -25.9318  -11.6505   20.5785 N   0  0  0  0  0  0
  -22.0492  -12.8194   22.0397 N   0  0  0  0  0  0
  -25.4277  -15.1895   20.4080 N   0  0  0  0  0  0
  -31.8158  -14.7950   20.1538 O   0  0  0  0  0  0
  -21.6638   -6.8868   21.4231 O   0  0  0  0  0  0
  -22.3535  -14.5547   20.6721 O   0  0  0  0  0  0
  -24.6305  -31.8649   23.2100 C   0  0  0  0  0  0
  -25.9159  -32.4805   23.8411 C   0  0  1  0  0  0
  -27.2246  -27.3019   20.0975 C   0  0  0  0  0  0
  -25.5995  -33.8593   24.2355 N   0  0  0  0  0  0
  -23.4245  -30.4946   21.5547 C   0  0  2  0  0  0
  -24.8759  -28.9769   20.1119 C   0  0  0  0  0  0
  -22.7497  -29.4657   22.4950 C   0  0  0  0  0  0
  -18.0293  -28.1385   22.8465 C   0  0  0  0  0  0
  -24.1484  -36.7281   23.2638 C   0  0  0  0  0  0
  -25.9743  -30.7886   21.3936 C   0  0  0  0  0  0
  -26.0522  -29.4144   20.7386 C   0  0  0  0  0  0
  -27.2254  -28.5854   20.7407 C   0  0  0  0  0  0
  -26.0517  -27.0097   19.3762 C   0  0  0  0  0  0
  -24.8820  -27.7705   19.4220 C   0  0  0  0  0  0
  -23.6373  -29.8445   20.1684 C   0  0  0  0  0  0
  -25.4103  -36.3082   24.0344 C   0  0  1  0  0  0
  -20.5904  -28.3710   23.1263 C   0  0  2  0  0  0
  -20.6791  -26.9432   22.5383 C   0  0  0  0  0  0
  -19.5769  -26.6394   21.5192 C   0  0  0  0  0  0
  -18.1931  -26.7936   22.1587 C   0  0  0  0  0  0
  -19.1548  -28.8857   23.2853 C   0  0  0  0  0  0
  -18.9473  -30.1453   23.8896 C   0  0  0  0  0  0
  -17.6485  -30.6590   24.0577 C   0  0  0  0  0  0
  -25.9045  -34.9457   23.5120 C   0  0  0  0  0  0
  -16.5368  -29.9099   23.6355 C   0  0  0  0  0  0
  -16.7286  -28.6515   23.0362 C   0  0  0  0  0  0
  -26.4518  -31.6585   25.0765 C   0  0  0  0  0  0
  -25.3691  -31.3708   26.1458 C   0  0  0  0  0  0
  -27.0366  -30.3002   24.6202 C   0  0  0  0  0  0
  -27.6090  -32.4312   25.7541 C   0  0  0  0  0  0
  -27.5566  -37.1776   24.8472 C   0  0  0  0  0  0
  -21.4207  -29.3082   22.3672 N   0  0  0  0  0  0
  -26.4283  -37.3769   23.9424 N   0  0  0  0  0  0
  -24.6948  -31.0644   22.1089 N   0  0  0  0  0  0
  -23.4204  -28.8168   23.3000 O   0  0  0  0  0  0
  -28.2959  -26.3662   20.0968 O   0  0  0  0  0  0
  -26.5549  -34.8921   22.4651 O   0  0  0  0  0  0
  -23.5465  -32.1459   23.7406 O   0  0  0  0  0  0
  -24.5584  -23.9644   18.0879 C   0  0  0  0  0  0
  -24.4574  -23.5604   19.5663 C   0  0  0  0  0  0
  -25.9151  -23.5571   17.4929 C   0  0  0  0  0  0
  -25.5599  -24.1844   20.4354 C   0  0  0  0  0  0
  -27.1281  -24.1079   18.2621 C   0  0  0  0  0  0
  -26.9883  -24.0833   19.8205 C   0  0  0  0  0  0
  -27.9034  -25.0890   22.0568 C   0  0  0  0  0  0
  -30.7202  -21.3036   19.2304 C   0  0  0  0  0  0
  -29.6658  -18.4237   20.3930 C   0  0  0  0  0  0
  -29.4084  -23.9420   20.3712 C   0  0  0  0  0  0
  -30.3070  -17.1817   21.1885 C   0  0  0  0  0  0
  -29.8170  -19.8907   21.0567 C   0  0  0  0  0  0
  -29.4165  -22.4512   21.0406 C   0  0  0  0  0  0
  -28.1253  -24.9139   20.5388 C   0  0  2  0  0  0
  -29.8893  -15.7537   20.8861 N   0  0  0  0  0  0
  -29.6237  -21.1651   20.2180 N   0  3  1  0  0  0
  -31.4768  -12.5445   19.1487 H   0  0  0  0  0  0
  -30.3931  -11.4282   19.9243 H   0  0  0  0  0  0
  -29.7745  -11.7219   17.5066 H   0  0  0  0  0  0
  -29.6321  -13.4512   17.7324 H   0  0  0  0  0  0
  -27.8937  -11.2698   18.9262 H   0  0  0  0  0  0
  -27.3691  -12.5035   17.8131 H   0  0  0  0  0  0
  -27.6619  -14.2439   19.4925 H   0  0  0  0  0  0
  -28.7159  -12.1038   21.4111 H   0  0  0  0  0  0
  -28.4367  -13.7729   21.8232 H   0  0  0  0  0  0
  -25.2745   -9.5682   22.4787 H   0  0  0  0  0  0
  -23.9984   -7.4638   22.7495 H   0  0  0  0  0  0
  -21.0837   -8.8759   19.8951 H   0  0  0  0  0  0
  -22.3697  -10.9660   19.6161 H   0  0  0  0  0  0
  -21.2018   -7.6149   23.9706 H   0  0  0  0  0  0
  -21.1467   -6.0530   25.9076 H   0  0  0  0  0  0
  -22.0606   -2.7602   23.2860 H   0  0  0  0  0  0
  -22.4100  -11.9809   22.4705 H   0  0  0  0  0  0
  -21.1125  -13.1219   22.2664 H   0  0  0  0  0  0
  -24.6600  -15.8444   20.5111 H   0  0  0  0  0  0
  -26.2763  -15.6241   20.0674 H   0  0  0  0  0  0
  -26.7232  -32.5516   23.1173 H   0  0  0  0  0  0
  -25.0324  -33.9745   25.0617 H   0  0  0  0  0  0
  -22.7201  -31.3181   21.4183 H   0  0  0  0  0  0
  -23.3751  -35.9610   23.3337 H   0  0  0  0  0  0
  -24.3586  -36.8856   22.2043 H   0  0  0  0  0  0
  -23.7239  -37.6497   23.6640 H   0  0  0  0  0  0
  -26.0943  -31.5429   20.6150 H   0  0  0  0  0  0
  -26.8589  -30.8520   22.0149 H   0  0  0  0  0  0
  -28.1164  -28.9071   21.2635 H   0  0  0  0  0  0
  -25.9656  -26.1484   18.7659 H   0  0  0  0  0  0
  -24.0041  -27.4431   18.8839 H   0  0  0  0  0  0
  -23.7457  -30.6270   19.4171 H   0  0  0  0  0  0
  -22.7589  -29.2696   19.8690 H   0  0  0  0  0  0
  -25.1254  -36.1939   25.0831 H   0  0  0  0  0  0
  -20.9974  -28.3302   24.1407 H   0  0  0  0  0  0
  -20.5735  -26.2295   23.3566 H   0  0  0  0  0  0
  -21.6647  -26.7494   22.1154 H   0  0  0  0  0  0
  -19.6956  -25.6309   21.1226 H   0  0  0  0  0  0
  -19.6750  -27.3190   20.6712 H   0  0  0  0  0  0
  -17.4213  -26.6716   21.3971 H   0  0  0  0  0  0
  -18.0319  -26.0057   22.8959 H   0  0  0  0  0  0
  -19.7956  -30.7234   24.2283 H   0  0  0  0  0  0
  -17.5065  -31.6289   24.5150 H   0  0  0  0  0  0
  -15.5377  -30.3016   23.7700 H   0  0  0  0  0  0
  -15.8669  -28.0866   22.7098 H   0  0  0  0  0  0
  -24.6091  -30.6788   25.7833 H   0  0  0  0  0  0
  -24.8582  -32.2801   26.4613 H   0  0  0  0  0  0
  -25.7979  -30.9198   27.0402 H   0  0  0  0  0  0
  -26.2939  -29.6717   24.1284 H   0  0  0  0  0  0
  -27.4125  -29.7310   25.4699 H   0  0  0  0  0  0
  -27.8769  -30.4315   23.9381 H   0  0  0  0  0  0
  -27.2824  -33.3765   26.1901 H   0  0  0  0  0  0
  -28.4013  -32.6588   25.0394 H   0  0  0  0  0  0
  -28.0602  -31.8525   26.5612 H   0  0  0  0  0  0
  -28.2558  -38.0088   24.7549 H   0  0  0  0  0  0
  -28.1070  -36.2606   24.6277 H   0  0  0  0  0  0
  -27.2278  -37.1426   25.8870 H   0  0  0  0  0  0
  -20.9379  -29.8871   21.6952 H   0  0  0  0  0  0
  -26.0160  -38.2840   24.1447 H   0  0  0  0  0  0
  -24.3905  -25.0330   17.9667 H   0  0  0  0  0  0
  -23.7561  -23.4870   17.5244 H   0  0  0  0  0  0
  -24.5046  -22.4739   19.6469 H   0  0  0  0  0  0
  -23.4822  -23.8518   19.9580 H   0  0  0  0  0  0
  -25.9710  -23.8874   16.4536 H   0  0  0  0  0  0
  -25.9788  -22.4691   17.4705 H   0  0  0  0  0  0
  -25.5640  -23.6668   21.3958 H   0  0  0  0  0  0
  -25.2731  -25.1878   20.7282 H   0  0  0  0  0  0
  -27.4035  -25.0932   17.8855 H   0  0  0  0  0  0
  -27.9876  -23.5062   17.9674 H   0  0  0  0  0  0
  -27.1610  -23.0297   20.0258 H   0  0  0  0  0  0
  -27.7447  -24.1491   22.5817 H   0  0  0  0  0  0
  -27.0506  -25.7300   22.2759 H   0  0  0  0  0  0
  -28.7768  -25.5652   22.5087 H   0  0  0  0  0  0
  -30.8656  -20.3885   18.6580 H   0  0  0  0  0  0
  -31.6614  -21.5360   19.7290 H   0  0  0  0  0  0
  -30.5184  -22.0850   18.5008 H   0  0  0  0  0  0
  -28.6032  -18.2338   20.2403 H   0  0  0  0  0  0
  -30.0986  -18.4216   19.3937 H   0  0  0  0  0  0
  -29.6934  -23.9007   19.3248 H   0  0  0  0  0  0
  -30.2483  -24.4732   20.8208 H   0  0  0  0  0  0
  -30.0784  -17.3277   22.2454 H   0  0  0  0  0  0
  -31.3943  -17.2551   21.1243 H   0  0  0  0  0  0
  -30.8018  -19.9612   21.5203 H   0  0  0  0  0  0
  -29.1123  -19.9317   21.8907 H   0  0  0  0  0  0
  -28.5086  -22.2988   21.6239 H   0  0  0  0  0  0
  -30.2093  -22.4593   21.7908 H   0  0  0  0  0  0
  -28.9452  -15.5184   21.1531 H   0  0  0  0  0  0
  -28.7782  -21.0284   19.6813 H   0  0  0  0  0  0
  1 25  1  0  0  0
  1 30  2  0  0  0
  1 85  1  0  0  0
  2  3  1  0  0  0
  2 25  1  0  0  0
  2 87  1  0  0  0
  2 88  1  0  0  0
  3  4  1  0  0  0
  3 89  1  0  0  0
  3 90  1  0  0  0
  4  5  1  0  0  0
  4 91  1  0  0  0
  4 92  1  0  0  0
  5  6  1  0  0  0
  5 26  1  0  0  0
  5 93  1  0  0  0
  6 25  1  0  0  0
  6 94  1  0  0  0
  6 95  1  0  0  0
  7  8  2  0  0  0
  7 26  1  0  0  0
  7 29  1  0  0  0
  8  9  1  0  0  0
  8 22  1  0  0  0
  9 10  1  0  0  0
  9 27  2  0  0  0
 10 11  2  0  0  0
 10 15  1  0  0  0
 11 12  1  0  0  0
 11 96  1  0  0  0
 12 13  2  0  0  0
 12 97  1  0  0  0
 13 14  1  0  0  0
 13 31  1  0  0  0
 14 15  2  0  0  0
 14 98  1  0  0  0
 15 99  1  0  0  0
 16 17  2  0  0  0
 16 21  1  0  0  0
 16 31  1  0  0  0
 17 18  1  0  0  0
 17100  1  0  0  0
 18 19  2  0  0  0
 18101  1  0  0  0
 19 20  1  0  0  0
 19 24  1  0  0  0
 20 21  2  0  0  0
 20102  1  0  0  0
 21 23  1  0  0  0
 22 28  1  0  0  0
 22 32  2  0  0  0
 26 27  1  0  0  0
 28103  1  0  0  0
 28104  1  0  0  0
 29105  1  0  0  0
 29106  1  0  0  0
 33 34  1  0  0  0
 33 66  1  0  0  0
 33 70  2  0  0  0
 34 36  1  0  0  0
 34 59  1  0  0  0
 34107  1  0  0  0
 35 44  2  0  0  0
 35 45  1  0  0  0
 35 68  1  0  0  0
 36 56  1  0  0  0
 36108  1  0  0  0
 37 39  1  0  0  0
 37 47  1  0  0  0
 37 66  1  0  0  0
 37109  1  0  0  0
 38 43  2  0  0  0
 38 46  1  0  0  0
 38 47  1  0  0  0
 39 64  1  0  0  0
 39 67  2  0  0  0
 40 52  1  0  0  0
 40 53  2  0  0  0
 40 58  1  0  0  0
 41110  1  0  0  0
 41111  1  0  0  0
 41112  1  0  0  0
 41 48  1  0  0  0
 42 43  1  0  0  0
 42 66  1  0  0  0
 42113  1  0  0  0
 42114  1  0  0  0
 43 44  1  0  0  0
 44115  1  0  0  0
 45 46  2  0  0  0
 45116  1  0  0  0
 46117  1  0  0  0
 47118  1  0  0  0
 47119  1  0  0  0
 48 56  1  0  0  0
 48 65  1  0  0  0
 48120  1  0  0  0
 49 50  1  0  0  0
 49 53  1  0  0  0
 49 64  1  0  0  0
 49121  1  0  0  0
 50 51  1  0  0  0
 50122  1  0  0  0
 50123  1  0  0  0
 51 52  1  0  0  0
 51124  1  0  0  0
 51125  1  0  0  0
 52126  1  0  0  0
 52127  1  0  0  0
 53 54  1  0  0  0
 54 55  2  0  0  0
 54128  1  0  0  0
 55 57  1  0  0  0
 55129  1  0  0  0
 56 69  2  0  0  0
 57 58  2  0  0  0
 57130  1  0  0  0
 58131  1  0  0  0
 59 60  1  0  0  0
 59 61  1  0  0  0
 59 62  1  0  0  0
 60132  1  0  0  0
 60133  1  0  0  0
 60134  1  0  0  0
 61135  1  0  0  0
 61136  1  0  0  0
 61137  1  0  0  0
 62138  1  0  0  0
 62139  1  0  0  0
 62140  1  0  0  0
 63 65  1  0  0  0
 63141  1  0  0  0
 63142  1  0  0  0
 63143  1  0  0  0
 64144  1  0  0  0
 65145  1  0  0  0
 68 84  1  0  0  0
 71 72  1  0  0  0
 71 73  1  0  0  0
 71146  1  0  0  0
 71147  1  0  0  0
 72 74  1  0  0  0
 72148  1  0  0  0
 72149  1  0  0  0
 73 75  1  0  0  0
 73150  1  0  0  0
 73151  1  0  0  0
 74152  1  0  0  0
 74153  1  0  0  0
 74 76  1  0  0  0
 75 76  1  0  0  0
 75154  1  0  0  0
 75155  1  0  0  0
 76 84  1  0  0  0
 76156  1  0  0  0
 77157  1  0  0  0
 77158  1  0  0  0
 77159  1  0  0  0
 77 84  1  0  0  0
 78160  1  0  0  0
 78161  1  0  0  0
 78162  1  0  0  0
 78 86  1  0  0  0
 79 81  1  0  0  0
 79 82  1  0  0  0
 79163  1  0  0  0
 79164  1  0  0  0
 80 83  1  0  0  0
 80 84  1  0  0  0
 80165  1  0  0  0
 80166  1  0  0  0
 81 85  1  0  0  0
 81167  1  0  0  0
 81168  1  0  0  0
 82 86  1  0  0  0
 82169  1  0  0  0
 82170  1  0  0  0
 83 86  1  0  0  0
 83171  1  0  0  0
 83172  1  0  0  0
 85173  1  0  0  0
 86174  1  0  0  0
M  CHG  1  86   1
M  ISO  4   1 100  68 101  84 101  85 100
M  END
> <chiral flag>
0

> <version>
0

> <s_m_source_file>
/data/baiqing/PycharmProjects/Reinvent-master-3.2/result/LINK_invent/BTK/process_docking_weight1_custom_sum_contain_oxygen_bond_distance_aromatic_linkinvent_7_9_3/rearranged_h_0104.sdf

> <i_m_source_file_index>
20

> <r_mmod_Potential_Energy-OPLS-2005>
161.64762878418

> <r_mmod_Stretch_Energy-OPLS-2005>
129.915313720703

> <r_mmod_Bend_Energy-OPLS-2005>
211.97688293457

> <r_mmod_Torsional_Energy-OPLS-2005>
290.413513183594

> <r_mmod_Improper_Torsional_Energy-OPLS-2005>
3.72544717788696

> <r_mmod_Van_der_Waal_Energy-OPLS-2005>
153.221267700195

> <r_mmod_Electrostatic_Energy-OPLS-2005>
-246.031372070312

> <r_mmod_Solvation_Energy-OPLS-2005>
-446.160400390625

> <b_mmod_Minimization_Converged-OPLS-2005>
0

> <r_mmod_RMS_Derivative-OPLS-2005>
4.20627975463867

$$$$
20
                    3D
 Structure written by MMmdl.
157165  0  0  1  0            999 V2000
  -30.5290  -15.0143   20.4019 C   0  0  0  0  0  0
  -30.4367  -12.6335   19.5018 C   0  0  0  0  0  0
  -29.5210  -12.5355   18.2596 C   0  0  0  0  0  0
  -28.0576  -12.3093   18.6819 C   0  0  0  0  0  0
  -27.6231  -13.2534   19.8331 C   0  0  2  0  0  0
  -28.6657  -13.3215   20.9686 C   0  0  0  0  0  0
  -25.2434  -13.8196   20.5739 C   0  0  0  0  0  0
  -24.1755  -13.0419   20.9232 C   0  0  0  0  0  0
  -24.6386  -11.6911   20.8755 C   0  0  0  0  0  0
  -23.9077  -10.4282   21.0408 C   0  0  0  0  0  0
  -24.3627   -9.4199   21.9185 C   0  0  0  0  0  0
  -23.6298   -8.2237   22.0755 C   0  0  0  0  0  0
  -22.4279   -8.0278   21.3545 C   0  0  0  0  0  0
  -21.9916   -9.0251   20.4647 C   0  0  0  0  0  0
  -22.7248  -10.2127   20.3056 C   0  0  0  0  0  0
  -21.6853   -6.0736   22.5280 C   0  0  0  0  0  0
  -21.4014   -6.5640   23.8214 C   0  0  0  0  0  0
  -21.3659   -5.6792   24.9175 C   0  0  0  0  0  0
  -21.6044   -4.3055   24.7226 C   0  0  0  0  0  0
  -21.8819   -3.8147   23.4346 C   0  0  0  0  0  0
  -21.9192   -4.6964   22.3403 C   0  0  0  0  0  0
  -22.7781  -13.5198   21.1886 C   0  0  0  0  0  0
  -22.1661   -4.2151   21.0980 F   0  0  0  0  0  0
  -21.5628   -3.4538   25.7738 F   0  0  0  0  0  0
  -29.9301  -13.7498   20.3573 N   0  0  0  0  0  0
  -26.2859  -12.9446   20.3249 N   0  0  0  0  0  0
  -25.9321  -11.6572   20.5738 N   0  0  0  0  0  0
  -22.0431  -12.8186   22.0440 N   0  0  0  0  0  0
  -25.4112  -15.1919   20.4208 N   0  0  0  0  0  0
  -31.7412  -15.0483   20.1636 O   0  0  0  0  0  0
  -21.6639   -6.8878   21.4243 O   0  0  0  0  0  0
  -22.3473  -14.5509   20.6735 O   0  0  0  0  0  0
  -24.6475  -31.8392   23.1835 C   0  0  0  0  0  0
  -25.9227  -32.4669   23.8243 C   0  0  1  0  0  0
  -27.2184  -27.0903   20.1594 C   0  0  0  0  0  0
  -25.5956  -33.8477   24.2158 N   0  0  0  0  0  0
  -23.4536  -30.4561   21.5300 C   0  0  2  0  0  0
  -24.9041  -28.8724   20.1103 C   0  0  0  0  0  0
  -22.7588  -29.4520   22.4843 C   0  0  0  0  0  0
  -18.0307  -28.1398   22.8474 C   0  0  0  0  0  0
  -24.1493  -36.7244   23.2644 C   0  0  0  0  0  0
  -26.0123  -30.6984   21.3885 C   0  0  0  0  0  0
  -26.0829  -29.3048   20.7307 C   0  0  0  0  0  0
  -27.2399  -28.4312   20.7345 C   0  0  0  0  0  0
  -26.0127  -26.7680   19.4995 C   0  0  0  0  0  0
  -24.8846  -27.6197   19.4776 C   0  0  0  0  0  0
  -23.6826  -29.7806   20.1513 C   0  0  0  0  0  0
  -25.4128  -36.3017   24.0311 C   0  0  1  0  0  0
  -20.5922  -28.3727   23.1226 C   0  0  2  0  0  0
  -20.6789  -26.9425   22.5405 C   0  0  0  0  0  0
  -19.5764  -26.6379   21.5213 C   0  0  0  0  0  0
  -18.1945  -26.7935   22.1623 C   0  0  0  0  0  0
  -19.1565  -28.8881   23.2841 C   0  0  0  0  0  0
  -18.9479  -30.1476   23.8868 C   0  0  0  0  0  0
  -17.6475  -30.6592   24.0557 C   0  0  0  0  0  0
  -25.9080  -34.9394   23.5047 C   0  0  0  0  0  0
  -16.5366  -29.9083   23.6338 C   0  0  0  0  0  0
  -16.7291  -28.6503   23.0358 C   0  0  0  0  0  0
  -26.4532  -31.6557   25.0707 C   0  0  0  0  0  0
  -25.3702  -31.3760   26.1392 C   0  0  0  0  0  0
  -27.0408  -30.2946   24.6326 C   0  0  0  0  0  0
  -27.6051  -32.4335   25.7499 C   0  0  0  0  0  0
  -27.5575  -37.1779   24.8465 C   0  0  0  0  0  0
  -21.4275  -29.3044   22.3592 N   0  0  0  0  0  0
  -26.4287  -37.3735   23.9407 N   0  0  0  0  0  0
  -24.7246  -31.0205   22.0889 N   0  0  0  0  0  0
  -23.4210  -28.8076   23.3016 O   0  0  0  0  0  0
  -28.2639  -26.0842   20.2352 O   0  0  0  0  0  0
  -26.5674  -34.8900   22.4632 O   0  0  0  0  0  0
  -23.5584  -32.1287   23.7029 O   0  0  0  0  0  0
  -29.8226  -20.5635   20.6170 C   0  0  0  0  0  0
  -27.8601  -20.9171   19.7561 C   0  0  0  0  0  0
  -29.3973  -19.2316   20.3197 C   0  0  0  0  0  0
  -28.1022  -19.5362   19.7504 C   0  0  0  0  0  0
  -25.6860  -18.7679   19.5966 C   0  0  0  0  0  0
  -30.2285  -17.7664   20.5057 C   0  0  0  0  0  0
  -29.0917  -23.2493   20.4460 C   0  0  0  0  0  0
  -28.0169  -24.5290   20.0794 C   0  0  0  0  0  0
  -27.1448  -18.5102   19.1778 C   0  0  1  0  0  0
  -28.9167  -21.6535   20.2818 N   0  0  0  0  0  0
  -29.7740  -16.2338   20.5060 N   0  0  0  0  0  0
  -27.2956  -18.4677   17.7170 N   0  3  0  0  0  0
  -31.4682  -12.7964   19.1859 H   0  0  0  0  0  0
  -30.4416  -11.6935   20.0559 H   0  0  0  0  0  0
  -29.8522  -11.7278   17.6052 H   0  0  0  0  0  0
  -29.5966  -13.4542   17.6758 H   0  0  0  0  0  0
  -27.9675  -11.2717   19.0055 H   0  0  0  0  0  0
  -27.3919  -12.4199   17.8252 H   0  0  0  0  0  0
  -27.5724  -14.2465   19.3859 H   0  0  0  0  0  0
  -28.7715  -12.3574   21.4683 H   0  0  0  0  0  0
  -28.3548  -14.0356   21.7328 H   0  0  0  0  0  0
  -25.2770   -9.5675   22.4763 H   0  0  0  0  0  0
  -24.0005   -7.4627   22.7474 H   0  0  0  0  0  0
  -21.0847   -8.8772   19.8952 H   0  0  0  0  0  0
  -22.3707  -10.9668   19.6168 H   0  0  0  0  0  0
  -21.2007   -7.6148   23.9718 H   0  0  0  0  0  0
  -21.1481   -6.0522   25.9078 H   0  0  0  0  0  0
  -22.0599   -2.7610   23.2846 H   0  0  0  0  0  0
  -22.4051  -11.9848   22.4827 H   0  0  0  0  0  0
  -21.1048  -13.1207   22.2648 H   0  0  0  0  0  0
  -24.6499  -15.8462   20.5627 H   0  0  0  0  0  0
  -26.2741  -15.6279   20.1363 H   0  0  0  0  0  0
  -26.7292  -32.5258   23.0967 H   0  0  0  0  0  0
  -25.0071  -33.9584   25.0285 H   0  0  0  0  0  0
  -22.7585  -31.2832   21.3714 H   0  0  0  0  0  0
  -23.3762  -35.9568   23.3288 H   0  0  0  0  0  0
  -24.3574  -36.8899   22.2061 H   0  0  0  0  0  0
  -23.7242  -37.6430   23.6698 H   0  0  0  0  0  0
  -26.1735  -31.4501   20.6147 H   0  0  0  0  0  0
  -26.8802  -30.7498   22.0343 H   0  0  0  0  0  0
  -28.1371  -28.7578   21.2413 H   0  0  0  0  0  0
  -25.9115  -25.8085   19.0149 H   0  0  0  0  0  0
  -23.9852  -27.2837   18.9801 H   0  0  0  0  0  0
  -23.8226  -30.5528   19.3941 H   0  0  0  0  0  0
  -22.7963  -29.2248   19.8403 H   0  0  0  0  0  0
  -25.1319  -36.1836   25.0803 H   0  0  0  0  0  0
  -21.0013  -28.3321   24.1348 H   0  0  0  0  0  0
  -20.5678  -26.2342   23.3629 H   0  0  0  0  0  0
  -21.6655  -26.7423   22.1206 H   0  0  0  0  0  0
  -19.6925  -25.6282   21.1262 H   0  0  0  0  0  0
  -19.6702  -27.3173   20.6729 H   0  0  0  0  0  0
  -17.4214  -26.6677   21.4027 H   0  0  0  0  0  0
  -18.0345  -26.0084   22.9027 H   0  0  0  0  0  0
  -19.7955  -30.7301   24.2224 H   0  0  0  0  0  0
  -17.5027  -31.6270   24.5163 H   0  0  0  0  0  0
  -15.5365  -30.2974   23.7680 H   0  0  0  0  0  0
  -15.8692  -28.0811   22.7090 H   0  0  0  0  0  0
  -24.5889  -30.7102   25.7707 H   0  0  0  0  0  0
  -24.8883  -32.2947   26.4746 H   0  0  0  0  0  0
  -25.7971  -30.8977   27.0216 H   0  0  0  0  0  0
  -26.3038  -29.6654   24.1321 H   0  0  0  0  0  0
  -27.3989  -29.7264   25.4921 H   0  0  0  0  0  0
  -27.8958  -30.4169   23.9673 H   0  0  0  0  0  0
  -27.2635  -33.3661   26.2004 H   0  0  0  0  0  0
  -28.3901  -32.6857   25.0356 H   0  0  0  0  0  0
  -28.0676  -31.8510   26.5477 H   0  0  0  0  0  0
  -28.2581  -38.0086   24.7513 H   0  0  0  0  0  0
  -28.1083  -36.2614   24.6293 H   0  0  0  0  0  0
  -27.2291  -37.1425   25.8867 H   0  0  0  0  0  0
  -20.9495  -29.8749   21.6757 H   0  0  0  0  0  0
  -26.0149  -38.2801   24.1410 H   0  0  0  0  0  0
  -30.7707  -20.8507   21.0544 H   0  0  0  0  0  0
  -26.9932  -21.4574   19.3975 H   0  0  0  0  0  0
  -25.5926  -18.7735   20.6829 H   0  0  0  0  0  0
  -25.0219  -17.9910   19.2177 H   0  0  0  0  0  0
  -25.3158  -19.7246   19.2284 H   0  0  0  0  0  0
  -30.7657  -17.8825   21.4478 H   0  0  0  0  0  0
  -31.0157  -17.8137   19.7520 H   0  0  0  0  0  0
  -29.3633  -23.3935   21.4915 H   0  0  0  0  0  0
  -30.0075  -23.4831   19.9035 H   0  0  0  0  0  0
  -27.1068  -24.3213   20.6430 H   0  0  0  0  0  0
  -27.7370  -24.3866   19.0357 H   0  0  0  0  0  0
  -27.4346  -17.5328   19.5628 H   0  0  0  0  0  0
  -28.7923  -16.0850   20.6766 H   0  0  0  0  0  0
  -27.0525  -19.3530   17.3121 H   0  0  0  0  0  0
  -26.7144  -17.7547   17.3148 H   0  0  0  0  0  0
  -28.2516  -18.2697   17.4833 H   0  0  0  0  0  0
  1 25  1  0  0  0
  1 30  2  0  0  0
  1 81  1  0  0  0
  2  3  1  0  0  0
  2 25  1  0  0  0
  2 83  1  0  0  0
  2 84  1  0  0  0
  3  4  1  0  0  0
  3 85  1  0  0  0
  3 86  1  0  0  0
  4  5  1  0  0  0
  4 87  1  0  0  0
  4 88  1  0  0  0
  5  6  1  0  0  0
  5 26  1  0  0  0
  5 89  1  0  0  0
  6 25  1  0  0  0
  6 90  1  0  0  0
  6 91  1  0  0  0
  7  8  2  0  0  0
  7 26  1  0  0  0
  7 29  1  0  0  0
  8  9  1  0  0  0
  8 22  1  0  0  0
  9 10  1  0  0  0
  9 27  2  0  0  0
 10 11  2  0  0  0
 10 15  1  0  0  0
 11 12  1  0  0  0
 11 92  1  0  0  0
 12 13  2  0  0  0
 12 93  1  0  0  0
 13 14  1  0  0  0
 13 31  1  0  0  0
 14 15  2  0  0  0
 14 94  1  0  0  0
 15 95  1  0  0  0
 16 17  2  0  0  0
 16 21  1  0  0  0
 16 31  1  0  0  0
 17 18  1  0  0  0
 17 96  1  0  0  0
 18 19  2  0  0  0
 18 97  1  0  0  0
 19 20  1  0  0  0
 19 24  1  0  0  0
 20 21  2  0  0  0
 20 98  1  0  0  0
 21 23  1  0  0  0
 22 28  1  0  0  0
 22 32  2  0  0  0
 26 27  1  0  0  0
 28 99  1  0  0  0
 28100  1  0  0  0
 29101  1  0  0  0
 29102  1  0  0  0
 33 34  1  0  0  0
 33 66  1  0  0  0
 33 70  2  0  0  0
 34 36  1  0  0  0
 34 59  1  0  0  0
 34103  1  0  0  0
 35 44  2  0  0  0
 35 45  1  0  0  0
 35 68  1  0  0  0
 36 56  1  0  0  0
 36104  1  0  0  0
 37 39  1  0  0  0
 37 47  1  0  0  0
 37 66  1  0  0  0
 37105  1  0  0  0
 38 43  2  0  0  0
 38 46  1  0  0  0
 38 47  1  0  0  0
 39 64  1  0  0  0
 39 67  2  0  0  0
 40 52  1  0  0  0
 40 53  2  0  0  0
 40 58  1  0  0  0
 41106  1  0  0  0
 41107  1  0  0  0
 41108  1  0  0  0
 41 48  1  0  0  0
 42 43  1  0  0  0
 42 66  1  0  0  0
 42109  1  0  0  0
 42110  1  0  0  0
 43 44  1  0  0  0
 44111  1  0  0  0
 45 46  2  0  0  0
 45112  1  0  0  0
 46113  1  0  0  0
 47114  1  0  0  0
 47115  1  0  0  0
 48 56  1  0  0  0
 48 65  1  0  0  0
 48116  1  0  0  0
 49 50  1  0  0  0
 49 53  1  0  0  0
 49 64  1  0  0  0
 49117  1  0  0  0
 50 51  1  0  0  0
 50118  1  0  0  0
 50119  1  0  0  0
 51 52  1  0  0  0
 51120  1  0  0  0
 51121  1  0  0  0
 52122  1  0  0  0
 52123  1  0  0  0
 53 54  1  0  0  0
 54 55  2  0  0  0
 54124  1  0  0  0
 55 57  1  0  0  0
 55125  1  0  0  0
 56 69  2  0  0  0
 57 58  2  0  0  0
 57126  1  0  0  0
 58127  1  0  0  0
 59 60  1  0  0  0
 59 61  1  0  0  0
 59 62  1  0  0  0
 60128  1  0  0  0
 60129  1  0  0  0
 60130  1  0  0  0
 61131  1  0  0  0
 61132  1  0  0  0
 61133  1  0  0  0
 62134  1  0  0  0
 62135  1  0  0  0
 62136  1  0  0  0
 63 65  1  0  0  0
 63137  1  0  0  0
 63138  1  0  0  0
 63139  1  0  0  0
 64140  1  0  0  0
 65141  1  0  0  0
 68 78  1  0  0  0
 71 73  2  0  0  0
 71 80  1  0  0  0
 71142  1  0  0  0
 72 74  2  0  0  0
 72 80  1  0  0  0
 72143  1  0  0  0
 73 74  1  0  0  0
 73 76  1  0  0  0
 74 79  1  0  0  0
 75144  1  0  0  0
 75145  1  0  0  0
 75146  1  0  0  0
 75 79  1  0  0  0
 76 81  1  0  0  0
 76147  1  0  0  0
 76148  1  0  0  0
 77 78  1  0  0  0
 77 80  1  0  0  0
 77149  1  0  0  0
 77150  1  0  0  0
 78151  1  0  0  0
 78152  1  0  0  0
 79 82  1  0  0  0
 79153  1  0  0  0
 81154  1  0  0  0
 82155  1  0  0  0
 82156  1  0  0  0
 82157  1  0  0  0
M  CHG  1  82   1
M  ISO  4   1 100  68 101  78 101  81 100
M  END
> <chiral flag>
0

> <version>
0

> <s_m_source_file>
/data/baiqing/PycharmProjects/Reinvent-master-3.2/result/LINK_invent/BTK/process_docking_weight1_custom_sum_contain_oxygen_bond_distance_aromatic_linkinvent_7_9_3/rearranged_h_0104.sdf

> <i_m_source_file_index>
21

> <r_mmod_Potential_Energy-OPLS-2005>
270.131225585938

> <r_mmod_Stretch_Energy-OPLS-2005>
306.869720458984

> <r_mmod_Bend_Energy-OPLS-2005>
296.252380371094

> <r_mmod_Torsional_Energy-OPLS-2005>
204.87451171875

> <r_mmod_Improper_Torsional_Energy-OPLS-2005>
4.30246543884277

> <r_mmod_Van_der_Waal_Energy-OPLS-2005>
101.38451385498

> <r_mmod_Electrostatic_Energy-OPLS-2005>
-371.296447753906

> <r_mmod_Solvation_Energy-OPLS-2005>
-511.257110595703

> <b_mmod_Minimization_Converged-OPLS-2005>
0

> <r_mmod_RMS_Derivative-OPLS-2005>
0.155902177095413

$$$$
21
                    3D
 Structure written by MMmdl.
175183  0  0  1  0            999 V2000
  -30.6086  -14.7498   20.4795 C   0  0  0  0  0  0
  -30.4307  -12.4668   19.4691 C   0  0  0  0  0  0
  -29.5085  -12.5146   18.2340 C   0  0  0  0  0  0
  -28.0328  -12.3472   18.6432 C   0  0  0  0  0  0
  -27.6385  -13.2399   19.8484 C   0  0  2  0  0  0
  -28.6828  -13.1706   20.9806 C   0  0  0  0  0  0
  -25.2493  -13.8241   20.5723 C   0  0  0  0  0  0
  -24.1808  -13.0455   20.9245 C   0  0  0  0  0  0
  -24.6392  -11.6940   20.8760 C   0  0  0  0  0  0
  -23.9092  -10.4296   21.0412 C   0  0  0  0  0  0
  -24.3628   -9.4203   21.9190 C   0  0  0  0  0  0
  -23.6294   -8.2240   22.0749 C   0  0  0  0  0  0
  -22.4283   -8.0280   21.3544 C   0  0  0  0  0  0
  -21.9929   -9.0268   20.4656 C   0  0  0  0  0  0
  -22.7262  -10.2144   20.3059 C   0  0  0  0  0  0
  -21.6856   -6.0743   22.5289 C   0  0  0  0  0  0
  -21.4007   -6.5646   23.8223 C   0  0  0  0  0  0
  -21.3662   -5.6794   24.9191 C   0  0  0  0  0  0
  -21.6041   -4.3054   24.7229 C   0  0  0  0  0  0
  -21.8821   -3.8152   23.4348 C   0  0  0  0  0  0
  -21.9188   -4.6970   22.3408 C   0  0  0  0  0  0
  -22.7815  -13.5207   21.1916 C   0  0  0  0  0  0
  -22.1667   -4.2151   21.0981 F   0  0  0  0  0  0
  -21.5631   -3.4542   25.7750 F   0  0  0  0  0  0
  -29.9780  -13.5309   20.3938 N   0  0  0  0  0  0
  -26.2920  -12.9445   20.3289 N   0  0  0  0  0  0
  -25.9321  -11.6586   20.5739 N   0  0  0  0  0  0
  -22.0455  -12.8181   22.0451 N   0  0  0  0  0  0
  -25.4132  -15.1958   20.4107 N   0  0  0  0  0  0
  -31.8091  -14.8311   20.1991 O   0  0  0  0  0  0
  -21.6644   -6.8881   21.4241 O   0  0  0  0  0  0
  -22.3493  -14.5504   20.6744 O   0  0  0  0  0  0
  -24.6294  -31.8591   23.1994 C   0  0  0  0  0  0
  -25.9128  -32.4773   23.8337 C   0  0  1  0  0  0
  -27.2018  -27.2858   20.1229 C   0  0  0  0  0  0
  -25.5959  -33.8580   24.2266 N   0  0  0  0  0  0
  -23.4226  -30.4854   21.5424 C   0  0  2  0  0  0
  -24.8634  -28.9343   20.1068 C   0  0  0  0  0  0
  -22.7484  -29.4650   22.4903 C   0  0  0  0  0  0
  -18.0305  -28.1370   22.8514 C   0  0  0  0  0  0
  -24.1478  -36.7252   23.2642 C   0  0  0  0  0  0
  -25.9641  -30.7797   21.3722 C   0  0  0  0  0  0
  -26.0350  -29.4053   20.7137 C   0  0  0  0  0  0
  -27.2132  -28.5943   20.7074 C   0  0  0  0  0  0
  -26.0118  -26.8797   19.4857 C   0  0  0  0  0  0
  -24.8544  -27.6780   19.4838 C   0  0  0  0  0  0
  -23.6374  -29.8223   20.1571 C   0  0  0  0  0  0
  -25.4109  -36.3076   24.0349 C   0  0  1  0  0  0
  -20.5917  -28.3683   23.1251 C   0  0  2  0  0  0
  -20.6785  -26.9387   22.5413 C   0  0  0  0  0  0
  -19.5751  -26.6368   21.5216 C   0  0  0  0  0  0
  -18.1935  -26.7922   22.1633 C   0  0  0  0  0  0
  -19.1572  -28.8834   23.2881 C   0  0  0  0  0  0
  -18.9501  -30.1427   23.8896 C   0  0  0  0  0  0
  -17.6503  -30.6581   24.0585 C   0  0  0  0  0  0
  -25.9070  -34.9468   23.5099 C   0  0  0  0  0  0
  -16.5381  -29.9095   23.6345 C   0  0  0  0  0  0
  -16.7293  -28.6512   23.0365 C   0  0  0  0  0  0
  -26.4479  -31.6581   25.0727 C   0  0  0  0  0  0
  -25.3706  -31.3763   26.1461 C   0  0  0  0  0  0
  -27.0285  -30.2998   24.6145 C   0  0  0  0  0  0
  -27.6039  -32.4293   25.7512 C   0  0  0  0  0  0
  -27.5568  -37.1788   24.8484 C   0  0  0  0  0  0
  -21.4193  -29.3068   22.3661 N   0  0  0  0  0  0
  -26.4277  -37.3789   23.9432 N   0  0  0  0  0  0
  -24.6913  -31.0598   22.0953 N   0  0  0  0  0  0
  -23.4188  -28.8174   23.2976 O   0  0  0  0  0  0
  -28.2808  -26.3822   20.1327 O   0  0  0  0  0  0
  -26.5640  -34.8956   22.4670 O   0  0  0  0  0  0
  -23.5437  -32.1402   23.7319 O   0  0  0  0  0  0
  -29.6664  -20.4134   19.2024 C   0  0  0  0  0  0
  -29.2359  -20.8744   20.4856 C   0  0  0  0  0  0
  -30.0487  -19.0825   19.2584 C   0  0  0  0  0  0
  -29.2695  -19.7033   21.2530 C   0  0  0  0  0  0
  -28.8777  -19.5693   22.6940 C   0  0  0  0  0  0
  -32.2413  -18.3547   18.2573 C   0  0  0  0  0  0
  -30.1989  -18.5614   16.7882 C   0  0  0  0  0  0
  -31.9427  -23.3802   20.5276 C   0  0  0  0  0  0
  -32.3216  -22.8793   22.9527 C   0  0  0  0  0  0
  -28.6461  -23.6499   20.0169 C   0  0  0  0  0  0
  -29.9550  -22.7584   22.0716 C   0  0  0  0  0  0
  -28.0174  -25.0043   20.6591 C   0  0  0  0  0  0
  -30.3672  -17.2702   21.1332 C   0  0  0  0  0  0
  -28.9067  -22.3678   20.9875 C   0  0  2  0  0  0
  -30.7064  -18.2367   18.2011 C   0  0  0  0  0  0
  -31.4525  -22.5545   21.7273 C   0  0  0  0  0  0
  -29.8422  -18.5993   20.5516 N   0  0  0  0  0  0
  -29.8578  -15.8963   20.7087 N   0  0  0  0  0  0
  -31.4682  -12.6000   19.1602 H   0  0  0  0  0  0
  -30.3854  -11.4899   19.9526 H   0  0  0  0  0  0
  -29.7903  -11.7419   17.5178 H   0  0  0  0  0  0
  -29.6437  -13.4680   17.7213 H   0  0  0  0  0  0
  -27.8730  -11.2976   18.8916 H   0  0  0  0  0  0
  -27.3811  -12.5579   17.7956 H   0  0  0  0  0  0
  -27.6316  -14.2650   19.4758 H   0  0  0  0  0  0
  -28.7185  -12.1718   21.4183 H   0  0  0  0  0  0
  -28.4154  -13.8501   21.7910 H   0  0  0  0  0  0
  -25.2765   -9.5691   22.4785 H   0  0  0  0  0  0
  -24.0022   -7.4623   22.7456 H   0  0  0  0  0  0
  -21.0870   -8.8785   19.8948 H   0  0  0  0  0  0
  -22.3718  -10.9687   19.6179 H   0  0  0  0  0  0
  -21.1992   -7.6150   23.9726 H   0  0  0  0  0  0
  -21.1489   -6.0528   25.9093 H   0  0  0  0  0  0
  -22.0585   -2.7609   23.2855 H   0  0  0  0  0  0
  -22.4052  -11.9834   22.4837 H   0  0  0  0  0  0
  -21.1065  -13.1201   22.2642 H   0  0  0  0  0  0
  -24.6371  -15.8406   20.5091 H   0  0  0  0  0  0
  -26.2481  -15.6370   20.0460 H   0  0  0  0  0  0
  -26.7211  -32.5389   23.1099 H   0  0  0  0  0  0
  -25.0200  -33.9728   25.0479 H   0  0  0  0  0  0
  -22.7202  -31.3076   21.3992 H   0  0  0  0  0  0
  -23.3778  -35.9537   23.3294 H   0  0  0  0  0  0
  -24.3594  -36.8873   22.2054 H   0  0  0  0  0  0
  -23.7203  -37.6442   23.6666 H   0  0  0  0  0  0
  -26.0999  -31.5420   20.6020 H   0  0  0  0  0  0
  -26.8430  -30.8206   22.0050 H   0  0  0  0  0  0
  -28.1097  -28.9600   21.1901 H   0  0  0  0  0  0
  -25.9715  -25.9155   19.0001 H   0  0  0  0  0  0
  -23.9593  -27.3101   18.9998 H   0  0  0  0  0  0
  -23.7635  -30.6000   19.4036 H   0  0  0  0  0  0
  -22.7556  -29.2562   19.8525 H   0  0  0  0  0  0
  -25.1283  -36.1897   25.0841 H   0  0  0  0  0  0
  -21.0023  -28.3231   24.1354 H   0  0  0  0  0  0
  -20.5611  -26.2280   23.3617 H   0  0  0  0  0  0
  -21.6648  -26.7359   22.1212 H   0  0  0  0  0  0
  -19.6885  -25.6281   21.1216 H   0  0  0  0  0  0
  -19.6671  -27.3206   20.6757 H   0  0  0  0  0  0
  -17.4199  -26.6700   21.4025 H   0  0  0  0  0  0
  -18.0287  -26.0068   22.9017 H   0  0  0  0  0  0
  -19.7998  -30.7250   24.2215 H   0  0  0  0  0  0
  -17.5099  -31.6262   24.5191 H   0  0  0  0  0  0
  -15.5398  -30.3019   23.7663 H   0  0  0  0  0  0
  -15.8703  -28.0847   22.7041 H   0  0  0  0  0  0
  -24.5900  -30.7079   25.7829 H   0  0  0  0  0  0
  -24.8875  -32.2933   26.4841 H   0  0  0  0  0  0
  -25.8044  -30.9025   27.0272 H   0  0  0  0  0  0
  -26.2867  -29.6858   24.1024 H   0  0  0  0  0  0
  -27.3842  -29.7151   25.4633 H   0  0  0  0  0  0
  -27.8806  -30.4318   23.9472 H   0  0  0  0  0  0
  -27.2659  -33.3626   26.2032 H   0  0  0  0  0  0
  -28.3878  -32.6775   25.0352 H   0  0  0  0  0  0
  -28.0643  -31.8431   26.5466 H   0  0  0  0  0  0
  -28.2583  -38.0081   24.7527 H   0  0  0  0  0  0
  -28.1042  -36.2623   24.6267 H   0  0  0  0  0  0
  -27.2286  -37.1379   25.8885 H   0  0  0  0  0  0
  -20.9329  -29.8902   21.7010 H   0  0  0  0  0  0
  -26.0135  -38.2849   24.1451 H   0  0  0  0  0  0
  -29.7775  -21.0390   18.3270 H   0  0  0  0  0  0
  -29.7199  -19.7970   23.3473 H   0  0  0  0  0  0
  -28.5197  -18.5676   22.9307 H   0  0  0  0  0  0
  -28.0735  -20.2633   22.9416 H   0  0  0  0  0  0
  -32.6439  -18.0380   19.2200 H   0  0  0  0  0  0
  -32.5663  -19.3818   18.0926 H   0  0  0  0  0  0
  -32.7167  -17.7373   17.4945 H   0  0  0  0  0  0
  -29.1152  -18.4596   16.7321 H   0  0  0  0  0  0
  -30.6266  -17.8778   16.0554 H   0  0  0  0  0  0
  -30.4612  -19.5739   16.4795 H   0  0  0  0  0  0
  -33.0166  -23.2630   20.3844 H   0  0  0  0  0  0
  -31.7357  -24.4444   20.6581 H   0  0  0  0  0  0
  -31.4814  -23.0512   19.5982 H   0  0  0  0  0  0
  -33.3828  -22.7497   22.7325 H   0  0  0  0  0  0
  -32.0798  -22.2367   23.7994 H   0  0  0  0  0  0
  -32.1798  -23.9118   23.2738 H   0  0  0  0  0  0
  -29.5599  -23.9312   19.5027 H   0  0  0  0  0  0
  -27.9766  -23.3499   19.2081 H   0  0  0  0  0  0
  -29.7488  -22.1586   22.9583 H   0  0  0  0  0  0
  -29.8050  -23.7794   22.4146 H   0  0  0  0  0  0
  -28.3253  -25.0747   21.6993 H   0  0  0  0  0  0
  -26.9459  -24.8350   20.7508 H   0  0  0  0  0  0
  -30.2468  -17.3109   22.2134 H   0  0  0  0  0  0
  -31.4494  -17.2834   21.0067 H   0  0  0  0  0  0
  -27.9562  -22.2567   21.5156 H   0  0  0  0  0  0
  -30.4461  -17.1944   18.3868 H   0  0  0  0  0  0
  -31.6135  -21.5024   21.4933 H   0  0  0  0  0  0
  -28.8633  -15.7572   20.8137 H   0  0  0  0  0  0
  1 25  1  0  0  0
  1 30  2  0  0  0
  1 88  1  0  0  0
  2  3  1  0  0  0
  2 25  1  0  0  0
  2 89  1  0  0  0
  2 90  1  0  0  0
  3  4  1  0  0  0
  3 91  1  0  0  0
  3 92  1  0  0  0
  4  5  1  0  0  0
  4 93  1  0  0  0
  4 94  1  0  0  0
  5  6  1  0  0  0
  5 26  1  0  0  0
  5 95  1  0  0  0
  6 25  1  0  0  0
  6 96  1  0  0  0
  6 97  1  0  0  0
  7  8  2  0  0  0
  7 26  1  0  0  0
  7 29  1  0  0  0
  8  9  1  0  0  0
  8 22  1  0  0  0
  9 10  1  0  0  0
  9 27  2  0  0  0
 10 11  2  0  0  0
 10 15  1  0  0  0
 11 12  1  0  0  0
 11 98  1  0  0  0
 12 13  2  0  0  0
 12 99  1  0  0  0
 13 14  1  0  0  0
 13 31  1  0  0  0
 14 15  2  0  0  0
 14100  1  0  0  0
 15101  1  0  0  0
 16 17  2  0  0  0
 16 21  1  0  0  0
 16 31  1  0  0  0
 17 18  1  0  0  0
 17102  1  0  0  0
 18 19  2  0  0  0
 18103  1  0  0  0
 19 20  1  0  0  0
 19 24  1  0  0  0
 20 21  2  0  0  0
 20104  1  0  0  0
 21 23  1  0  0  0
 22 28  1  0  0  0
 22 32  2  0  0  0
 26 27  1  0  0  0
 28105  1  0  0  0
 28106  1  0  0  0
 29107  1  0  0  0
 29108  1  0  0  0
 33 34  1  0  0  0
 33 66  1  0  0  0
 33 70  2  0  0  0
 34 36  1  0  0  0
 34 59  1  0  0  0
 34109  1  0  0  0
 35 44  2  0  0  0
 35 45  1  0  0  0
 35 68  1  0  0  0
 36 56  1  0  0  0
 36110  1  0  0  0
 37 39  1  0  0  0
 37 47  1  0  0  0
 37 66  1  0  0  0
 37111  1  0  0  0
 38 43  2  0  0  0
 38 46  1  0  0  0
 38 47  1  0  0  0
 39 64  1  0  0  0
 39 67  2  0  0  0
 40 52  1  0  0  0
 40 53  2  0  0  0
 40 58  1  0  0  0
 41112  1  0  0  0
 41113  1  0  0  0
 41114  1  0  0  0
 41 48  1  0  0  0
 42 43  1  0  0  0
 42 66  1  0  0  0
 42115  1  0  0  0
 42116  1  0  0  0
 43 44  1  0  0  0
 44117  1  0  0  0
 45 46  2  0  0  0
 45118  1  0  0  0
 46119  1  0  0  0
 47120  1  0  0  0
 47121  1  0  0  0
 48 56  1  0  0  0
 48 65  1  0  0  0
 48122  1  0  0  0
 49 50  1  0  0  0
 49 53  1  0  0  0
 49 64  1  0  0  0
 49123  1  0  0  0
 50 51  1  0  0  0
 50124  1  0  0  0
 50125  1  0  0  0
 51 52  1  0  0  0
 51126  1  0  0  0
 51127  1  0  0  0
 52128  1  0  0  0
 52129  1  0  0  0
 53 54  1  0  0  0
 54 55  2  0  0  0
 54130  1  0  0  0
 55 57  1  0  0  0
 55131  1  0  0  0
 56 69  2  0  0  0
 57 58  2  0  0  0
 57132  1  0  0  0
 58133  1  0  0  0
 59 60  1  0  0  0
 59 61  1  0  0  0
 59 62  1  0  0  0
 60134  1  0  0  0
 60135  1  0  0  0
 60136  1  0  0  0
 61137  1  0  0  0
 61138  1  0  0  0
 61139  1  0  0  0
 62140  1  0  0  0
 62141  1  0  0  0
 62142  1  0  0  0
 63 65  1  0  0  0
 63143  1  0  0  0
 63144  1  0  0  0
 63145  1  0  0  0
 64146  1  0  0  0
 65147  1  0  0  0
 68 82  1  0  0  0
 71 72  1  0  0  0
 71 73  2  0  0  0
 71148  1  0  0  0
 72 74  2  0  0  0
 72 84  1  0  0  0
 73 85  1  0  0  0
 73 87  1  0  0  0
 74 75  1  0  0  0
 74 87  1  0  0  0
 75149  1  0  0  0
 75150  1  0  0  0
 75151  1  0  0  0
 76152  1  0  0  0
 76153  1  0  0  0
 76154  1  0  0  0
 76 85  1  0  0  0
 77 85  1  0  0  0
 77155  1  0  0  0
 77156  1  0  0  0
 77157  1  0  0  0
 78158  1  0  0  0
 78159  1  0  0  0
 78160  1  0  0  0
 78 86  1  0  0  0
 79 86  1  0  0  0
 79161  1  0  0  0
 79162  1  0  0  0
 79163  1  0  0  0
 80 82  1  0  0  0
 80164  1  0  0  0
 80165  1  0  0  0
 80 84  1  0  0  0
 81 84  1  0  0  0
 81 86  1  0  0  0
 81166  1  0  0  0
 81167  1  0  0  0
 82168  1  0  0  0
 82169  1  0  0  0
 83 87  1  0  0  0
 83 88  1  0  0  0
 83170  1  0  0  0
 83171  1  0  0  0
 84172  1  0  0  0
 85173  1  0  0  0
 86174  1  0  0  0
 88175  1  0  0  0
M  ISO  4   1 100  68 101  82 101  88 100
M  END
> <chiral flag>
0

> <version>
0

> <s_m_source_file>
/data/baiqing/PycharmProjects/Reinvent-master-3.2/result/LINK_invent/BTK/process_docking_weight1_custom_sum_contain_oxygen_bond_distance_aromatic_linkinvent_7_9_3/rearranged_h_0104.sdf

> <i_m_source_file_index>
22

> <r_mmod_Potential_Energy-OPLS-2005>
122.071716308594

> <r_mmod_Stretch_Energy-OPLS-2005>
122.941246032715

> <r_mmod_Bend_Energy-OPLS-2005>
192.410705566406

> <r_mmod_Torsional_Energy-OPLS-2005>
262.788391113281

> <r_mmod_Improper_Torsional_Energy-OPLS-2005>
6.71483612060547

> <r_mmod_Van_der_Waal_Energy-OPLS-2005>
113.819946289062

> <r_mmod_Electrostatic_Energy-OPLS-2005>
-464.642272949219

> <r_mmod_Solvation_Energy-OPLS-2005>
-194.693374633789

> <b_mmod_Minimization_Converged-OPLS-2005>
0

> <r_mmod_RMS_Derivative-OPLS-2005>
5.05235195159912

$$$$
22
                    3D
 Structure written by MMmdl.
162170  0  0  1  0            999 V2000
  -30.6761  -14.7160   20.4469 C   0  0  0  0  0  0
  -30.4145  -12.4394   19.4705 C   0  0  0  0  0  0
  -29.5007  -12.4953   18.2300 C   0  0  0  0  0  0
  -28.0267  -12.3363   18.6439 C   0  0  0  0  0  0
  -27.6391  -13.2396   19.8464 C   0  0  2  0  0  0
  -28.6869  -13.1964   20.9801 C   0  0  0  0  0  0
  -25.2503  -13.8212   20.5701 C   0  0  0  0  0  0
  -24.1806  -13.0450   20.9220 C   0  0  0  0  0  0
  -24.6404  -11.6927   20.8752 C   0  0  0  0  0  0
  -23.9080  -10.4293   21.0399 C   0  0  0  0  0  0
  -24.3631   -9.4214   21.9182 C   0  0  0  0  0  0
  -23.6299   -8.2251   22.0751 C   0  0  0  0  0  0
  -22.4283   -8.0286   21.3543 C   0  0  0  0  0  0
  -21.9926   -9.0259   20.4642 C   0  0  0  0  0  0
  -22.7253  -10.2135   20.3048 C   0  0  0  0  0  0
  -21.6855   -6.0734   22.5282 C   0  0  0  0  0  0
  -21.4015   -6.5638   23.8215 C   0  0  0  0  0  0
  -21.3663   -5.6796   24.9179 C   0  0  0  0  0  0
  -21.6046   -4.3058   24.7228 C   0  0  0  0  0  0
  -21.8822   -3.8144   23.4350 C   0  0  0  0  0  0
  -21.9196   -4.6961   22.3404 C   0  0  0  0  0  0
  -22.7825  -13.5227   21.1872 C   0  0  0  0  0  0
  -22.1667   -4.2146   21.0980 F   0  0  0  0  0  0
  -21.5630   -3.4541   25.7736 F   0  0  0  0  0  0
  -29.9855  -13.5261   20.3839 N   0  0  0  0  0  0
  -26.2939  -12.9440   20.3285 N   0  0  0  0  0  0
  -25.9336  -11.6575   20.5755 N   0  0  0  0  0  0
  -22.0469  -12.8206   22.0410 N   0  0  0  0  0  0
  -25.4170  -15.1937   20.4111 N   0  0  0  0  0  0
  -31.8718  -14.7243   20.1482 O   0  0  0  0  0  0
  -21.6655   -6.8878   21.4240 O   0  0  0  0  0  0
  -22.3509  -14.5526   20.6703 O   0  0  0  0  0  0
  -24.6293  -31.8563   23.1977 C   0  0  0  0  0  0
  -25.9124  -32.4757   23.8332 C   0  0  1  0  0  0
  -27.2168  -27.2659   20.1371 C   0  0  0  0  0  0
  -25.5934  -33.8557   24.2271 N   0  0  0  0  0  0
  -23.4262  -30.4799   21.5404 C   0  0  2  0  0  0
  -24.8759  -28.9299   20.1101 C   0  0  0  0  0  0
  -22.7502  -29.4601   22.4895 C   0  0  0  0  0  0
  -18.0290  -28.1364   22.8489 C   0  0  0  0  0  0
  -24.1486  -36.7276   23.2647 C   0  0  0  0  0  0
  -25.9723  -30.7744   21.3746 C   0  0  0  0  0  0
  -26.0480  -29.3951   20.7210 C   0  0  0  0  0  0
  -27.2239  -28.5765   20.7222 C   0  0  0  0  0  0
  -26.0308  -26.8799   19.4739 C   0  0  0  0  0  0
  -24.8729  -27.6798   19.4736 C   0  0  0  0  0  0
  -23.6456  -29.8156   20.1570 C   0  0  0  0  0  0
  -25.4110  -36.3067   24.0342 C   0  0  1  0  0  0
  -20.5906  -28.3672   23.1259 C   0  0  2  0  0  0
  -20.6770  -26.9381   22.5403 C   0  0  0  0  0  0
  -19.5746  -26.6363   21.5200 C   0  0  0  0  0  0
  -18.1927  -26.7912   22.1615 C   0  0  0  0  0  0
  -19.1556  -28.8839   23.2873 C   0  0  0  0  0  0
  -18.9476  -30.1440   23.8886 C   0  0  0  0  0  0
  -17.6475  -30.6570   24.0556 C   0  0  0  0  0  0
  -25.9058  -34.9436   23.5101 C   0  0  0  0  0  0
  -16.5362  -29.9069   23.6321 C   0  0  0  0  0  0
  -16.7284  -28.6487   23.0348 C   0  0  0  0  0  0
  -26.4491  -31.6577   25.0707 C   0  0  0  0  0  0
  -25.3720  -31.3737   26.1437 C   0  0  0  0  0  0
  -27.0337  -30.3005   24.6159 C   0  0  0  0  0  0
  -27.6040  -32.4331   25.7487 C   0  0  0  0  0  0
  -27.5568  -37.1788   24.8471 C   0  0  0  0  0  0
  -21.4209  -29.3034   22.3656 N   0  0  0  0  0  0
  -26.4277  -37.3764   23.9418 N   0  0  0  0  0  0
  -24.6954  -31.0543   22.0945 N   0  0  0  0  0  0
  -23.4205  -28.8125   23.2974 O   0  0  0  0  0  0
  -28.3004  -26.3576   20.1843 O   0  0  0  0  0  0
  -26.5622  -34.8902   22.4667 O   0  0  0  0  0  0
  -23.5450  -32.1389   23.7270 O   0  0  0  0  0  0
  -29.1970  -19.5701   20.5168 C   0  0  0  0  0  0
  -30.8433  -21.0759   20.3377 C   0  0  0  0  0  0
  -30.3587  -18.7876   20.4109 C   0  0  0  0  0  0
  -31.3622  -19.8126   20.2917 C   0  0  0  0  0  0
  -29.3584  -23.7548   18.6894 C   0  0  0  0  0  0
  -33.4144  -19.2090   21.3977 C   0  0  0  0  0  0
  -33.1806  -19.0128   18.9006 C   0  0  0  0  0  0
  -30.7834  -17.2381   20.3701 C   0  0  0  0  0  0
  -28.5379  -22.1837   20.5981 C   0  0  0  0  0  0
  -28.0088  -24.9195   20.5378 C   0  0  0  0  0  0
  -29.0055  -23.6922   20.1843 C   0  0  2  0  0  0
  -29.4743  -20.9825   20.4642 N   0  0  0  0  0  0
  -30.0257  -15.9358   20.6000 N   0  0  0  0  0  0
  -32.7428  -19.6038   20.1628 N   0  0  0  0  0  0
  -31.4581  -12.5285   19.1651 H   0  0  0  0  0  0
  -30.3339  -11.4706   19.9638 H   0  0  0  0  0  0
  -29.7767  -11.7131   17.5216 H   0  0  0  0  0  0
  -29.6415  -13.4429   17.7084 H   0  0  0  0  0  0
  -27.8752  -11.2876   18.9025 H   0  0  0  0  0  0
  -27.3726  -12.5372   17.7959 H   0  0  0  0  0  0
  -27.6295  -14.2594   19.4625 H   0  0  0  0  0  0
  -28.7180  -12.2106   21.4470 H   0  0  0  0  0  0
  -28.4317  -13.9044   21.7707 H   0  0  0  0  0  0
  -25.2771   -9.5703   22.4763 H   0  0  0  0  0  0
  -24.0014   -7.4648   22.7476 H   0  0  0  0  0  0
  -21.0858   -8.8776   19.8940 H   0  0  0  0  0  0
  -22.3711  -10.9677   19.6158 H   0  0  0  0  0  0
  -21.2004   -7.6145   23.9718 H   0  0  0  0  0  0
  -21.1483   -6.0521   25.9084 H   0  0  0  0  0  0
  -22.0590   -2.7603   23.2852 H   0  0  0  0  0  0
  -22.4100  -11.9885   22.4811 H   0  0  0  0  0  0
  -21.1065  -13.1200   22.2566 H   0  0  0  0  0  0
  -24.6461  -15.8435   20.5200 H   0  0  0  0  0  0
  -26.2578  -15.6349   20.0587 H   0  0  0  0  0  0
  -26.7196  -32.5416   23.1086 H   0  0  0  0  0  0
  -25.0087  -33.9708   25.0420 H   0  0  0  0  0  0
  -22.7215  -31.3009   21.3958 H   0  0  0  0  0  0
  -23.3734  -35.9620   23.3321 H   0  0  0  0  0  0
  -24.3576  -36.8874   22.2057 H   0  0  0  0  0  0
  -23.7247  -37.6485   23.6658 H   0  0  0  0  0  0
  -26.1030  -31.5330   20.5998 H   0  0  0  0  0  0
  -26.8517  -30.8283   22.0052 H   0  0  0  0  0  0
  -28.1211  -28.9283   21.2122 H   0  0  0  0  0  0
  -25.9776  -25.9397   18.9455 H   0  0  0  0  0  0
  -23.9812  -27.3214   18.9770 H   0  0  0  0  0  0
  -23.7707  -30.5922   19.4029 H   0  0  0  0  0  0
  -22.7643  -29.2492   19.8512 H   0  0  0  0  0  0
  -25.1275  -36.1914   25.0834 H   0  0  0  0  0  0
  -21.0015  -28.3252   24.1374 H   0  0  0  0  0  0
  -20.5633  -26.2283   23.3613 H   0  0  0  0  0  0
  -21.6636  -26.7375   22.1215 H   0  0  0  0  0  0
  -19.6898  -25.6274   21.1231 H   0  0  0  0  0  0
  -19.6680  -27.3173   20.6732 H   0  0  0  0  0  0
  -17.4192  -26.6677   21.4014 H   0  0  0  0  0  0
  -18.0320  -26.0034   22.9004 H   0  0  0  0  0  0
  -19.7959  -30.7265   24.2236 H   0  0  0  0  0  0
  -17.5028  -31.6245   24.5157 H   0  0  0  0  0  0
  -15.5360  -30.2963   23.7643 H   0  0  0  0  0  0
  -15.8691  -28.0803   22.7051 H   0  0  0  0  0  0
  -24.5925  -30.7030   25.7798 H   0  0  0  0  0  0
  -24.8869  -32.2911   26.4797 H   0  0  0  0  0  0
  -25.8050  -30.8999   27.0259 H   0  0  0  0  0  0
  -26.2922  -29.6760   24.1165 H   0  0  0  0  0  0
  -27.4031  -29.7245   25.4649 H   0  0  0  0  0  0
  -27.8785  -30.4291   23.9385 H   0  0  0  0  0  0
  -27.2641  -33.3660   26.1998 H   0  0  0  0  0  0
  -28.3883  -32.6850   25.0338 H   0  0  0  0  0  0
  -28.0656  -31.8498   26.5461 H   0  0  0  0  0  0
  -28.2577  -38.0089   24.7499 H   0  0  0  0  0  0
  -28.1062  -36.2612   24.6311 H   0  0  0  0  0  0
  -27.2282  -37.1452   25.8872 H   0  0  0  0  0  0
  -20.9381  -29.8827   21.6945 H   0  0  0  0  0  0
  -26.0149  -38.2831   24.1438 H   0  0  0  0  0  0
  -28.1704  -19.2476   20.6326 H   0  0  0  0  0  0
  -31.3349  -22.0380   20.2909 H   0  0  0  0  0  0
  -30.0651  -22.9759   18.4033 H   0  0  0  0  0  0
  -29.8088  -24.7154   18.4339 H   0  0  0  0  0  0
  -28.4679  -23.6347   18.0729 H   0  0  0  0  0  0
  -32.7149  -19.0968   22.2282 H   0  0  0  0  0  0
  -34.1490  -19.9622   21.6846 H   0  0  0  0  0  0
  -33.9370  -18.2592   21.2781 H   0  0  0  0  0  0
  -33.5467  -17.9945   19.0430 H   0  0  0  0  0  0
  -33.9911  -19.6002   18.4657 H   0  0  0  0  0  0
  -32.3741  -18.9739   18.1653 H   0  0  0  0  0  0
  -31.6180  -17.1765   21.0690 H   0  0  0  0  0  0
  -31.2375  -17.1254   19.3843 H   0  0  0  0  0  0
  -27.6346  -21.9404   20.0378 H   0  0  0  0  0  0
  -28.2240  -22.2078   21.6422 H   0  0  0  0  0  0
  -27.8761  -24.9182   21.6207 H   0  0  0  0  0  0
  -27.0373  -24.6180   20.1572 H   0  0  0  0  0  0
  -29.9235  -23.8886   20.7366 H   0  0  0  0  0  0
  -29.0363  -15.9634   20.7903 H   0  0  0  0  0  0
  1 25  1  0  0  0
  1 30  2  0  0  0
  1 83  1  0  0  0
  2  3  1  0  0  0
  2 25  1  0  0  0
  2 85  1  0  0  0
  2 86  1  0  0  0
  3  4  1  0  0  0
  3 87  1  0  0  0
  3 88  1  0  0  0
  4  5  1  0  0  0
  4 89  1  0  0  0
  4 90  1  0  0  0
  5  6  1  0  0  0
  5 26  1  0  0  0
  5 91  1  0  0  0
  6 25  1  0  0  0
  6 92  1  0  0  0
  6 93  1  0  0  0
  7  8  2  0  0  0
  7 26  1  0  0  0
  7 29  1  0  0  0
  8  9  1  0  0  0
  8 22  1  0  0  0
  9 10  1  0  0  0
  9 27  2  0  0  0
 10 11  2  0  0  0
 10 15  1  0  0  0
 11 12  1  0  0  0
 11 94  1  0  0  0
 12 13  2  0  0  0
 12 95  1  0  0  0
 13 14  1  0  0  0
 13 31  1  0  0  0
 14 15  2  0  0  0
 14 96  1  0  0  0
 15 97  1  0  0  0
 16 17  2  0  0  0
 16 21  1  0  0  0
 16 31  1  0  0  0
 17 18  1  0  0  0
 17 98  1  0  0  0
 18 19  2  0  0  0
 18 99  1  0  0  0
 19 20  1  0  0  0
 19 24  1  0  0  0
 20 21  2  0  0  0
 20100  1  0  0  0
 21 23  1  0  0  0
 22 28  1  0  0  0
 22 32  2  0  0  0
 26 27  1  0  0  0
 28101  1  0  0  0
 28102  1  0  0  0
 29103  1  0  0  0
 29104  1  0  0  0
 33 34  1  0  0  0
 33 66  1  0  0  0
 33 70  2  0  0  0
 34 36  1  0  0  0
 34 59  1  0  0  0
 34105  1  0  0  0
 35 44  2  0  0  0
 35 45  1  0  0  0
 35 68  1  0  0  0
 36 56  1  0  0  0
 36106  1  0  0  0
 37 39  1  0  0  0
 37 47  1  0  0  0
 37 66  1  0  0  0
 37107  1  0  0  0
 38 43  2  0  0  0
 38 46  1  0  0  0
 38 47  1  0  0  0
 39 64  1  0  0  0
 39 67  2  0  0  0
 40 52  1  0  0  0
 40 53  2  0  0  0
 40 58  1  0  0  0
 41108  1  0  0  0
 41109  1  0  0  0
 41110  1  0  0  0
 41 48  1  0  0  0
 42 43  1  0  0  0
 42 66  1  0  0  0
 42111  1  0  0  0
 42112  1  0  0  0
 43 44  1  0  0  0
 44113  1  0  0  0
 45 46  2  0  0  0
 45114  1  0  0  0
 46115  1  0  0  0
 47116  1  0  0  0
 47117  1  0  0  0
 48 56  1  0  0  0
 48 65  1  0  0  0
 48118  1  0  0  0
 49 50  1  0  0  0
 49 53  1  0  0  0
 49 64  1  0  0  0
 49119  1  0  0  0
 50 51  1  0  0  0
 50120  1  0  0  0
 50121  1  0  0  0
 51 52  1  0  0  0
 51122  1  0  0  0
 51123  1  0  0  0
 52124  1  0  0  0
 52125  1  0  0  0
 53 54  1  0  0  0
 54 55  2  0  0  0
 54126  1  0  0  0
 55 57  1  0  0  0
 55127  1  0  0  0
 56 69  2  0  0  0
 57 58  2  0  0  0
 57128  1  0  0  0
 58129  1  0  0  0
 59 60  1  0  0  0
 59 61  1  0  0  0
 59 62  1  0  0  0
 60130  1  0  0  0
 60131  1  0  0  0
 60132  1  0  0  0
 61133  1  0  0  0
 61134  1  0  0  0
 61135  1  0  0  0
 62136  1  0  0  0
 62137  1  0  0  0
 62138  1  0  0  0
 63 65  1  0  0  0
 63139  1  0  0  0
 63140  1  0  0  0
 63141  1  0  0  0
 64142  1  0  0  0
 65143  1  0  0  0
 68 80  1  0  0  0
 71 73  2  0  0  0
 71 82  1  0  0  0
 71144  1  0  0  0
 72 74  2  0  0  0
 72 82  1  0  0  0
 72145  1  0  0  0
 73 74  1  0  0  0
 73 78  1  0  0  0
 74 84  1  0  0  0
 75146  1  0  0  0
 75147  1  0  0  0
 75148  1  0  0  0
 75 81  1  0  0  0
 76 84  1  0  0  0
 76149  1  0  0  0
 76150  1  0  0  0
 76151  1  0  0  0
 77 84  1  0  0  0
 77152  1  0  0  0
 77153  1  0  0  0
 77154  1  0  0  0
 78 83  1  0  0  0
 78155  1  0  0  0
 78156  1  0  0  0
 79 81  1  0  0  0
 79 82  1  0  0  0
 79157  1  0  0  0
 79158  1  0  0  0
 80 81  1  0  0  0
 80159  1  0  0  0
 80160  1  0  0  0
 81161  1  0  0  0
 83162  1  0  0  0
M  ISO  4   1 100  68 101  80 101  83 100
M  END
> <chiral flag>
0

> <version>
0

> <s_m_source_file>
/data/baiqing/PycharmProjects/Reinvent-master-3.2/result/LINK_invent/BTK/process_docking_weight1_custom_sum_contain_oxygen_bond_distance_aromatic_linkinvent_7_9_3/rearranged_h_0104.sdf

> <i_m_source_file_index>
23

> <r_mmod_Potential_Energy-OPLS-2005>
176.218887329102

> <r_mmod_Stretch_Energy-OPLS-2005>
125.399223327637

> <r_mmod_Bend_Energy-OPLS-2005>
224.530212402344

> <r_mmod_Torsional_Energy-OPLS-2005>
255.913986206055

> <r_mmod_Improper_Torsional_Energy-OPLS-2005>
8.31763648986816

> <r_mmod_Van_der_Waal_Energy-OPLS-2005>
124.754951477051

> <r_mmod_Electrostatic_Energy-OPLS-2005>
-410.615570068359

> <r_mmod_Solvation_Energy-OPLS-2005>
-233.980209350586

> <b_mmod_Minimization_Converged-OPLS-2005>
0

> <r_mmod_RMS_Derivative-OPLS-2005>
2.20233631134033

$$$$
23
                    3D
 Structure written by MMmdl.
171179  0  0  1  0            999 V2000
  -30.7788  -14.5028   20.5044 C   0  0  0  0  0  0
  -30.3981  -12.3152   19.4333 C   0  0  0  0  0  0
  -29.4922  -12.5070   18.2050 C   0  0  0  0  0  0
  -28.0157  -12.3676   18.6185 C   0  0  0  0  0  0
  -27.6565  -13.2302   19.8611 C   0  0  2  0  0  0
  -28.7094  -13.0967   20.9861 C   0  0  0  0  0  0
  -25.2580  -13.8219   20.5677 C   0  0  0  0  0  0
  -24.1858  -13.0476   20.9182 C   0  0  0  0  0  0
  -24.6453  -11.6938   20.8762 C   0  0  0  0  0  0
  -23.9113  -10.4319   21.0409 C   0  0  0  0  0  0
  -24.3644   -9.4218   21.9178 C   0  0  0  0  0  0
  -23.6311   -8.2258   22.0764 C   0  0  0  0  0  0
  -22.4297   -8.0320   21.3550 C   0  0  0  0  0  0
  -21.9950   -9.0293   20.4645 C   0  0  0  0  0  0
  -22.7300  -10.2153   20.3050 C   0  0  0  0  0  0
  -21.6841   -6.0751   22.5275 C   0  0  0  0  0  0
  -21.3999   -6.5647   23.8220 C   0  0  0  0  0  0
  -21.3646   -5.6791   24.9168 C   0  0  0  0  0  0
  -21.6038   -4.3055   24.7224 C   0  0  0  0  0  0
  -21.8829   -3.8156   23.4342 C   0  0  0  0  0  0
  -21.9205   -4.6976   22.3393 C   0  0  0  0  0  0
  -22.7879  -13.5232   21.1837 C   0  0  0  0  0  0
  -22.1670   -4.2168   21.0969 F   0  0  0  0  0  0
  -21.5632   -3.4535   25.7731 F   0  0  0  0  0  0
  -30.0296  -13.3646   20.4013 N   0  0  0  0  0  0
  -26.3040  -12.9432   20.3343 N   0  0  0  0  0  0
  -25.9382  -11.6569   20.5787 N   0  0  0  0  0  0
  -22.0514  -12.8219   22.0368 N   0  0  0  0  0  0
  -25.4315  -15.1943   20.4033 N   0  0  0  0  0  0
  -31.9507  -14.5056   20.1441 O   0  0  0  0  0  0
  -21.6647   -6.8923   21.4257 O   0  0  0  0  0  0
  -22.3570  -14.5543   20.6698 O   0  0  0  0  0  0
  -24.6145  -31.8742   23.2198 C   0  0  0  0  0  0
  -25.9028  -32.4864   23.8496 C   0  0  1  0  0  0
  -27.2072  -27.4269   20.0785 C   0  0  0  0  0  0
  -25.5909  -33.8658   24.2414 N   0  0  0  0  0  0
  -23.3997  -30.5074   21.5623 C   0  0  2  0  0  0
  -24.8402  -28.9919   20.1115 C   0  0  0  0  0  0
  -22.7415  -29.4698   22.5022 C   0  0  0  0  0  0
  -18.0276  -28.1334   22.8504 C   0  0  0  0  0  0
  -24.1479  -36.7353   23.2632 C   0  0  0  0  0  0
  -25.9373  -30.8321   21.3829 C   0  0  0  0  0  0
  -26.0073  -29.4731   20.7168 C   0  0  0  0  0  0
  -27.1939  -28.6955   20.7064 C   0  0  0  0  0  0
  -26.0213  -26.9996   19.4236 C   0  0  0  0  0  0
  -24.8413  -27.7521   19.4637 C   0  0  0  0  0  0
  -23.6040  -29.8577   20.1729 C   0  0  0  0  0  0
  -25.4095  -36.3144   24.0336 C   0  0  1  0  0  0
  -20.5865  -28.3640   23.1316 C   0  0  2  0  0  0
  -20.6775  -26.9387   22.5414 C   0  0  0  0  0  0
  -19.5759  -26.6361   21.5206 C   0  0  0  0  0  0
  -18.1920  -26.7900   22.1584 C   0  0  0  0  0  0
  -19.1520  -28.8808   23.2903 C   0  0  0  0  0  0
  -18.9455  -30.1408   23.8909 C   0  0  0  0  0  0
  -17.6455  -30.6554   24.0549 C   0  0  0  0  0  0
  -25.9023  -34.9503   23.5170 C   0  0  0  0  0  0
  -16.5353  -29.9051   23.6329 C   0  0  0  0  0  0
  -16.7268  -28.6451   23.0375 C   0  0  0  0  0  0
  -26.4442  -31.6628   25.0815 C   0  0  0  0  0  0
  -25.3685  -31.3712   26.1545 C   0  0  0  0  0  0
  -27.0313  -30.3067   24.6239 C   0  0  0  0  0  0
  -27.6035  -32.4345   25.7565 C   0  0  0  0  0  0
  -27.5587  -37.1816   24.8440 C   0  0  0  0  0  0
  -21.4146  -29.3010   22.3718 N   0  0  0  0  0  0
  -26.4303  -37.3809   23.9385 N   0  0  0  0  0  0
  -24.6691  -31.0835   22.1121 N   0  0  0  0  0  0
  -23.4216  -28.8227   23.3027 O   0  0  0  0  0  0
  -28.3336  -26.6159   20.1355 O   0  0  0  0  0  0
  -26.5590  -34.8923   22.4728 O   0  0  0  0  0  0
  -23.5323  -32.1538   23.7551 O   0  0  0  0  0  0
  -32.5971  -18.0041   22.4748 C   0  0  0  0  0  0
  -32.9842  -18.2004   21.0105 C   0  0  0  0  0  0
  -31.5311  -16.9056   22.4739 C   0  0  0  0  0  0
  -31.9170  -17.4837   20.1659 C   0  0  0  0  0  0
  -30.7708  -17.0158   21.1320 C   0  0  0  0  0  0
  -28.1780  -17.8865   19.2695 C   0  0  0  0  0  0
  -30.5618  -21.5540   20.0686 C   0  0  0  0  0  0
  -29.6955  -18.1650   21.2932 C   0  0  0  0  0  0
  -28.9931  -24.1591   20.5143 C   0  0  0  0  0  0
  -28.3433  -22.7522   20.3264 C   0  0  0  0  0  0
  -28.3376  -20.1961   20.3431 C   0  0  0  0  0  0
  -28.0728  -25.2177   19.8794 C   0  0  0  0  0  0
  -29.0843  -18.8591   20.0340 C   0  0  2  0  0  0
  -29.1617  -21.4834   20.7106 C   0  0  1  0  0  0
  -30.1642  -15.6613   20.8660 N   0  0  0  0  0  0
  -31.4478  -12.3471   19.1365 H   0  0  0  0  0  0
  -30.2471  -11.3256   19.8683 H   0  0  0  0  0  0
  -29.7382  -11.7856   17.4253 H   0  0  0  0  0  0
  -29.6641  -13.4936   17.7698 H   0  0  0  0  0  0
  -27.8307  -11.3143   18.8294 H   0  0  0  0  0  0
  -27.3677  -12.6275   17.7796 H   0  0  0  0  0  0
  -27.6785  -14.2683   19.5274 H   0  0  0  0  0  0
  -28.6913  -12.0908   21.4078 H   0  0  0  0  0  0
  -28.4936  -13.7778   21.8113 H   0  0  0  0  0  0
  -25.2787   -9.5652   22.4762 H   0  0  0  0  0  0
  -24.0004   -7.4624   22.7485 H   0  0  0  0  0  0
  -21.0885   -8.8828   19.8947 H   0  0  0  0  0  0
  -22.3792  -10.9689   19.6162 H   0  0  0  0  0  0
  -21.1979   -7.6160   23.9719 H   0  0  0  0  0  0
  -21.1450   -6.0518   25.9070 H   0  0  0  0  0  0
  -22.0629   -2.7628   23.2833 H   0  0  0  0  0  0
  -22.4121  -11.9857   22.4711 H   0  0  0  0  0  0
  -21.1124  -13.1251   22.2555 H   0  0  0  0  0  0
  -24.6731  -15.8603   20.5045 H   0  0  0  0  0  0
  -26.2880  -15.6176   20.0683 H   0  0  0  0  0  0
  -26.7121  -32.5571   23.1293 H   0  0  0  0  0  0
  -25.0022  -33.9825   25.0536 H   0  0  0  0  0  0
  -22.6885  -31.3248   21.4349 H   0  0  0  0  0  0
  -23.3744  -35.9675   23.3280 H   0  0  0  0  0  0
  -24.3593  -36.9019   22.2050 H   0  0  0  0  0  0
  -23.7238  -37.6539   23.6700 H   0  0  0  0  0  0
  -26.0643  -31.6044   20.6211 H   0  0  0  0  0  0
  -26.8193  -30.8703   22.0120 H   0  0  0  0  0  0
  -28.0849  -29.0528   21.2028 H   0  0  0  0  0  0
  -25.9655  -26.0753   18.8706 H   0  0  0  0  0  0
  -23.9455  -27.3820   18.9831 H   0  0  0  0  0  0
  -23.7052  -30.6425   19.4217 H   0  0  0  0  0  0
  -22.7259  -29.2807   19.8774 H   0  0  0  0  0  0
  -25.1268  -36.2035   25.0836 H   0  0  0  0  0  0
  -20.9953  -28.3216   24.1436 H   0  0  0  0  0  0
  -20.5673  -26.2268   23.3593 H   0  0  0  0  0  0
  -21.6651  -26.7420   22.1226 H   0  0  0  0  0  0
  -19.6925  -25.6272   21.1236 H   0  0  0  0  0  0
  -19.6709  -27.3155   20.6722 H   0  0  0  0  0  0
  -17.4230  -26.6721   21.3933 H   0  0  0  0  0  0
  -18.0247  -25.9983   22.8901 H   0  0  0  0  0  0
  -19.7928  -30.7200   24.2317 H   0  0  0  0  0  0
  -17.5014  -31.6233   24.5135 H   0  0  0  0  0  0
  -15.5344  -30.2950   23.7619 H   0  0  0  0  0  0
  -15.8676  -28.0745   22.7118 H   0  0  0  0  0  0
  -24.5909  -30.7002   25.7885 H   0  0  0  0  0  0
  -24.8763  -32.2818   26.4957 H   0  0  0  0  0  0
  -25.7990  -30.8940   27.0361 H   0  0  0  0  0  0
  -26.2905  -29.6788   24.1269 H   0  0  0  0  0  0
  -27.4043  -29.7332   25.4743 H   0  0  0  0  0  0
  -27.8768  -30.4390   23.9481 H   0  0  0  0  0  0
  -27.2712  -33.3674   26.2138 H   0  0  0  0  0  0
  -28.3836  -32.6860   25.0368 H   0  0  0  0  0  0
  -28.0729  -31.8484   26.5477 H   0  0  0  0  0  0
  -28.2580  -38.0137   24.7536 H   0  0  0  0  0  0
  -28.1137  -36.2675   24.6243 H   0  0  0  0  0  0
  -27.2326  -37.1443   25.8851 H   0  0  0  0  0  0
  -20.9316  -29.8811   21.7008 H   0  0  0  0  0  0
  -26.0215  -38.2905   24.1357 H   0  0  0  0  0  0
  -32.1754  -18.9288   22.8700 H   0  0  0  0  0  0
  -33.4516  -17.7532   23.1056 H   0  0  0  0  0  0
  -33.9715  -17.7822   20.8107 H   0  0  0  0  0  0
  -33.0364  -19.2629   20.7702 H   0  0  0  0  0  0
  -30.8714  -16.9665   23.3411 H   0  0  0  0  0  0
  -32.0472  -15.9479   22.5482 H   0  0  0  0  0  0
  -32.4232  -16.6812   19.6435 H   0  0  0  0  0  0
  -31.5971  -18.1162   19.3442 H   0  0  0  0  0  0
  -28.7182  -16.9793   19.0025 H   0  0  0  0  0  0
  -27.8231  -18.3308   18.3399 H   0  0  0  0  0  0
  -27.3056  -17.6051   19.8598 H   0  0  0  0  0  0
  -31.1538  -22.3534   20.5166 H   0  0  0  0  0  0
  -30.5010  -21.7452   18.9975 H   0  0  0  0  0  0
  -31.1416  -20.6468   20.2231 H   0  0  0  0  0  0
  -30.1521  -18.9736   21.8632 H   0  0  0  0  0  0
  -28.8834  -17.8183   21.9338 H   0  0  0  0  0  0
  -29.9750  -24.2201   20.0490 H   0  0  0  0  0  0
  -29.1238  -24.3663   21.5768 H   0  0  0  0  0  0
  -28.0555  -22.6658   19.2756 H   0  0  0  0  0  0
  -27.4000  -22.7365   20.8759 H   0  0  0  0  0  0
  -27.5986  -20.0131   21.1269 H   0  0  0  0  0  0
  -27.7376  -20.4306   19.4613 H   0  0  0  0  0  0
  -27.0942  -24.9501   20.2747 H   0  0  0  0  0  0
  -28.0448  -25.0710   18.7967 H   0  0  0  0  0  0
  -29.8537  -19.1336   19.3221 H   0  0  0  0  0  0
  -29.3025  -21.4801   21.7948 H   0  0  0  0  0  0
  -29.1866  -15.5662   21.0885 H   0  0  0  0  0  0
  1 25  1  0  0  0
  1 30  2  0  0  0
  1 85  1  0  0  0
  2  3  1  0  0  0
  2 25  1  0  0  0
  2 86  1  0  0  0
  2 87  1  0  0  0
  3  4  1  0  0  0
  3 88  1  0  0  0
  3 89  1  0  0  0
  4  5  1  0  0  0
  4 90  1  0  0  0
  4 91  1  0  0  0
  5  6  1  0  0  0
  5 26  1  0  0  0
  5 92  1  0  0  0
  6 25  1  0  0  0
  6 93  1  0  0  0
  6 94  1  0  0  0
  7  8  2  0  0  0
  7 26  1  0  0  0
  7 29  1  0  0  0
  8  9  1  0  0  0
  8 22  1  0  0  0
  9 10  1  0  0  0
  9 27  2  0  0  0
 10 11  2  0  0  0
 10 15  1  0  0  0
 11 12  1  0  0  0
 11 95  1  0  0  0
 12 13  2  0  0  0
 12 96  1  0  0  0
 13 14  1  0  0  0
 13 31  1  0  0  0
 14 15  2  0  0  0
 14 97  1  0  0  0
 15 98  1  0  0  0
 16 17  2  0  0  0
 16 21  1  0  0  0
 16 31  1  0  0  0
 17 18  1  0  0  0
 17 99  1  0  0  0
 18 19  2  0  0  0
 18100  1  0  0  0
 19 20  1  0  0  0
 19 24  1  0  0  0
 20 21  2  0  0  0
 20101  1  0  0  0
 21 23  1  0  0  0
 22 28  1  0  0  0
 22 32  2  0  0  0
 26 27  1  0  0  0
 28102  1  0  0  0
 28103  1  0  0  0
 29104  1  0  0  0
 29105  1  0  0  0
 33 34  1  0  0  0
 33 66  1  0  0  0
 33 70  2  0  0  0
 34 36  1  0  0  0
 34 59  1  0  0  0
 34106  1  0  0  0
 35 44  2  0  0  0
 35 45  1  0  0  0
 35 68  1  0  0  0
 36 56  1  0  0  0
 36107  1  0  0  0
 37 39  1  0  0  0
 37 47  1  0  0  0
 37 66  1  0  0  0
 37108  1  0  0  0
 38 43  2  0  0  0
 38 46  1  0  0  0
 38 47  1  0  0  0
 39 64  1  0  0  0
 39 67  2  0  0  0
 40 52  1  0  0  0
 40 53  2  0  0  0
 40 58  1  0  0  0
 41109  1  0  0  0
 41110  1  0  0  0
 41111  1  0  0  0
 41 48  1  0  0  0
 42 43  1  0  0  0
 42 66  1  0  0  0
 42112  1  0  0  0
 42113  1  0  0  0
 43 44  1  0  0  0
 44114  1  0  0  0
 45 46  2  0  0  0
 45115  1  0  0  0
 46116  1  0  0  0
 47117  1  0  0  0
 47118  1  0  0  0
 48 56  1  0  0  0
 48 65  1  0  0  0
 48119  1  0  0  0
 49 50  1  0  0  0
 49 53  1  0  0  0
 49 64  1  0  0  0
 49120  1  0  0  0
 50 51  1  0  0  0
 50121  1  0  0  0
 50122  1  0  0  0
 51 52  1  0  0  0
 51123  1  0  0  0
 51124  1  0  0  0
 52125  1  0  0  0
 52126  1  0  0  0
 53 54  1  0  0  0
 54 55  2  0  0  0
 54127  1  0  0  0
 55 57  1  0  0  0
 55128  1  0  0  0
 56 69  2  0  0  0
 57 58  2  0  0  0
 57129  1  0  0  0
 58130  1  0  0  0
 59 60  1  0  0  0
 59 61  1  0  0  0
 59 62  1  0  0  0
 60131  1  0  0  0
 60132  1  0  0  0
 60133  1  0  0  0
 61134  1  0  0  0
 61135  1  0  0  0
 61136  1  0  0  0
 62137  1  0  0  0
 62138  1  0  0  0
 62139  1  0  0  0
 63 65  1  0  0  0
 63140  1  0  0  0
 63141  1  0  0  0
 63142  1  0  0  0
 64143  1  0  0  0
 65144  1  0  0  0
 68 82  1  0  0  0
 71 72  1  0  0  0
 71 73  1  0  0  0
 71145  1  0  0  0
 71146  1  0  0  0
 72 74  1  0  0  0
 72147  1  0  0  0
 72148  1  0  0  0
 73 75  1  0  0  0
 73149  1  0  0  0
 73150  1  0  0  0
 74 75  1  0  0  0
 74151  1  0  0  0
 74152  1  0  0  0
 75 78  1  0  0  0
 75 85  1  0  0  0
 76153  1  0  0  0
 76154  1  0  0  0
 76155  1  0  0  0
 76 83  1  0  0  0
 77156  1  0  0  0
 77157  1  0  0  0
 77158  1  0  0  0
 77 84  1  0  0  0
 78 83  1  0  0  0
 78159  1  0  0  0
 78160  1  0  0  0
 79 80  1  0  0  0
 79 82  1  0  0  0
 79161  1  0  0  0
 79162  1  0  0  0
 80 84  1  0  0  0
 80163  1  0  0  0
 80164  1  0  0  0
 81 83  1  0  0  0
 81 84  1  0  0  0
 81165  1  0  0  0
 81166  1  0  0  0
 82167  1  0  0  0
 82168  1  0  0  0
 83169  1  0  0  0
 84170  1  0  0  0
 85171  1  0  0  0
M  ISO  4   1 100  68 101  82 101  85 100
M  END
> <chiral flag>
0

> <version>
0

> <s_m_source_file>
/data/baiqing/PycharmProjects/Reinvent-master-3.2/result/LINK_invent/BTK/process_docking_weight1_custom_sum_contain_oxygen_bond_distance_aromatic_linkinvent_7_9_3/rearranged_h_0104.sdf

> <i_m_source_file_index>
24

> <r_mmod_Potential_Energy-OPLS-2005>
136.389587402344

> <r_mmod_Stretch_Energy-OPLS-2005>
52.0794067382812

> <r_mmod_Bend_Energy-OPLS-2005>
161.365173339844

> <r_mmod_Torsional_Energy-OPLS-2005>
280.382568359375

> <r_mmod_Improper_Torsional_Energy-OPLS-2005>
3.2935585975647

> <r_mmod_Van_der_Waal_Energy-OPLS-2005>
156.742492675781

> <r_mmod_Electrostatic_Energy-OPLS-2005>
-362.493255615234

> <r_mmod_Solvation_Energy-OPLS-2005>
-185.572525024414

> <b_mmod_Minimization_Converged-OPLS-2005>
0

> <r_mmod_RMS_Derivative-OPLS-2005>
4.16879320144653

$$$$
24
                    3D
 Structure written by MMmdl.
160168  0  0  1  0            999 V2000
  -30.5247  -15.0068   20.4136 C   0  0  0  0  0  0
  -30.4334  -12.6244   19.5206 C   0  0  0  0  0  0
  -29.5247  -12.5398   18.2712 C   0  0  0  0  0  0
  -28.0588  -12.3145   18.6826 C   0  0  0  0  0  0
  -27.6237  -13.2548   19.8370 C   0  0  2  0  0  0
  -28.6594  -13.3122   20.9807 C   0  0  0  0  0  0
  -25.2415  -13.8220   20.5703 C   0  0  0  0  0  0
  -24.1752  -13.0438   20.9232 C   0  0  0  0  0  0
  -24.6381  -11.6925   20.8750 C   0  0  0  0  0  0
  -23.9071  -10.4297   21.0396 C   0  0  0  0  0  0
  -24.3623   -9.4213   21.9178 C   0  0  0  0  0  0
  -23.6301   -8.2241   22.0746 C   0  0  0  0  0  0
  -22.4282   -8.0268   21.3531 C   0  0  0  0  0  0
  -21.9918   -9.0242   20.4633 C   0  0  0  0  0  0
  -22.7239  -10.2131   20.3046 C   0  0  0  0  0  0
  -21.6854   -6.0737   22.5280 C   0  0  0  0  0  0
  -21.4014   -6.5638   23.8213 C   0  0  0  0  0  0
  -21.3662   -5.6790   24.9173 C   0  0  0  0  0  0
  -21.6052   -4.3055   24.7222 C   0  0  0  0  0  0
  -21.8816   -3.8144   23.4339 C   0  0  0  0  0  0
  -21.9192   -4.6963   22.3401 C   0  0  0  0  0  0
  -22.7765  -13.5192   21.1901 C   0  0  0  0  0  0
  -22.1661   -4.2143   21.0980 F   0  0  0  0  0  0
  -21.5633   -3.4539   25.7737 F   0  0  0  0  0  0
  -29.9324  -13.7375   20.3862 N   0  0  0  0  0  0
  -26.2841  -12.9467   20.3222 N   0  0  0  0  0  0
  -25.9309  -11.6591   20.5727 N   0  0  0  0  0  0
  -22.0431  -12.8165   22.0452 N   0  0  0  0  0  0
  -25.4067  -15.1952   20.4112 N   0  0  0  0  0  0
  -31.7232  -15.0499   20.1139 O   0  0  0  0  0  0
  -21.6637   -6.8866   21.4236 O   0  0  0  0  0  0
  -22.3444  -14.5503   20.6746 O   0  0  0  0  0  0
  -24.6462  -31.8424   23.1837 C   0  0  0  0  0  0
  -25.9217  -32.4677   23.8252 C   0  0  1  0  0  0
  -27.2078  -27.0906   20.1702 C   0  0  0  0  0  0
  -25.5959  -33.8486   24.2163 N   0  0  0  0  0  0
  -23.4508  -30.4617   21.5290 C   0  0  2  0  0  0
  -24.9010  -28.8799   20.1082 C   0  0  0  0  0  0
  -22.7573  -29.4566   22.4832 C   0  0  0  0  0  0
  -18.0318  -28.1416   22.8491 C   0  0  0  0  0  0
  -24.1487  -36.7246   23.2641 C   0  0  0  0  0  0
  -26.0099  -30.7003   21.3904 C   0  0  0  0  0  0
  -26.0787  -29.3072   20.7348 C   0  0  0  0  0  0
  -27.2332  -28.4305   20.7469 C   0  0  0  0  0  0
  -26.0115  -26.7858   19.4837 C   0  0  0  0  0  0
  -24.8834  -27.6347   19.4636 C   0  0  0  0  0  0
  -23.6808  -29.7895   20.1492 C   0  0  0  0  0  0
  -25.4118  -36.3016   24.0311 C   0  0  1  0  0  0
  -20.5932  -28.3754   23.1221 C   0  0  2  0  0  0
  -20.6813  -26.9460   22.5393 C   0  0  0  0  0  0
  -19.5778  -26.6401   21.5215 C   0  0  0  0  0  0
  -18.1959  -26.7956   22.1629 C   0  0  0  0  0  0
  -19.1576  -28.8904   23.2848 C   0  0  0  0  0  0
  -18.9489  -30.1501   23.8873 C   0  0  0  0  0  0
  -17.6485  -30.6612   24.0582 C   0  0  0  0  0  0
  -25.9077  -34.9397   23.5047 C   0  0  0  0  0  0
  -16.5374  -29.9111   23.6346 C   0  0  0  0  0  0
  -16.7302  -28.6528   23.0365 C   0  0  0  0  0  0
  -26.4534  -31.6554   25.0704 C   0  0  0  0  0  0
  -25.3715  -31.3763   26.1399 C   0  0  0  0  0  0
  -27.0396  -30.2943   24.6303 C   0  0  0  0  0  0
  -27.6059  -32.4332   25.7495 C   0  0  0  0  0  0
  -27.5571  -37.1782   24.8456 C   0  0  0  0  0  0
  -21.4261  -29.3072   22.3577 N   0  0  0  0  0  0
  -26.4267  -37.3739   23.9419 N   0  0  0  0  0  0
  -24.7218  -31.0250   22.0883 N   0  0  0  0  0  0
  -23.4200  -28.8130   23.3009 O   0  0  0  0  0  0
  -28.2376  -26.0660   20.2610 O   0  0  0  0  0  0
  -26.5664  -34.8910   22.4628 O   0  0  0  0  0  0
  -23.5570  -32.1307   23.7037 O   0  0  0  0  0  0
  -29.0493  -19.6736   21.8371 C   0  0  0  0  0  0
  -29.4122  -20.4808   19.8613 C   0  0  0  0  0  0
  -29.4870  -19.2268   20.5493 C   0  0  0  0  0  0
  -28.8678  -21.0554   21.9018 C   0  0  0  0  0  0
  -29.9168  -21.8066   24.0506 C   0  0  0  0  0  0
  -27.4065  -21.4179   23.9222 C   0  0  0  0  0  0
  -26.9409  -24.2935   21.4534 C   0  0  0  0  0  0
  -30.0861  -17.7161   20.0903 C   0  0  0  0  0  0
  -29.1154  -23.2419   20.2801 C   0  0  0  0  0  0
  -28.6668  -21.8563   23.1563 C   0  0  0  0  0  0
  -27.9489  -24.5048   20.3097 C   0  0  2  0  0  0
  -29.0360  -21.6595   20.6409 N   0  0  0  0  0  0
  -29.7691  -16.2200   20.5538 N   0  0  0  0  0  0
  -31.4689  -12.7789   19.2133 H   0  0  0  0  0  0
  -30.4269  -11.6807   20.0690 H   0  0  0  0  0  0
  -29.8594  -11.7362   17.6141 H   0  0  0  0  0  0
  -29.6069  -13.4631   17.6950 H   0  0  0  0  0  0
  -27.9635  -11.2757   19.0007 H   0  0  0  0  0  0
  -27.3980  -12.4320   17.8223 H   0  0  0  0  0  0
  -27.5784  -14.2507   19.3964 H   0  0  0  0  0  0
  -28.7564  -12.3452   21.4743 H   0  0  0  0  0  0
  -28.3419  -14.0203   21.7475 H   0  0  0  0  0  0
  -25.2765   -9.5697   22.4756 H   0  0  0  0  0  0
  -24.0013   -7.4630   22.7471 H   0  0  0  0  0  0
  -21.0843   -8.8749   19.8939 H   0  0  0  0  0  0
  -22.3681  -10.9661   19.6154 H   0  0  0  0  0  0
  -21.2004   -7.6143   23.9711 H   0  0  0  0  0  0
  -21.1496   -6.0524   25.9081 H   0  0  0  0  0  0
  -22.0598   -2.7602   23.2843 H   0  0  0  0  0  0
  -22.4066  -11.9822   22.4819 H   0  0  0  0  0  0
  -21.1050  -13.1163   22.2682 H   0  0  0  0  0  0
  -24.6353  -15.8449   20.5183 H   0  0  0  0  0  0
  -26.2441  -15.6336   20.0496 H   0  0  0  0  0  0
  -26.7293  -32.5268   23.0988 H   0  0  0  0  0  0
  -25.0117  -33.9607   25.0318 H   0  0  0  0  0  0
  -22.7547  -31.2894   21.3734 H   0  0  0  0  0  0
  -23.3744  -35.9581   23.3279 H   0  0  0  0  0  0
  -24.3577  -36.8889   22.2061 H   0  0  0  0  0  0
  -23.7256  -37.6440   23.6696 H   0  0  0  0  0  0
  -26.1727  -31.4482   20.6135 H   0  0  0  0  0  0
  -26.8781  -30.7526   22.0351 H   0  0  0  0  0  0
  -28.1251  -28.7524   21.2664 H   0  0  0  0  0  0
  -25.9109  -25.8360   18.9831 H   0  0  0  0  0  0
  -23.9882  -27.3046   18.9545 H   0  0  0  0  0  0
  -23.8251  -30.5633   19.3941 H   0  0  0  0  0  0
  -22.7930  -29.2373   19.8352 H   0  0  0  0  0  0
  -25.1313  -36.1821   25.0801 H   0  0  0  0  0  0
  -21.0045  -28.3356   24.1333 H   0  0  0  0  0  0
  -20.5718  -26.2385   23.3617 H   0  0  0  0  0  0
  -21.6684  -26.7480   22.1188 H   0  0  0  0  0  0
  -19.6939  -25.6300   21.1273 H   0  0  0  0  0  0
  -19.6705  -27.3193   20.6725 H   0  0  0  0  0  0
  -17.4231  -26.6708   21.4023 H   0  0  0  0  0  0
  -18.0366  -26.0092   22.9025 H   0  0  0  0  0  0
  -19.7956  -30.7350   24.2201 H   0  0  0  0  0  0
  -17.5029  -31.6282   24.5211 H   0  0  0  0  0  0
  -15.5375  -30.3023   23.7661 H   0  0  0  0  0  0
  -15.8697  -28.0845   22.7088 H   0  0  0  0  0  0
  -24.5862  -30.7156   25.7713 H   0  0  0  0  0  0
  -24.8954  -32.2964   26.4796 H   0  0  0  0  0  0
  -25.7988  -30.8933   27.0194 H   0  0  0  0  0  0
  -26.3014  -29.6668   24.1296 H   0  0  0  0  0  0
  -27.3985  -29.7242   25.4881 H   0  0  0  0  0  0
  -27.8944  -30.4168   23.9647 H   0  0  0  0  0  0
  -27.2624  -33.3622   26.2059 H   0  0  0  0  0  0
  -28.3880  -32.6904   25.0344 H   0  0  0  0  0  0
  -28.0724  -31.8472   26.5417 H   0  0  0  0  0  0
  -28.2566  -38.0103   24.7536 H   0  0  0  0  0  0
  -28.1090  -36.2640   24.6228 H   0  0  0  0  0  0
  -27.2301  -37.1356   25.8858 H   0  0  0  0  0  0
  -20.9461  -29.8752   21.6736 H   0  0  0  0  0  0
  -26.0106  -38.2788   24.1446 H   0  0  0  0  0  0
  -28.9888  -19.0404   22.7131 H   0  0  0  0  0  0
  -29.6929  -20.6661   18.8323 H   0  0  0  0  0  0
  -30.7946  -22.1676   23.5105 H   0  0  0  0  0  0
  -30.1316  -20.7938   24.3946 H   0  0  0  0  0  0
  -29.7971  -22.4381   24.9320 H   0  0  0  0  0  0
  -26.5165  -21.4946   23.2959 H   0  0  0  0  0  0
  -27.2397  -22.0437   24.7988 H   0  0  0  0  0  0
  -27.4777  -20.3844   24.2650 H   0  0  0  0  0  0
  -26.6713  -23.2434   21.5562 H   0  0  0  0  0  0
  -26.0095  -24.8313   21.2891 H   0  0  0  0  0  0
  -27.3435  -24.6490   22.4008 H   0  0  0  0  0  0
  -31.1625  -17.8173   20.2326 H   0  0  0  0  0  0
  -29.9720  -17.6958   19.0059 H   0  0  0  0  0  0
  -29.9168  -23.6111   20.9196 H   0  0  0  0  0  0
  -29.5545  -23.2831   19.2841 H   0  0  0  0  0  0
  -28.5524  -22.9036   22.9035 H   0  0  0  0  0  0
  -27.3931  -24.3082   19.3936 H   0  0  0  0  0  0
  -28.8046  -16.0669   20.8095 H   0  0  0  0  0  0
  1 25  1  0  0  0
  1 30  2  0  0  0
  1 83  1  0  0  0
  2  3  1  0  0  0
  2 25  1  0  0  0
  2 84  1  0  0  0
  2 85  1  0  0  0
  3  4  1  0  0  0
  3 86  1  0  0  0
  3 87  1  0  0  0
  4  5  1  0  0  0
  4 88  1  0  0  0
  4 89  1  0  0  0
  5  6  1  0  0  0
  5 26  1  0  0  0
  5 90  1  0  0  0
  6 25  1  0  0  0
  6 91  1  0  0  0
  6 92  1  0  0  0
  7  8  2  0  0  0
  7 26  1  0  0  0
  7 29  1  0  0  0
  8  9  1  0  0  0
  8 22  1  0  0  0
  9 10  1  0  0  0
  9 27  2  0  0  0
 10 11  2  0  0  0
 10 15  1  0  0  0
 11 12  1  0  0  0
 11 93  1  0  0  0
 12 13  2  0  0  0
 12 94  1  0  0  0
 13 14  1  0  0  0
 13 31  1  0  0  0
 14 15  2  0  0  0
 14 95  1  0  0  0
 15 96  1  0  0  0
 16 17  2  0  0  0
 16 21  1  0  0  0
 16 31  1  0  0  0
 17 18  1  0  0  0
 17 97  1  0  0  0
 18 19  2  0  0  0
 18 98  1  0  0  0
 19 20  1  0  0  0
 19 24  1  0  0  0
 20 21  2  0  0  0
 20 99  1  0  0  0
 21 23  1  0  0  0
 22 28  1  0  0  0
 22 32  2  0  0  0
 26 27  1  0  0  0
 28100  1  0  0  0
 28101  1  0  0  0
 29102  1  0  0  0
 29103  1  0  0  0
 33 34  1  0  0  0
 33 66  1  0  0  0
 33 70  2  0  0  0
 34 36  1  0  0  0
 34 59  1  0  0  0
 34104  1  0  0  0
 35 44  2  0  0  0
 35 45  1  0  0  0
 35 68  1  0  0  0
 36 56  1  0  0  0
 36105  1  0  0  0
 37 39  1  0  0  0
 37 47  1  0  0  0
 37 66  1  0  0  0
 37106  1  0  0  0
 38 43  2  0  0  0
 38 46  1  0  0  0
 38 47  1  0  0  0
 39 64  1  0  0  0
 39 67  2  0  0  0
 40 52  1  0  0  0
 40 53  2  0  0  0
 40 58  1  0  0  0
 41107  1  0  0  0
 41108  1  0  0  0
 41109  1  0  0  0
 41 48  1  0  0  0
 42 43  1  0  0  0
 42 66  1  0  0  0
 42110  1  0  0  0
 42111  1  0  0  0
 43 44  1  0  0  0
 44112  1  0  0  0
 45 46  2  0  0  0
 45113  1  0  0  0
 46114  1  0  0  0
 47115  1  0  0  0
 47116  1  0  0  0
 48 56  1  0  0  0
 48 65  1  0  0  0
 48117  1  0  0  0
 49 50  1  0  0  0
 49 53  1  0  0  0
 49 64  1  0  0  0
 49118  1  0  0  0
 50 51  1  0  0  0
 50119  1  0  0  0
 50120  1  0  0  0
 51 52  1  0  0  0
 51121  1  0  0  0
 51122  1  0  0  0
 52123  1  0  0  0
 52124  1  0  0  0
 53 54  1  0  0  0
 54 55  2  0  0  0
 54125  1  0  0  0
 55 57  1  0  0  0
 55126  1  0  0  0
 56 69  2  0  0  0
 57 58  2  0  0  0
 57127  1  0  0  0
 58128  1  0  0  0
 59 60  1  0  0  0
 59 61  1  0  0  0
 59 62  1  0  0  0
 60129  1  0  0  0
 60130  1  0  0  0
 60131  1  0  0  0
 61132  1  0  0  0
 61133  1  0  0  0
 61134  1  0  0  0
 62135  1  0  0  0
 62136  1  0  0  0
 62137  1  0  0  0
 63 65  1  0  0  0
 63138  1  0  0  0
 63139  1  0  0  0
 63140  1  0  0  0
 64141  1  0  0  0
 65142  1  0  0  0
 68 81  1  0  0  0
 71 73  1  0  0  0
 71 74  2  0  0  0
 71143  1  0  0  0
 72 73  2  0  0  0
 72 82  1  0  0  0
 72144  1  0  0  0
 73 78  1  0  0  0
 74 80  1  0  0  0
 74 82  1  0  0  0
 75145  1  0  0  0
 75146  1  0  0  0
 75147  1  0  0  0
 75 80  1  0  0  0
 76 80  1  0  0  0
 76148  1  0  0  0
 76149  1  0  0  0
 76150  1  0  0  0
 77151  1  0  0  0
 77152  1  0  0  0
 77153  1  0  0  0
 77 81  1  0  0  0
 78 83  1  0  0  0
 78154  1  0  0  0
 78155  1  0  0  0
 79 81  1  0  0  0
 79 82  1  0  0  0
 79156  1  0  0  0
 79157  1  0  0  0
 80158  1  0  0  0
 81159  1  0  0  0
 83160  1  0  0  0
M  ISO  4   1 100  68 101  81 101  83 100
M  END
> <chiral flag>
0

> <version>
0

> <s_m_source_file>
/data/baiqing/PycharmProjects/Reinvent-master-3.2/result/LINK_invent/BTK/process_docking_weight1_custom_sum_contain_oxygen_bond_distance_aromatic_linkinvent_7_9_3/rearranged_h_0104.sdf

> <i_m_source_file_index>
25

> <r_mmod_Potential_Energy-OPLS-2005>
585.782348632812

> <r_mmod_Stretch_Energy-OPLS-2005>
317.592163085938

> <r_mmod_Bend_Energy-OPLS-2005>
309.400268554688

> <r_mmod_Torsional_Energy-OPLS-2005>
232.296279907227

> <r_mmod_Improper_Torsional_Energy-OPLS-2005>
9.30679893493652

> <r_mmod_Van_der_Waal_Energy-OPLS-2005>
109.709259033203

> <r_mmod_Electrostatic_Energy-OPLS-2005>
-421.376800537109

> <r_mmod_Solvation_Energy-OPLS-2005>
-208.902114868164

> <b_mmod_Minimization_Converged-OPLS-2005>
0

> <r_mmod_RMS_Derivative-OPLS-2005>
2.30428671836853

$$$$
25
                    3D
 Structure written by MMmdl.
181189  0  0  1  0            999 V2000
  -30.6694  -14.5723   20.4475 C   0  0  0  0  0  0
  -30.4231  -12.3373   19.4598 C   0  0  0  0  0  0
  -29.5056  -12.4923   18.2273 C   0  0  0  0  0  0
  -28.0252  -12.3561   18.6323 C   0  0  0  0  0  0
  -27.6524  -13.2204   19.8668 C   0  0  2  0  0  0
  -28.6994  -13.0796   20.9965 C   0  0  0  0  0  0
  -25.2530  -13.8200   20.5718 C   0  0  0  0  0  0
  -24.1788  -13.0455   20.9206 C   0  0  0  0  0  0
  -24.6380  -11.6929   20.8731 C   0  0  0  0  0  0
  -23.9071  -10.4295   21.0398 C   0  0  0  0  0  0
  -24.3624   -9.4211   21.9181 C   0  0  0  0  0  0
  -23.6307   -8.2237   22.0751 C   0  0  0  0  0  0
  -22.4292   -8.0277   21.3540 C   0  0  0  0  0  0
  -21.9917   -9.0251   20.4636 C   0  0  0  0  0  0
  -22.7250  -10.2129   20.3039 C   0  0  0  0  0  0
  -21.6839   -6.0730   22.5286 C   0  0  0  0  0  0
  -21.4007   -6.5649   23.8220 C   0  0  0  0  0  0
  -21.3636   -5.6807   24.9189 C   0  0  0  0  0  0
  -21.6038   -4.3068   24.7241 C   0  0  0  0  0  0
  -21.8814   -3.8148   23.4363 C   0  0  0  0  0  0
  -21.9178   -4.6954   22.3411 C   0  0  0  0  0  0
  -22.7806  -13.5219   21.1863 C   0  0  0  0  0  0
  -22.1685   -4.2142   21.0996 F   0  0  0  0  0  0
  -21.5615   -3.4568   25.7757 F   0  0  0  0  0  0
  -30.0247  -13.3697   20.4331 N   0  0  0  0  0  0
  -26.2978  -12.9382   20.3349 N   0  0  0  0  0  0
  -25.9306  -11.6541   20.5742 N   0  0  0  0  0  0
  -22.0476  -12.8194   22.0419 N   0  0  0  0  0  0
  -25.4225  -15.1935   20.4172 N   0  0  0  0  0  0
  -31.8533  -14.6837   20.1233 O   0  0  0  0  0  0
  -21.6640   -6.8881   21.4250 O   0  0  0  0  0  0
  -22.3489  -14.5523   20.6712 O   0  0  0  0  0  0
  -24.6205  -31.8652   23.2079 C   0  0  0  0  0  0
  -25.9076  -32.4805   23.8395 C   0  0  1  0  0  0
  -27.2263  -27.3737   20.1022 C   0  0  0  0  0  0
  -25.5906  -33.8605   24.2320 N   0  0  0  0  0  0
  -23.4127  -30.4901   21.5484 C   0  0  2  0  0  0
  -24.8582  -28.9547   20.1145 C   0  0  0  0  0  0
  -22.7454  -29.4638   22.4953 C   0  0  0  0  0  0
  -18.0287  -28.1375   22.8497 C   0  0  0  0  0  0
  -24.1487  -36.7305   23.2641 C   0  0  0  0  0  0
  -25.9506  -30.8108   21.3743 C   0  0  0  0  0  0
  -26.0251  -29.4444   20.7147 C   0  0  0  0  0  0
  -27.2139  -28.6645   20.7002 C   0  0  0  0  0  0
  -26.0381  -26.9272   19.4780 C   0  0  0  0  0  0
  -24.8633  -27.6982   19.4924 C   0  0  0  0  0  0
  -23.6251  -29.8282   20.1632 C   0  0  0  0  0  0
  -25.4112  -36.3104   24.0336 C   0  0  1  0  0  0
  -20.5880  -28.3662   23.1300 C   0  0  2  0  0  0
  -20.6769  -26.9392   22.5411 C   0  0  0  0  0  0
  -19.5745  -26.6371   21.5212 C   0  0  0  0  0  0
  -18.1927  -26.7918   22.1622 C   0  0  0  0  0  0
  -19.1542  -28.8835   23.2889 C   0  0  0  0  0  0
  -18.9454  -30.1439   23.8904 C   0  0  0  0  0  0
  -17.6464  -30.6574   24.0555 C   0  0  0  0  0  0
  -25.9044  -34.9466   23.5127 C   0  0  0  0  0  0
  -16.5353  -29.9078   23.6328 C   0  0  0  0  0  0
  -16.7276  -28.6489   23.0350 C   0  0  0  0  0  0
  -26.4479  -31.6596   25.0744 C   0  0  0  0  0  0
  -25.3713  -31.3706   26.1460 C   0  0  0  0  0  0
  -27.0333  -30.3034   24.6167 C   0  0  0  0  0  0
  -27.6040  -32.4319   25.7518 C   0  0  0  0  0  0
  -27.5588  -37.1814   24.8464 C   0  0  0  0  0  0
  -21.4168  -29.3033   22.3708 N   0  0  0  0  0  0
  -26.4301  -37.3792   23.9404 N   0  0  0  0  0  0
  -24.6799  -31.0709   22.1003 N   0  0  0  0  0  0
  -23.4199  -28.8178   23.3007 O   0  0  0  0  0  0
  -28.3668  -26.5722   20.1162 O   0  0  0  0  0  0
  -26.5609  -34.8925   22.4691 O   0  0  0  0  0  0
  -23.5377  -32.1432   23.7426 O   0  0  0  0  0  0
  -29.9848  -18.9827   20.2190 C   0  0  0  0  0  0
  -29.1546  -20.1715   18.5491 C   0  0  0  0  0  0
  -29.5892  -18.0650   19.2618 C   0  0  0  0  0  0
  -29.0280  -18.8548   18.1803 C   0  0  0  0  0  0
  -33.3196  -20.5494   22.5536 C   0  0  0  0  0  0
  -33.4596  -21.8607   20.4157 C   0  0  0  0  0  0
  -30.5627  -24.7590   21.1262 C   0  0  0  0  0  0
  -29.5022  -18.8456   15.7206 C   0  0  0  0  0  0
  -27.1795  -19.3029   16.5169 C   0  0  0  0  0  0
  -28.0824  -16.9992   16.5957 C   0  0  0  0  0  0
  -29.8174  -16.5271   19.2413 C   0  0  0  0  0  0
  -31.1739  -21.4535   21.5425 C   0  0  0  0  0  0
  -29.0986  -22.6854   20.5296 C   0  0  0  0  0  0
  -28.1676  -25.1441   20.3644 C   0  0  0  0  0  0
  -32.5903  -20.8964   21.2460 C   0  0  0  0  0  0
  -29.4265  -24.2137   20.2470 C   0  0  1  0  0  0
  -30.2390  -21.6123   20.3095 C   0  0  2  0  0  0
  -28.4582  -18.4816   16.7923 C   0  0  0  0  0  0
  -29.7870  -20.2959   19.7607 N   0  0  0  0  0  0
  -29.8697  -15.6684   20.4524 N   0  0  0  0  0  0
  -31.4716  -12.4215   19.1654 H   0  0  0  0  0  0
  -30.3202  -11.3423   19.8966 H   0  0  0  0  0  0
  -29.7580  -11.7461   17.4726 H   0  0  0  0  0  0
  -29.6689  -13.4641   17.7593 H   0  0  0  0  0  0
  -27.8352  -11.3055   18.8511 H   0  0  0  0  0  0
  -27.3843  -12.6136   17.7879 H   0  0  0  0  0  0
  -27.6626  -14.2531   19.5231 H   0  0  0  0  0  0
  -28.6879  -12.0674   21.4062 H   0  0  0  0  0  0
  -28.4702  -13.7432   21.8308 H   0  0  0  0  0  0
  -25.2762   -9.5710   22.4751 H   0  0  0  0  0  0
  -23.9991   -7.4631   22.7484 H   0  0  0  0  0  0
  -21.0833   -8.8762   19.8947 H   0  0  0  0  0  0
  -22.3688  -10.9663   19.6146 H   0  0  0  0  0  0
  -21.2021   -7.6166   23.9724 H   0  0  0  0  0  0
  -21.1470   -6.0558   25.9088 H   0  0  0  0  0  0
  -22.0598   -2.7606   23.2893 H   0  0  0  0  0  0
  -22.4144  -11.9855   22.4750 H   0  0  0  0  0  0
  -21.1073  -13.1128   22.2648 H   0  0  0  0  0  0
  -24.6491  -15.8406   20.5168 H   0  0  0  0  0  0
  -26.2682  -15.6360   20.0824 H   0  0  0  0  0  0
  -26.7146  -32.5504   23.1153 H   0  0  0  0  0  0
  -25.0043  -33.9765   25.0457 H   0  0  0  0  0  0
  -22.7041  -31.3090   21.4087 H   0  0  0  0  0  0
  -23.3762  -35.9626   23.3294 H   0  0  0  0  0  0
  -24.3587  -36.8935   22.2059 H   0  0  0  0  0  0
  -23.7222  -37.6498   23.6666 H   0  0  0  0  0  0
  -26.0813  -31.5808   20.6138 H   0  0  0  0  0  0
  -26.8305  -30.8538   22.0037 H   0  0  0  0  0  0
  -28.1142  -29.0348   21.1706 H   0  0  0  0  0  0
  -25.9900  -25.9826   18.9578 H   0  0  0  0  0  0
  -23.9693  -27.3231   19.0138 H   0  0  0  0  0  0
  -23.7433  -30.6057   19.4077 H   0  0  0  0  0  0
  -22.7471  -29.2551   19.8600 H   0  0  0  0  0  0
  -25.1291  -36.1978   25.0832 H   0  0  0  0  0  0
  -20.9982  -28.3221   24.1412 H   0  0  0  0  0  0
  -20.5676  -26.2264   23.3595 H   0  0  0  0  0  0
  -21.6641  -26.7422   22.1206 H   0  0  0  0  0  0
  -19.6909  -25.6281   21.1234 H   0  0  0  0  0  0
  -19.6693  -27.3183   20.6741 H   0  0  0  0  0  0
  -17.4202  -26.6674   21.4016 H   0  0  0  0  0  0
  -18.0326  -26.0053   22.9008 H   0  0  0  0  0  0
  -19.7928  -30.7249   24.2282 H   0  0  0  0  0  0
  -17.5011  -31.6256   24.5146 H   0  0  0  0  0  0
  -15.5357  -30.2971   23.7636 H   0  0  0  0  0  0
  -15.8673  -28.0801   22.7066 H   0  0  0  0  0  0
  -24.5881  -30.7076   25.7767 H   0  0  0  0  0  0
  -24.8906  -32.2860   26.4918 H   0  0  0  0  0  0
  -25.8027  -30.8846   27.0215 H   0  0  0  0  0  0
  -26.2914  -29.6786   24.1180 H   0  0  0  0  0  0
  -27.4043  -29.7285   25.4661 H   0  0  0  0  0  0
  -27.8772  -30.4348   23.9390 H   0  0  0  0  0  0
  -27.2656  -33.3604   26.2121 H   0  0  0  0  0  0
  -28.3842  -32.6890   25.0348 H   0  0  0  0  0  0
  -28.0713  -31.8422   26.5415 H   0  0  0  0  0  0
  -28.2594  -38.0125   24.7530 H   0  0  0  0  0  0
  -28.1098  -36.2652   24.6271 H   0  0  0  0  0  0
  -27.2303  -37.1441   25.8868 H   0  0  0  0  0  0
  -20.9337  -29.8772   21.6941 H   0  0  0  0  0  0
  -26.0191  -38.2875   24.1397 H   0  0  0  0  0  0
  -30.4777  -18.8057   21.1660 H   0  0  0  0  0  0
  -28.8987  -21.0670   17.9999 H   0  0  0  0  0  0
  -34.3180  -20.1521   22.3584 H   0  0  0  0  0  0
  -32.7752  -19.7986   23.1279 H   0  0  0  0  0  0
  -33.4390  -21.4298   23.1863 H   0  0  0  0  0  0
  -34.4459  -21.4313   20.2329 H   0  0  0  0  0  0
  -33.6131  -22.8129   20.9254 H   0  0  0  0  0  0
  -33.0271  -22.0757   19.4399 H   0  0  0  0  0  0
  -31.5132  -24.2856   20.8801 H   0  0  0  0  0  0
  -30.3583  -24.6017   22.1854 H   0  0  0  0  0  0
  -30.7048  -25.8302   20.9767 H   0  0  0  0  0  0
  -29.7730  -19.9016   15.7664 H   0  0  0  0  0  0
  -29.1258  -18.6562   14.7145 H   0  0  0  0  0  0
  -30.4188  -18.2666   15.8431 H   0  0  0  0  0  0
  -27.3791  -20.3734   16.4671 H   0  0  0  0  0  0
  -26.4305  -19.1386   17.2928 H   0  0  0  0  0  0
  -26.7247  -19.0319   15.5624 H   0  0  0  0  0  0
  -28.9600  -16.3527   16.6008 H   0  0  0  0  0  0
  -27.6071  -16.8409   15.6252 H   0  0  0  0  0  0
  -27.3689  -16.6530   17.3457 H   0  0  0  0  0  0
  -30.6876  -16.3572   18.6048 H   0  0  0  0  0  0
  -28.9865  -16.0723   18.7193 H   0  0  0  0  0  0
  -31.3011  -22.4039   22.0528 H   0  0  0  0  0  0
  -30.6741  -20.8243   22.2812 H   0  0  0  0  0  0
  -28.2539  -22.4257   19.8902 H   0  0  0  0  0  0
  -28.7119  -22.5831   21.5437 H   0  0  0  0  0  0
  -27.7370  -25.0364   21.3612 H   0  0  0  0  0  0
  -27.4395  -24.7281   19.6734 H   0  0  0  0  0  0
  -32.4943  -19.9739   20.6739 H   0  0  0  0  0  0
  -29.7656  -24.2835   19.2112 H   0  0  0  0  0  0
  -30.8410  -22.0385   19.5080 H   0  0  0  0  0  0
  -28.9691  -15.5151   20.8800 H   0  0  0  0  0  0
  1 25  1  0  0  0
  1 30  2  0  0  0
  1 90  1  0  0  0
  2  3  1  0  0  0
  2 25  1  0  0  0
  2 91  1  0  0  0
  2 92  1  0  0  0
  3  4  1  0  0  0
  3 93  1  0  0  0
  3 94  1  0  0  0
  4  5  1  0  0  0
  4 95  1  0  0  0
  4 96  1  0  0  0
  5  6  1  0  0  0
  5 26  1  0  0  0
  5 97  1  0  0  0
  6 25  1  0  0  0
  6 98  1  0  0  0
  6 99  1  0  0  0
  7  8  2  0  0  0
  7 26  1  0  0  0
  7 29  1  0  0  0
  8  9  1  0  0  0
  8 22  1  0  0  0
  9 10  1  0  0  0
  9 27  2  0  0  0
 10 11  2  0  0  0
 10 15  1  0  0  0
 11 12  1  0  0  0
 11100  1  0  0  0
 12 13  2  0  0  0
 12101  1  0  0  0
 13 14  1  0  0  0
 13 31  1  0  0  0
 14 15  2  0  0  0
 14102  1  0  0  0
 15103  1  0  0  0
 16 17  2  0  0  0
 16 21  1  0  0  0
 16 31  1  0  0  0
 17 18  1  0  0  0
 17104  1  0  0  0
 18 19  2  0  0  0
 18105  1  0  0  0
 19 20  1  0  0  0
 19 24  1  0  0  0
 20 21  2  0  0  0
 20106  1  0  0  0
 21 23  1  0  0  0
 22 28  1  0  0  0
 22 32  2  0  0  0
 26 27  1  0  0  0
 28107  1  0  0  0
 28108  1  0  0  0
 29109  1  0  0  0
 29110  1  0  0  0
 33 34  1  0  0  0
 33 66  1  0  0  0
 33 70  2  0  0  0
 34 36  1  0  0  0
 34 59  1  0  0  0
 34111  1  0  0  0
 35 44  2  0  0  0
 35 45  1  0  0  0
 35 68  1  0  0  0
 36 56  1  0  0  0
 36112  1  0  0  0
 37 39  1  0  0  0
 37 47  1  0  0  0
 37 66  1  0  0  0
 37113  1  0  0  0
 38 43  2  0  0  0
 38 46  1  0  0  0
 38 47  1  0  0  0
 39 64  1  0  0  0
 39 67  2  0  0  0
 40 52  1  0  0  0
 40 53  2  0  0  0
 40 58  1  0  0  0
 41114  1  0  0  0
 41115  1  0  0  0
 41116  1  0  0  0
 41 48  1  0  0  0
 42 43  1  0  0  0
 42 66  1  0  0  0
 42117  1  0  0  0
 42118  1  0  0  0
 43 44  1  0  0  0
 44119  1  0  0  0
 45 46  2  0  0  0
 45120  1  0  0  0
 46121  1  0  0  0
 47122  1  0  0  0
 47123  1  0  0  0
 48 56  1  0  0  0
 48 65  1  0  0  0
 48124  1  0  0  0
 49 50  1  0  0  0
 49 53  1  0  0  0
 49 64  1  0  0  0
 49125  1  0  0  0
 50 51  1  0  0  0
 50126  1  0  0  0
 50127  1  0  0  0
 51 52  1  0  0  0
 51128  1  0  0  0
 51129  1  0  0  0
 52130  1  0  0  0
 52131  1  0  0  0
 53 54  1  0  0  0
 54 55  2  0  0  0
 54132  1  0  0  0
 55 57  1  0  0  0
 55133  1  0  0  0
 56 69  2  0  0  0
 57 58  2  0  0  0
 57134  1  0  0  0
 58135  1  0  0  0
 59 60  1  0  0  0
 59 61  1  0  0  0
 59 62  1  0  0  0
 60136  1  0  0  0
 60137  1  0  0  0
 60138  1  0  0  0
 61139  1  0  0  0
 61140  1  0  0  0
 61141  1  0  0  0
 62142  1  0  0  0
 62143  1  0  0  0
 62144  1  0  0  0
 63 65  1  0  0  0
 63145  1  0  0  0
 63146  1  0  0  0
 63147  1  0  0  0
 64148  1  0  0  0
 65149  1  0  0  0
 68 84  1  0  0  0
 71 73  2  0  0  0
 71 89  1  0  0  0
 71150  1  0  0  0
 72 74  2  0  0  0
 72 89  1  0  0  0
 72151  1  0  0  0
 73 74  1  0  0  0
 73 81  1  0  0  0
 74 88  1  0  0  0
 75152  1  0  0  0
 75153  1  0  0  0
 75154  1  0  0  0
 75 85  1  0  0  0
 76 85  1  0  0  0
 76155  1  0  0  0
 76156  1  0  0  0
 76157  1  0  0  0
 77158  1  0  0  0
 77159  1  0  0  0
 77160  1  0  0  0
 77 86  1  0  0  0
 78161  1  0  0  0
 78162  1  0  0  0
 78163  1  0  0  0
 78 88  1  0  0  0
 79 88  1  0  0  0
 79164  1  0  0  0
 79165  1  0  0  0
 79166  1  0  0  0
 80 88  1  0  0  0
 80167  1  0  0  0
 80168  1  0  0  0
 80169  1  0  0  0
 81 90  1  0  0  0
 81170  1  0  0  0
 81171  1  0  0  0
 82 85  1  0  0  0
 82172  1  0  0  0
 82173  1  0  0  0
 82 87  1  0  0  0
 83 86  1  0  0  0
 83 87  1  0  0  0
 83174  1  0  0  0
 83175  1  0  0  0
 84 86  1  0  0  0
 84176  1  0  0  0
 84177  1  0  0  0
 85178  1  0  0  0
 86179  1  0  0  0
 87 89  1  0  0  0
 87180  1  0  0  0
 90181  1  0  0  0
M  ISO  4   1 100  68 101  84 101  90 100
M  END
> <chiral flag>
0

> <version>
0

> <s_m_source_file>
/data/baiqing/PycharmProjects/Reinvent-master-3.2/result/LINK_invent/BTK/process_docking_weight1_custom_sum_contain_oxygen_bond_distance_aromatic_linkinvent_7_9_3/rearranged_h_0104.sdf

> <i_m_source_file_index>
26

> <r_mmod_Potential_Energy-OPLS-2005>
50.8774948120117

> <r_mmod_Stretch_Energy-OPLS-2005>
64.0093688964844

> <r_mmod_Bend_Energy-OPLS-2005>
157.201904296875

> <r_mmod_Torsional_Energy-OPLS-2005>
296.408081054688

> <r_mmod_Improper_Torsional_Energy-OPLS-2005>
15.7475214004517

> <r_mmod_Van_der_Waal_Energy-OPLS-2005>
130.319351196289

> <r_mmod_Electrostatic_Energy-OPLS-2005>
-450.792602539062

> <r_mmod_Solvation_Energy-OPLS-2005>
-193.899444580078

> <b_mmod_Minimization_Converged-OPLS-2005>
0

> <r_mmod_RMS_Derivative-OPLS-2005>
3.24895071983337

$$$$
26
                    3D
 Structure written by MMmdl.
171179  0  0  1  0            999 V2000
  -30.3632  -15.3929   20.3217 C   0  0  0  0  0  0
  -30.4373  -12.9011   19.5312 C   0  0  0  0  0  0
  -29.5541  -12.6128   18.2952 C   0  0  0  0  0  0
  -28.1066  -12.3048   18.7225 C   0  0  0  0  0  0
  -27.6065  -13.2850   19.8164 C   0  0  2  0  0  0
  -28.6259  -13.5273   20.9448 C   0  0  0  0  0  0
  -25.2454  -13.8236   20.5941 C   0  0  0  0  0  0
  -24.1757  -13.0383   20.9224 C   0  0  0  0  0  0
  -24.6439  -11.6901   20.8638 C   0  0  0  0  0  0
  -23.9155  -10.4270   21.0365 C   0  0  0  0  0  0
  -24.3691   -9.4231   21.9175 C   0  0  0  0  0  0
  -23.6362   -8.2242   22.0745 C   0  0  0  0  0  0
  -22.4334   -8.0293   21.3552 C   0  0  0  0  0  0
  -21.9968   -9.0275   20.4631 C   0  0  0  0  0  0
  -22.7307  -10.2148   20.3056 C   0  0  0  0  0  0
  -21.6896   -6.0775   22.5283 C   0  0  0  0  0  0
  -21.4018   -6.5664   23.8215 C   0  0  0  0  0  0
  -21.3650   -5.6809   24.9161 C   0  0  0  0  0  0
  -21.6044   -4.3063   24.7224 C   0  0  0  0  0  0
  -21.8814   -3.8181   23.4322 C   0  0  0  0  0  0
  -21.9203   -4.7007   22.3392 C   0  0  0  0  0  0
  -22.7823  -13.5172   21.1897 C   0  0  0  0  0  0
  -22.1678   -4.2202   21.0964 F   0  0  0  0  0  0
  -21.5641   -3.4526   25.7707 F   0  0  0  0  0  0
  -29.8372  -14.0603   20.2974 N   0  0  0  0  0  0
  -26.2816  -12.9527   20.3211 N   0  0  0  0  0  0
  -25.9385  -11.6606   20.5515 N   0  0  0  0  0  0
  -22.0473  -12.8142   22.0404 N   0  0  0  0  0  0
  -25.4129  -15.1968   20.4895 N   0  0  0  0  0  0
  -31.5888  -15.3908   20.1352 O   0  0  0  0  0  0
  -21.6667   -6.8924   21.4247 O   0  0  0  0  0  0
  -22.3511  -14.5457   20.6696 O   0  0  0  0  0  0
  -24.6605  -31.8248   23.1712 C   0  0  0  0  0  0
  -25.9308  -32.4611   23.8158 C   0  0  1  0  0  0
  -27.2269  -26.9064   20.2289 C   0  0  0  0  0  0
  -25.6002  -33.8423   24.2077 N   0  0  0  0  0  0
  -23.4768  -30.4356   21.5225 C   0  0  2  0  0  0
  -24.9309  -28.8069   20.1321 C   0  0  0  0  0  0
  -22.7658  -29.4463   22.4835 C   0  0  0  0  0  0
  -18.0339  -28.1399   22.8468 C   0  0  0  0  0  0
  -24.1497  -36.7210   23.2646 C   0  0  0  0  0  0
  -26.0440  -30.6310   21.3973 C   0  0  0  0  0  0
  -26.1157  -29.2093   20.7630 C   0  0  0  0  0  0
  -27.2620  -28.2875   20.7764 C   0  0  0  0  0  0
  -26.0112  -26.6579   19.5511 C   0  0  0  0  0  0
  -24.9088  -27.5516   19.5044 C   0  0  0  0  0  0
  -23.7174  -29.7444   20.1515 C   0  0  0  0  0  0
  -25.4138  -36.2992   24.0304 C   0  0  1  0  0  0
  -20.5948  -28.3762   23.1220 C   0  0  2  0  0  0
  -20.6810  -26.9445   22.5442 C   0  0  0  0  0  0
  -19.5805  -26.6371   21.5235 C   0  0  0  0  0  0
  -18.1973  -26.7940   22.1608 C   0  0  0  0  0  0
  -19.1588  -28.8907   23.2823 C   0  0  0  0  0  0
  -18.9485  -30.1488   23.8870 C   0  0  0  0  0  0
  -17.6477  -30.6590   24.0572 C   0  0  0  0  0  0
  -25.9101  -34.9376   23.5011 C   0  0  0  0  0  0
  -16.5375  -29.9076   23.6327 C   0  0  0  0  0  0
  -16.7322  -28.6493   23.0352 C   0  0  0  0  0  0
  -26.4563  -31.6532   25.0681 C   0  0  0  0  0  0
  -25.3681  -31.3776   26.1334 C   0  0  0  0  0  0
  -27.0430  -30.2906   24.6371 C   0  0  0  0  0  0
  -27.6078  -32.4318   25.7476 C   0  0  0  0  0  0
  -27.5561  -37.1768   24.8457 C   0  0  0  0  0  0
  -21.4323  -29.3043   22.3557 N   0  0  0  0  0  0
  -26.4277  -37.3720   23.9411 N   0  0  0  0  0  0
  -24.7490  -30.9906   22.0845 N   0  0  0  0  0  0
  -23.4228  -28.8035   23.3066 O   0  0  0  0  0  0
  -28.2858  -25.8561   20.1155 O   0  0  0  0  0  0
  -26.5709  -34.8912   22.4605 O   0  0  0  0  0  0
  -23.5698  -32.1233   23.6821 O   0  0  0  0  0  0
  -29.1776  -21.3609   20.4320 C   0  0  0  0  0  0
  -27.0092  -22.3378   20.1541 C   0  0  0  0  0  0
  -28.3429  -22.6664   20.3585 C   0  0  0  0  0  0
  -28.7660  -19.8628   20.2581 C   0  0  0  0  0  0
  -26.5058  -21.0143   20.0306 C   0  0  0  0  0  0
  -27.3396  -19.8194   20.0105 C   0  0  0  0  0  0
  -24.3958  -21.5393   21.3408 C   0  0  0  0  0  0
  -26.9593  -17.3836   17.4052 C   0  0  0  0  0  0
  -24.6439  -17.8511   18.1993 C   0  0  0  0  0  0
  -26.6584  -18.4712   19.7132 C   0  0  0  0  0  0
  -29.7672  -18.3695   20.2588 C   0  0  0  0  0  0
  -28.5550  -24.3620   20.7864 C   0  0  0  0  0  0
  -24.3827  -21.7119   18.7600 C   0  0  0  0  0  0
  -24.9672  -20.9914   20.0083 C   0  0  1  0  0  0
  -26.1110  -18.3352   18.2611 C   0  0  0  0  0  0
  -29.5631  -16.6743   20.3651 N   0  0  0  0  0  0
  -22.9109  -21.7539   18.7433 N   0  3  0  0  0  0
  -31.4507  -13.1281   19.1946 H   0  0  0  0  0  0
  -30.5289  -12.0231   20.1678 H   0  0  0  0  0  0
  -29.9712  -11.7857   17.7182 H   0  0  0  0  0  0
  -29.5615  -13.4802   17.6389 H   0  0  0  0  0  0
  -28.0957  -11.2901   19.1175 H   0  0  0  0  0  0
  -27.4433  -12.3166   17.8585 H   0  0  0  0  0  0
  -27.4960  -14.2366   19.3003 H   0  0  0  0  0  0
  -28.8249  -12.6328   21.5322 H   0  0  0  0  0  0
  -28.2277  -14.2758   21.6350 H   0  0  0  0  0  0
  -25.2839   -9.5734   22.4771 H   0  0  0  0  0  0
  -24.0076   -7.4669   22.7513 H   0  0  0  0  0  0
  -21.0895   -8.8883   19.8948 H   0  0  0  0  0  0
  -22.3823  -10.9747   19.6190 H   0  0  0  0  0  0
  -21.2008   -7.6157   23.9754 H   0  0  0  0  0  0
  -21.1485   -6.0486   25.9067 H   0  0  0  0  0  0
  -22.0595   -2.7646   23.2795 H   0  0  0  0  0  0
  -22.4143  -11.9821   22.4732 H   0  0  0  0  0  0
  -21.1080  -13.1102   22.2630 H   0  0  0  0  0  0
  -24.6530  -15.8325   20.6995 H   0  0  0  0  0  0
  -26.2864  -15.6614   20.2891 H   0  0  0  0  0  0
  -26.7395  -32.5178   23.0867 H   0  0  0  0  0  0
  -25.0101  -33.9489   25.0217 H   0  0  0  0  0  0
  -22.7892  -31.2674   21.3540 H   0  0  0  0  0  0
  -23.3770  -35.9515   23.3267 H   0  0  0  0  0  0
  -24.3565  -36.8890   22.2054 H   0  0  0  0  0  0
  -23.7212  -37.6385   23.6712 H   0  0  0  0  0  0
  -26.2085  -31.3648   20.6073 H   0  0  0  0  0  0
  -26.9075  -30.7057   22.0438 H   0  0  0  0  0  0
  -28.1706  -28.6197   21.2567 H   0  0  0  0  0  0
  -25.8976  -25.7060   19.0555 H   0  0  0  0  0  0
  -24.0118  -27.2417   18.9834 H   0  0  0  0  0  0
  -23.8720  -30.5119   19.3904 H   0  0  0  0  0  0
  -22.8225  -29.2019   19.8372 H   0  0  0  0  0  0
  -25.1326  -36.1782   25.0789 H   0  0  0  0  0  0
  -21.0044  -28.3366   24.1336 H   0  0  0  0  0  0
  -20.5669  -26.2387   23.3673 H   0  0  0  0  0  0
  -21.6676  -26.7397   22.1267 H   0  0  0  0  0  0
  -19.6944  -25.6267   21.1285 H   0  0  0  0  0  0
  -19.6735  -27.3158   20.6751 H   0  0  0  0  0  0
  -17.4242  -26.6732   21.3988 H   0  0  0  0  0  0
  -18.0328  -26.0081   22.9002 H   0  0  0  0  0  0
  -19.7972  -30.7334   24.2209 H   0  0  0  0  0  0
  -17.5028  -31.6269   24.5187 H   0  0  0  0  0  0
  -15.5374  -30.2963   23.7675 H   0  0  0  0  0  0
  -15.8733  -28.0817   22.7061 H   0  0  0  0  0  0
  -24.5891  -30.7109   25.7604 H   0  0  0  0  0  0
  -24.8851  -32.2986   26.4614 H   0  0  0  0  0  0
  -25.7921  -30.9016   27.0186 H   0  0  0  0  0  0
  -26.3067  -29.6606   24.1367 H   0  0  0  0  0  0
  -27.3957  -29.7253   25.4997 H   0  0  0  0  0  0
  -27.9024  -30.4078   23.9768 H   0  0  0  0  0  0
  -27.2669  -33.3659   26.1936 H   0  0  0  0  0  0
  -28.3948  -32.6787   25.0343 H   0  0  0  0  0  0
  -28.0671  -31.8507   26.5471 H   0  0  0  0  0  0
  -28.2580  -38.0072   24.7536 H   0  0  0  0  0  0
  -28.1085  -36.2604   24.6274 H   0  0  0  0  0  0
  -27.2301  -37.1397   25.8873 H   0  0  0  0  0  0
  -20.9580  -29.8751   21.6684 H   0  0  0  0  0  0
  -26.0131  -38.2789   24.1427 H   0  0  0  0  0  0
  -30.2282  -21.5151   20.6543 H   0  0  0  0  0  0
  -26.3224  -23.1712   20.1919 H   0  0  0  0  0  0
  -24.8468  -21.0255   22.1916 H   0  0  0  0  0  0
  -23.3216  -21.3767   21.4194 H   0  0  0  0  0  0
  -24.5798  -22.6056   21.4825 H   0  0  0  0  0  0
  -26.5943  -17.3385   16.3763 H   0  0  0  0  0  0
  -26.9313  -16.3685   17.8011 H   0  0  0  0  0  0
  -28.0011  -17.6997   17.3719 H   0  0  0  0  0  0
  -24.2010  -18.0267   17.2181 H   0  0  0  0  0  0
  -23.9864  -18.3341   18.9163 H   0  0  0  0  0  0
  -24.5664  -16.7824   18.3977 H   0  0  0  0  0  0
  -25.8737  -18.3065   20.4485 H   0  0  0  0  0  0
  -27.3358  -17.6542   19.9067 H   0  0  0  0  0  0
  -30.5614  -18.5615   20.9831 H   0  0  0  0  0  0
  -30.2755  -18.4887   19.3010 H   0  0  0  0  0  0
  -29.6071  -24.4007   21.0699 H   0  0  0  0  0  0
  -28.0446  -24.4235   21.7461 H   0  0  0  0  0  0
  -24.7190  -21.1996   17.8584 H   0  0  0  0  0  0
  -24.7542  -22.7320   18.6748 H   0  0  0  0  0  0
  -24.6143  -19.9768   19.9777 H   0  0  0  0  0  0
  -26.1441  -19.3138   17.7820 H   0  0  0  0  0  0
  -28.5860  -16.4553   20.4236 H   0  0  0  0  0  0
  -22.5186  -20.8293   18.8034 H   0  0  0  0  0  0
  -22.5882  -22.1786   17.8905 H   0  0  0  0  0  0
  -22.5648  -22.3014   19.5140 H   0  0  0  0  0  0
  1 25  1  0  0  0
  1 30  2  0  0  0
  1 86  1  0  0  0
  2  3  1  0  0  0
  2 25  1  0  0  0
  2 88  1  0  0  0
  2 89  1  0  0  0
  3  4  1  0  0  0
  3 90  1  0  0  0
  3 91  1  0  0  0
  4  5  1  0  0  0
  4 92  1  0  0  0
  4 93  1  0  0  0
  5  6  1  0  0  0
  5 26  1  0  0  0
  5 94  1  0  0  0
  6 25  1  0  0  0
  6 95  1  0  0  0
  6 96  1  0  0  0
  7  8  2  0  0  0
  7 26  1  0  0  0
  7 29  1  0  0  0
  8  9  1  0  0  0
  8 22  1  0  0  0
  9 10  1  0  0  0
  9 27  2  0  0  0
 10 11  2  0  0  0
 10 15  1  0  0  0
 11 12  1  0  0  0
 11 97  1  0  0  0
 12 13  2  0  0  0
 12 98  1  0  0  0
 13 14  1  0  0  0
 13 31  1  0  0  0
 14 15  2  0  0  0
 14 99  1  0  0  0
 15100  1  0  0  0
 16 17  2  0  0  0
 16 21  1  0  0  0
 16 31  1  0  0  0
 17 18  1  0  0  0
 17101  1  0  0  0
 18 19  2  0  0  0
 18102  1  0  0  0
 19 20  1  0  0  0
 19 24  1  0  0  0
 20 21  2  0  0  0
 20103  1  0  0  0
 21 23  1  0  0  0
 22 28  1  0  0  0
 22 32  2  0  0  0
 26 27  1  0  0  0
 28104  1  0  0  0
 28105  1  0  0  0
 29106  1  0  0  0
 29107  1  0  0  0
 33 34  1  0  0  0
 33 66  1  0  0  0
 33 70  2  0  0  0
 34 36  1  0  0  0
 34 59  1  0  0  0
 34108  1  0  0  0
 35 44  2  0  0  0
 35 45  1  0  0  0
 35 68  1  0  0  0
 36 56  1  0  0  0
 36109  1  0  0  0
 37 39  1  0  0  0
 37 47  1  0  0  0
 37 66  1  0  0  0
 37110  1  0  0  0
 38 43  2  0  0  0
 38 46  1  0  0  0
 38 47  1  0  0  0
 39 64  1  0  0  0
 39 67  2  0  0  0
 40 52  1  0  0  0
 40 53  2  0  0  0
 40 58  1  0  0  0
 41111  1  0  0  0
 41112  1  0  0  0
 41113  1  0  0  0
 41 48  1  0  0  0
 42 43  1  0  0  0
 42 66  1  0  0  0
 42114  1  0  0  0
 42115  1  0  0  0
 43 44  1  0  0  0
 44116  1  0  0  0
 45 46  2  0  0  0
 45117  1  0  0  0
 46118  1  0  0  0
 47119  1  0  0  0
 47120  1  0  0  0
 48 56  1  0  0  0
 48 65  1  0  0  0
 48121  1  0  0  0
 49 50  1  0  0  0
 49 53  1  0  0  0
 49 64  1  0  0  0
 49122  1  0  0  0
 50 51  1  0  0  0
 50123  1  0  0  0
 50124  1  0  0  0
 51 52  1  0  0  0
 51125  1  0  0  0
 51126  1  0  0  0
 52127  1  0  0  0
 52128  1  0  0  0
 53 54  1  0  0  0
 54 55  2  0  0  0
 54129  1  0  0  0
 55 57  1  0  0  0
 55130  1  0  0  0
 56 69  2  0  0  0
 57 58  2  0  0  0
 57131  1  0  0  0
 58132  1  0  0  0
 59 60  1  0  0  0
 59 61  1  0  0  0
 59 62  1  0  0  0
 60133  1  0  0  0
 60134  1  0  0  0
 60135  1  0  0  0
 61136  1  0  0  0
 61137  1  0  0  0
 61138  1  0  0  0
 62139  1  0  0  0
 62140  1  0  0  0
 62141  1  0  0  0
 63 65  1  0  0  0
 63142  1  0  0  0
 63143  1  0  0  0
 63144  1  0  0  0
 64145  1  0  0  0
 65146  1  0  0  0
 68 82  1  0  0  0
 71 73  2  0  0  0
 71 74  1  0  0  0
 71147  1  0  0  0
 72 73  1  0  0  0
 72 75  2  0  0  0
 72148  1  0  0  0
 73 82  1  0  0  0
 74 76  2  0  0  0
 74 81  1  0  0  0
 75 76  1  0  0  0
 75 84  1  0  0  0
 76 80  1  0  0  0
 77149  1  0  0  0
 77150  1  0  0  0
 77151  1  0  0  0
 77 84  1  0  0  0
 78152  1  0  0  0
 78153  1  0  0  0
 78154  1  0  0  0
 78 85  1  0  0  0
 79 85  1  0  0  0
 79155  1  0  0  0
 79156  1  0  0  0
 79157  1  0  0  0
 80 85  1  0  0  0
 80158  1  0  0  0
 80159  1  0  0  0
 81 86  1  0  0  0
 81160  1  0  0  0
 81161  1  0  0  0
 82162  1  0  0  0
 82163  1  0  0  0
 83 84  1  0  0  0
 83 87  1  0  0  0
 83164  1  0  0  0
 83165  1  0  0  0
 84166  1  0  0  0
 85167  1  0  0  0
 86168  1  0  0  0
 87169  1  0  0  0
 87170  1  0  0  0
 87171  1  0  0  0
M  CHG  1  87   1
M  ISO  4   1 100  68 101  82 101  86 100
M  END
> <chiral flag>
0

> <version>
0

> <s_m_source_file>
/data/baiqing/PycharmProjects/Reinvent-master-3.2/result/LINK_invent/BTK/process_docking_weight1_custom_sum_contain_oxygen_bond_distance_aromatic_linkinvent_7_9_3/rearranged_h_0104.sdf

> <i_m_source_file_index>
27

> <r_mmod_Potential_Energy-OPLS-2005>
1273.33703613281

> <r_mmod_Stretch_Energy-OPLS-2005>
672.392395019531

> <r_mmod_Bend_Energy-OPLS-2005>
514.861267089844

> <r_mmod_Torsional_Energy-OPLS-2005>
264.043151855469

> <r_mmod_Improper_Torsional_Energy-OPLS-2005>
7.35436201095581

> <r_mmod_Van_der_Waal_Energy-OPLS-2005>
123.481246948242

> <r_mmod_Electrostatic_Energy-OPLS-2005>
-345.348999023438

> <r_mmod_Solvation_Energy-OPLS-2005>
-507.949951171875

> <b_mmod_Minimization_Converged-OPLS-2005>
0

> <r_mmod_RMS_Derivative-OPLS-2005>
8.99476528167725

$$$$
27
                    3D
 Structure written by MMmdl.
172180  0  0  1  0            999 V2000
  -30.6661  -14.4944   20.5734 C   0  0  0  0  0  0
  -30.4355  -12.3220   19.4117 C   0  0  0  0  0  0
  -29.4971  -12.5121   18.1994 C   0  0  0  0  0  0
  -28.0168  -12.3730   18.6110 C   0  0  0  0  0  0
  -27.6667  -13.2003   19.8774 C   0  0  2  0  0  0
  -28.7099  -12.9543   20.9907 C   0  0  0  0  0  0
  -25.2610  -13.8126   20.5625 C   0  0  0  0  0  0
  -24.1860  -13.0417   20.9146 C   0  0  0  0  0  0
  -24.6407  -11.6885   20.8704 C   0  0  0  0  0  0
  -23.9058  -10.4299   21.0370 C   0  0  0  0  0  0
  -24.3610   -9.4233   21.9150 C   0  0  0  0  0  0
  -23.6289   -8.2274   22.0742 C   0  0  0  0  0  0
  -22.4274   -8.0304   21.3534 C   0  0  0  0  0  0
  -21.9890   -9.0276   20.4632 C   0  0  0  0  0  0
  -22.7215  -10.2145   20.3022 C   0  0  0  0  0  0
  -21.6848   -6.0766   22.5296 C   0  0  0  0  0  0
  -21.4024   -6.5657   23.8236 C   0  0  0  0  0  0
  -21.3643   -5.6787   24.9184 C   0  0  0  0  0  0
  -21.6049   -4.3060   24.7219 C   0  0  0  0  0  0
  -21.8813   -3.8165   23.4332 C   0  0  0  0  0  0
  -21.9189   -4.6999   22.3402 C   0  0  0  0  0  0
  -22.7892  -13.5241   21.1818 C   0  0  0  0  0  0
  -22.1643   -4.2185   21.0979 F   0  0  0  0  0  0
  -21.5625   -3.4534   25.7727 F   0  0  0  0  0  0
  -30.0379  -13.2894   20.4467 N   0  0  0  0  0  0
  -26.3060  -12.9285   20.3361 N   0  0  0  0  0  0
  -25.9340  -11.6454   20.5758 N   0  0  0  0  0  0
  -22.0531  -12.8256   22.0392 N   0  0  0  0  0  0
  -25.4343  -15.1835   20.4006 N   0  0  0  0  0  0
  -31.7877  -14.7164   20.1103 O   0  0  0  0  0  0
  -21.6623   -6.8910   21.4251 O   0  0  0  0  0  0
  -22.3604  -14.5574   20.6706 O   0  0  0  0  0  0
  -24.6142  -31.8631   23.2046 C   0  0  0  0  0  0
  -25.9009  -32.4811   23.8350 C   0  0  1  0  0  0
  -27.2615  -27.4194   20.1187 C   0  0  0  0  0  0
  -25.5862  -33.8607   24.2297 N   0  0  0  0  0  0
  -23.4063  -30.4752   21.5486 C   0  0  2  0  0  0
  -24.8661  -28.9361   20.1215 C   0  0  0  0  0  0
  -22.7404  -29.4582   22.5034 C   0  0  0  0  0  0
  -18.0241  -28.1365   22.8515 C   0  0  0  0  0  0
  -24.1495  -36.7286   23.2637 C   0  0  0  0  0  0
  -25.9378  -30.8227   21.3668 C   0  0  0  0  0  0
  -26.0228  -29.4538   20.7194 C   0  0  0  0  0  0
  -27.2244  -28.7045   20.7131 C   0  0  0  0  0  0
  -26.0925  -26.9206   19.5087 C   0  0  0  0  0  0
  -24.8978  -27.6680   19.5122 C   0  0  0  0  0  0
  -23.6183  -29.7916   20.1695 C   0  0  0  0  0  0
  -25.4133  -36.3111   24.0329 C   0  0  1  0  0  0
  -20.5837  -28.3607   23.1373 C   0  0  2  0  0  0
  -20.6739  -26.9355   22.5429 C   0  0  0  0  0  0
  -19.5703  -26.6372   21.5227 C   0  0  0  0  0  0
  -18.1882  -26.7918   22.1640 C   0  0  0  0  0  0
  -19.1491  -28.8807   23.2941 C   0  0  0  0  0  0
  -18.9428  -30.1427   23.8938 C   0  0  0  0  0  0
  -17.6429  -30.6576   24.0573 C   0  0  0  0  0  0
  -25.9035  -34.9470   23.5121 C   0  0  0  0  0  0
  -16.5318  -29.9068   23.6356 C   0  0  0  0  0  0
  -16.7234  -28.6495   23.0362 C   0  0  0  0  0  0
  -26.4455  -31.6598   25.0678 C   0  0  0  0  0  0
  -25.3675  -31.3694   26.1377 C   0  0  0  0  0  0
  -27.0295  -30.3032   24.6078 C   0  0  0  0  0  0
  -27.6057  -32.4310   25.7410 C   0  0  0  0  0  0
  -27.5608  -37.1790   24.8455 C   0  0  0  0  0  0
  -21.4122  -29.2965   22.3779 N   0  0  0  0  0  0
  -26.4318  -37.3800   23.9405 N   0  0  0  0  0  0
  -24.6700  -31.0682   22.0974 N   0  0  0  0  0  0
  -23.4172  -28.8185   23.3114 O   0  0  0  0  0  0
  -28.4096  -26.6464   20.0723 O   0  0  0  0  0  0
  -26.5579  -34.8940   22.4676 O   0  0  0  0  0  0
  -23.5317  -32.1385   23.7416 O   0  0  0  0  0  0
  -28.6872  -17.5175   20.6791 C   0  0  0  0  0  0
  -28.6103  -18.9187   20.5044 C   0  0  0  0  0  0
  -31.0781  -17.6683   21.0160 C   0  0  0  0  0  0
  -30.9993  -19.0807   20.8829 C   0  0  0  0  0  0
  -29.9172  -16.8686   20.9193 C   0  0  0  0  0  0
  -29.7637  -19.7363   20.6098 C   0  0  0  0  0  0
  -29.4501  -26.5329   22.2263 C   0  0  0  0  0  0
  -33.9619  -24.3826   19.8094 C   0  0  0  0  0  0
  -32.2401  -19.9087   21.1681 C   0  0  0  0  0  0
  -32.7455  -20.7532   19.9825 C   0  0  0  0  0  0
  -28.5682  -23.3381   20.0650 C   0  0  0  0  0  0
  -29.3756  -24.4304   20.8226 C   0  0  0  0  0  0
  -33.2189  -22.1293   20.4799 C   0  0  0  0  0  0
  -28.5536  -21.8900   20.6606 C   0  0  0  0  0  0
  -28.6233  -25.7575   21.1889 C   0  0  2  0  0  0
  -29.9073  -15.4543   21.1472 N   0  0  0  0  0  0
  -33.7564  -22.9798   19.4013 N   0  3  0  0  0  0
  -29.7598  -21.1268   20.4512 O   0  0  0  0  0  0
  -31.4744  -12.4462   19.1038 H   0  0  0  0  0  0
  -30.3595  -11.3025   19.7955 H   0  0  0  0  0  0
  -29.7342  -11.7891   17.4177 H   0  0  0  0  0  0
  -29.6617  -13.4970   17.7571 H   0  0  0  0  0  0
  -27.8211  -11.3152   18.7940 H   0  0  0  0  0  0
  -27.3668  -12.6615   17.7831 H   0  0  0  0  0  0
  -27.7170  -14.2522   19.5961 H   0  0  0  0  0  0
  -28.6947  -11.9053   21.2947 H   0  0  0  0  0  0
  -28.4661  -13.5138   21.8932 H   0  0  0  0  0  0
  -25.2755   -9.5725   22.4709 H   0  0  0  0  0  0
  -23.9998   -7.4678   22.7466 H   0  0  0  0  0  0
  -21.0810   -8.8785   19.8961 H   0  0  0  0  0  0
  -22.3658  -10.9677   19.6131 H   0  0  0  0  0  0
  -21.2025   -7.6164   23.9756 H   0  0  0  0  0  0
  -21.1454   -6.0511   25.9086 H   0  0  0  0  0  0
  -22.0607   -2.7634   23.2820 H   0  0  0  0  0  0
  -22.4111  -11.9864   22.4701 H   0  0  0  0  0  0
  -21.1206  -13.1381   22.2692 H   0  0  0  0  0  0
  -24.6598  -15.8322   20.4976 H   0  0  0  0  0  0
  -26.2710  -15.6149   20.0327 H   0  0  0  0  0  0
  -26.7078  -32.5515   23.1111 H   0  0  0  0  0  0
  -25.0097  -33.9813   25.0500 H   0  0  0  0  0  0
  -22.6939  -31.2900   21.4046 H   0  0  0  0  0  0
  -23.3799  -35.9565   23.3281 H   0  0  0  0  0  0
  -24.3613  -36.8899   22.2054 H   0  0  0  0  0  0
  -23.7190  -37.6466   23.6646 H   0  0  0  0  0  0
  -26.0580  -31.5901   20.6021 H   0  0  0  0  0  0
  -26.8227  -30.8739   21.9911 H   0  0  0  0  0  0
  -28.1164  -29.1140   21.1683 H   0  0  0  0  0  0
  -26.1099  -25.9515   19.0299 H   0  0  0  0  0  0
  -24.0099  -27.2632   19.0455 H   0  0  0  0  0  0
  -23.7119  -30.5568   19.3989 H   0  0  0  0  0  0
  -22.7508  -29.1905   19.8886 H   0  0  0  0  0  0
  -25.1339  -36.1976   25.0819 H   0  0  0  0  0  0
  -20.9906  -28.3114   24.1505 H   0  0  0  0  0  0
  -20.5638  -26.2205   23.3596 H   0  0  0  0  0  0
  -21.6600  -26.7411   22.1209 H   0  0  0  0  0  0
  -19.6841  -25.6298   21.1199 H   0  0  0  0  0  0
  -19.6624  -27.3260   20.6822 H   0  0  0  0  0  0
  -17.4155  -26.6674   21.4026 H   0  0  0  0  0  0
  -18.0277  -26.0059   22.9026 H   0  0  0  0  0  0
  -19.7892  -30.7246   24.2329 H   0  0  0  0  0  0
  -17.4968  -31.6286   24.5109 H   0  0  0  0  0  0
  -15.5311  -30.2956   23.7712 H   0  0  0  0  0  0
  -15.8647  -28.0831   22.7046 H   0  0  0  0  0  0
  -24.5881  -30.7040   25.7641 H   0  0  0  0  0  0
  -24.8839  -32.2843   26.4789 H   0  0  0  0  0  0
  -25.7972  -30.8836   27.0143 H   0  0  0  0  0  0
  -26.2838  -29.6776   24.1141 H   0  0  0  0  0  0
  -27.4065  -29.7300   25.4562 H   0  0  0  0  0  0
  -27.8684  -30.4366   23.9247 H   0  0  0  0  0  0
  -27.2724  -33.3636   26.1978 H   0  0  0  0  0  0
  -28.3846  -32.6793   25.0186 H   0  0  0  0  0  0
  -28.0726  -31.8400   26.5301 H   0  0  0  0  0  0
  -28.2610  -38.0116   24.7626 H   0  0  0  0  0  0
  -28.1141  -36.2662   24.6179 H   0  0  0  0  0  0
  -27.2318  -37.1312   25.8851 H   0  0  0  0  0  0
  -20.9283  -29.8633   21.6962 H   0  0  0  0  0  0
  -26.0206  -38.2865   24.1441 H   0  0  0  0  0  0
  -27.7753  -16.9398   20.6198 H   0  0  0  0  0  0
  -27.6364  -19.3295   20.2867 H   0  0  0  0  0  0
  -32.0267  -17.2050   21.2481 H   0  0  0  0  0  0
  -29.6477  -25.9210   23.1070 H   0  0  0  0  0  0
  -28.9376  -27.4298   22.5719 H   0  0  0  0  0  0
  -30.4138  -26.8350   21.8121 H   0  0  0  0  0  0
  -34.3745  -24.9608   18.9832 H   0  0  0  0  0  0
  -34.6552  -24.4485   20.6485 H   0  0  0  0  0  0
  -33.0209  -24.8508   20.1013 H   0  0  0  0  0  0
  -33.0490  -19.2796   21.5454 H   0  0  0  0  0  0
  -31.9726  -20.5567   22.0049 H   0  0  0  0  0  0
  -31.9539  -20.9030   19.2480 H   0  0  0  0  0  0
  -33.5389  -20.2195   19.4576 H   0  0  0  0  0  0
  -28.8942  -23.2934   19.0253 H   0  0  0  0  0  0
  -27.5344  -23.6777   20.0084 H   0  0  0  0  0  0
  -30.2797  -24.6726   20.2621 H   0  0  0  0  0  0
  -29.7357  -23.9772   21.7486 H   0  0  0  0  0  0
  -33.9781  -22.0057   21.2532 H   0  0  0  0  0  0
  -32.3756  -22.6406   20.9520 H   0  0  0  0  0  0
  -27.6995  -21.3979   20.2007 H   0  0  0  0  0  0
  -28.3469  -21.9280   21.7302 H   0  0  0  0  0  0
  -27.6653  -25.4915   21.6411 H   0  0  0  0  0  0
  -29.0373  -15.0877   21.5020 H   0  0  0  0  0  0
  -34.6417  -22.6088   19.0950 H   0  0  0  0  0  0
  -33.1255  -22.9652   18.6158 H   0  0  0  0  0  0
  1 25  1  0  0  0
  1 30  2  0  0  0
  1 86  1  0  0  0
  2  3  1  0  0  0
  2 25  1  0  0  0
  2 89  1  0  0  0
  2 90  1  0  0  0
  3  4  1  0  0  0
  3 91  1  0  0  0
  3 92  1  0  0  0
  4  5  1  0  0  0
  4 93  1  0  0  0
  4 94  1  0  0  0
  5  6  1  0  0  0
  5 26  1  0  0  0
  5 95  1  0  0  0
  6 25  1  0  0  0
  6 96  1  0  0  0
  6 97  1  0  0  0
  7  8  2  0  0  0
  7 26  1  0  0  0
  7 29  1  0  0  0
  8  9  1  0  0  0
  8 22  1  0  0  0
  9 10  1  0  0  0
  9 27  2  0  0  0
 10 11  2  0  0  0
 10 15  1  0  0  0
 11 12  1  0  0  0
 11 98  1  0  0  0
 12 13  2  0  0  0
 12 99  1  0  0  0
 13 14  1  0  0  0
 13 31  1  0  0  0
 14 15  2  0  0  0
 14100  1  0  0  0
 15101  1  0  0  0
 16 17  2  0  0  0
 16 21  1  0  0  0
 16 31  1  0  0  0
 17 18  1  0  0  0
 17102  1  0  0  0
 18 19  2  0  0  0
 18103  1  0  0  0
 19 20  1  0  0  0
 19 24  1  0  0  0
 20 21  2  0  0  0
 20104  1  0  0  0
 21 23  1  0  0  0
 22 28  1  0  0  0
 22 32  2  0  0  0
 26 27  1  0  0  0
 28105  1  0  0  0
 28106  1  0  0  0
 29107  1  0  0  0
 29108  1  0  0  0
 33 34  1  0  0  0
 33 66  1  0  0  0
 33 70  2  0  0  0
 34 36  1  0  0  0
 34 59  1  0  0  0
 34109  1  0  0  0
 35 44  2  0  0  0
 35 45  1  0  0  0
 35 68  1  0  0  0
 36 56  1  0  0  0
 36110  1  0  0  0
 37 39  1  0  0  0
 37 47  1  0  0  0
 37 66  1  0  0  0
 37111  1  0  0  0
 38 43  2  0  0  0
 38 46  1  0  0  0
 38 47  1  0  0  0
 39 64  1  0  0  0
 39 67  2  0  0  0
 40 52  1  0  0  0
 40 53  2  0  0  0
 40 58  1  0  0  0
 41112  1  0  0  0
 41113  1  0  0  0
 41114  1  0  0  0
 41 48  1  0  0  0
 42 43  1  0  0  0
 42 66  1  0  0  0
 42115  1  0  0  0
 42116  1  0  0  0
 43 44  1  0  0  0
 44117  1  0  0  0
 45 46  2  0  0  0
 45118  1  0  0  0
 46119  1  0  0  0
 47120  1  0  0  0
 47121  1  0  0  0
 48 56  1  0  0  0
 48 65  1  0  0  0
 48122  1  0  0  0
 49 50  1  0  0  0
 49 53  1  0  0  0
 49 64  1  0  0  0
 49123  1  0  0  0
 50 51  1  0  0  0
 50124  1  0  0  0
 50125  1  0  0  0
 51 52  1  0  0  0
 51126  1  0  0  0
 51127  1  0  0  0
 52128  1  0  0  0
 52129  1  0  0  0
 53 54  1  0  0  0
 54 55  2  0  0  0
 54130  1  0  0  0
 55 57  1  0  0  0
 55131  1  0  0  0
 56 69  2  0  0  0
 57 58  2  0  0  0
 57132  1  0  0  0
 58133  1  0  0  0
 59 60  1  0  0  0
 59 61  1  0  0  0
 59 62  1  0  0  0
 60134  1  0  0  0
 60135  1  0  0  0
 60136  1  0  0  0
 61137  1  0  0  0
 61138  1  0  0  0
 61139  1  0  0  0
 62140  1  0  0  0
 62141  1  0  0  0
 62142  1  0  0  0
 63 65  1  0  0  0
 63143  1  0  0  0
 63144  1  0  0  0
 63145  1  0  0  0
 64146  1  0  0  0
 65147  1  0  0  0
 68 85  1  0  0  0
 71 72  2  0  0  0
 71 75  1  0  0  0
 71148  1  0  0  0
 72 76  1  0  0  0
 72149  1  0  0  0
 73 74  1  0  0  0
 73 75  2  0  0  0
 73150  1  0  0  0
 74 76  2  0  0  0
 74 79  1  0  0  0
 75 86  1  0  0  0
 76 88  1  0  0  0
 77151  1  0  0  0
 77152  1  0  0  0
 77153  1  0  0  0
 77 85  1  0  0  0
 78 87  1  0  0  0
 78154  1  0  0  0
 78155  1  0  0  0
 78156  1  0  0  0
 79 80  1  0  0  0
 79157  1  0  0  0
 79158  1  0  0  0
 80 83  1  0  0  0
 80159  1  0  0  0
 80160  1  0  0  0
 81 82  1  0  0  0
 81 84  1  0  0  0
 81161  1  0  0  0
 81162  1  0  0  0
 82 85  1  0  0  0
 82163  1  0  0  0
 82164  1  0  0  0
 83 87  1  0  0  0
 83165  1  0  0  0
 83166  1  0  0  0
 84 88  1  0  0  0
 84167  1  0  0  0
 84168  1  0  0  0
 85169  1  0  0  0
 86170  1  0  0  0
 87171  1  0  0  0
 87172  1  0  0  0
M  CHG  1  87   1
M  ISO  4   1 100  68 101  85 101  86 100
M  END
> <chiral flag>
0

> <version>
0

> <s_m_source_file>
/data/baiqing/PycharmProjects/Reinvent-master-3.2/result/LINK_invent/BTK/process_docking_weight1_custom_sum_contain_oxygen_bond_distance_aromatic_linkinvent_7_9_3/rearranged_h_0104.sdf

> <i_m_source_file_index>
28

> <r_mmod_Potential_Energy-OPLS-2005>
-192.971099853516

> <r_mmod_Stretch_Energy-OPLS-2005>
46.701358795166

> <r_mmod_Bend_Energy-OPLS-2005>
118.965110778809

> <r_mmod_Torsional_Energy-OPLS-2005>
275.680419921875

> <r_mmod_Improper_Torsional_Energy-OPLS-2005>
5.05008602142334

> <r_mmod_Van_der_Waal_Energy-OPLS-2005>
140.586395263672

> <r_mmod_Electrostatic_Energy-OPLS-2005>
-340.177154541016

> <r_mmod_Solvation_Energy-OPLS-2005>
-454.229705810547

> <b_mmod_Minimization_Converged-OPLS-2005>
0

> <r_mmod_RMS_Derivative-OPLS-2005>
3.72097015380859

$$$$
28
                    3D
 Structure written by MMmdl.
160168  0  0  1  0            999 V2000
  -30.3995  -15.3092   20.3863 C   0  0  0  0  0  0
  -30.4319  -12.8472   19.5311 C   0  0  0  0  0  0
  -29.5339  -12.5940   18.2922 C   0  0  0  0  0  0
  -28.0826  -12.3029   18.7131 C   0  0  0  0  0  0
  -27.5967  -13.2722   19.8184 C   0  0  2  0  0  0
  -28.6262  -13.4626   20.9538 C   0  0  0  0  0  0
  -25.2129  -13.7850   20.5568 C   0  0  0  0  0  0
  -24.1573  -13.0122   20.9306 C   0  0  0  0  0  0
  -24.6354  -11.6708   20.8812 C   0  0  0  0  0  0
  -23.9054  -10.4121   21.0437 C   0  0  0  0  0  0
  -24.3611   -9.4073   21.9227 C   0  0  0  0  0  0
  -23.6267   -8.2128   22.0780 C   0  0  0  0  0  0
  -22.4250   -8.0202   21.3551 C   0  0  0  0  0  0
  -21.9888   -9.0170   20.4648 C   0  0  0  0  0  0
  -22.7233  -10.2029   20.3066 C   0  0  0  0  0  0
  -21.6814   -6.0697   22.5278 C   0  0  0  0  0  0
  -21.3991   -6.5622   23.8208 C   0  0  0  0  0  0
  -21.3651   -5.6789   24.9182 C   0  0  0  0  0  0
  -21.6038   -4.3048   24.7231 C   0  0  0  0  0  0
  -21.8824   -3.8130   23.4355 C   0  0  0  0  0  0
  -21.9186   -4.6936   22.3408 C   0  0  0  0  0  0
  -22.7617  -13.4972   21.1942 C   0  0  0  0  0  0
  -22.1656   -4.2128   21.0983 F   0  0  0  0  0  0
  -21.5634   -3.4533   25.7746 F   0  0  0  0  0  0
  -29.8524  -13.9912   20.3319 N   0  0  0  0  0  0
  -26.2708  -12.9312   20.3180 N   0  0  0  0  0  0
  -25.9322  -11.6428   20.5799 N   0  0  0  0  0  0
  -22.0272  -12.8009   22.0540 N   0  0  0  0  0  0
  -25.3277  -15.1394   20.3606 N   0  0  0  0  0  0
  -31.6246  -15.3139   20.1895 O   0  0  0  0  0  0
  -21.6594   -6.8822   21.4233 O   0  0  0  0  0  0
  -22.3340  -14.5289   20.6775 O   0  0  0  0  0  0
  -24.6621  -31.8236   23.1716 C   0  0  0  0  0  0
  -25.9318  -32.4591   23.8192 C   0  0  1  0  0  0
  -27.2113  -26.9251   20.1976 C   0  0  0  0  0  0
  -25.6005  -33.8415   24.2119 N   0  0  0  0  0  0
  -23.4792  -30.4362   21.5158 C   0  0  2  0  0  0
  -24.9333  -28.8244   20.1094 C   0  0  0  0  0  0
  -22.7664  -29.4460   22.4734 C   0  0  0  0  0  0
  -18.0308  -28.1378   22.8521 C   0  0  0  0  0  0
  -24.1494  -36.7215   23.2644 C   0  0  0  0  0  0
  -26.0481  -30.6323   21.4015 C   0  0  0  0  0  0
  -26.1161  -29.2222   20.7456 C   0  0  0  0  0  0
  -27.2526  -28.2940   20.7613 C   0  0  0  0  0  0
  -25.9990  -26.6776   19.5147 C   0  0  0  0  0  0
  -24.9005  -27.5730   19.4727 C   0  0  0  0  0  0
  -23.7222  -29.7560   20.1403 C   0  0  0  0  0  0
  -25.4144  -36.2988   24.0299 C   0  0  1  0  0  0
  -20.5943  -28.3744   23.1104 C   0  0  2  0  0  0
  -20.6810  -26.9474   22.5210 C   0  0  0  0  0  0
  -19.5651  -26.6336   21.5190 C   0  0  0  0  0  0
  -18.1933  -26.7841   22.1823 C   0  0  0  0  0  0
  -19.1593  -28.8888   23.2786 C   0  0  0  0  0  0
  -18.9522  -30.1475   23.8834 C   0  0  0  0  0  0
  -17.6531  -30.6610   24.0547 C   0  0  0  0  0  0
  -25.9108  -34.9354   23.5027 C   0  0  0  0  0  0
  -16.5407  -29.9111   23.6341 C   0  0  0  0  0  0
  -16.7296  -28.6489   23.0421 C   0  0  0  0  0  0
  -26.4591  -31.6521   25.0709 C   0  0  0  0  0  0
  -25.3723  -31.3752   26.1366 C   0  0  0  0  0  0
  -27.0496  -30.2884   24.6442 C   0  0  0  0  0  0
  -27.6098  -32.4327   25.7529 C   0  0  0  0  0  0
  -27.5586  -37.1778   24.8474 C   0  0  0  0  0  0
  -21.4324  -29.3090   22.3514 N   0  0  0  0  0  0
  -26.4301  -37.3712   23.9400 N   0  0  0  0  0  0
  -24.7517  -30.9923   22.0836 N   0  0  0  0  0  0
  -23.4227  -28.8010   23.2944 O   0  0  0  0  0  0
  -28.2074  -25.8169   20.2872 O   0  0  0  0  0  0
  -26.5697  -34.8884   22.4602 O   0  0  0  0  0  0
  -23.5678  -32.1213   23.6786 O   0  0  0  0  0  0
  -26.8996  -21.1526   19.9084 C   0  0  0  0  0  0
  -26.2970  -19.9429   19.8313 C   0  0  0  0  0  0
  -27.2475  -18.9906   20.2904 C   0  0  0  0  0  0
  -28.5262  -19.5094   20.3371 C   0  0  0  0  0  0
  -26.8706  -17.5856   20.6025 C   0  0  0  0  0  0
  -24.9322  -19.1553   17.8871 C   0  0  0  0  0  0
  -23.8954  -20.8311   19.4735 C   0  0  0  0  0  0
  -29.7557  -18.2618   20.4738 C   0  0  0  0  0  0
  -28.8284  -22.6312   20.3951 C   0  0  0  0  0  0
  -27.9192  -24.1943   20.1662 C   0  0  0  0  0  0
  -24.8765  -19.6519   19.3409 C   0  0  0  0  0  0
  -28.2423  -21.0737   20.2570 N   0  0  0  0  0  0
  -29.6073  -16.5712   20.4688 N   0  0  0  0  0  0
  -31.4455  -13.0741   19.1939 H   0  0  0  0  0  0
  -30.5188  -11.9483   20.1424 H   0  0  0  0  0  0
  -29.9279  -11.7669   17.6993 H   0  0  0  0  0  0
  -29.5491  -13.4745   17.6488 H   0  0  0  0  0  0
  -28.0454  -11.2792   19.0867 H   0  0  0  0  0  0
  -27.4159  -12.3419   17.8508 H   0  0  0  0  0  0
  -27.4983  -14.2368   19.3183 H   0  0  0  0  0  0
  -28.8078  -12.5294   21.4906 H   0  0  0  0  0  0
  -28.2486  -14.1768   21.6876 H   0  0  0  0  0  0
  -25.2750   -9.5552   22.4817 H   0  0  0  0  0  0
  -23.9950   -7.4514   22.7510 H   0  0  0  0  0  0
  -21.0810   -8.8700   19.8952 H   0  0  0  0  0  0
  -22.3711  -10.9588   19.6180 H   0  0  0  0  0  0
  -21.1974   -7.6134   23.9700 H   0  0  0  0  0  0
  -21.1473   -6.0528   25.9085 H   0  0  0  0  0  0
  -22.0619   -2.7589   23.2862 H   0  0  0  0  0  0
  -22.3884  -11.9658   22.4904 H   0  0  0  0  0  0
  -21.0914  -13.1065   22.2773 H   0  0  0  0  0  0
  -24.5188  -15.7449   20.4406 H   0  0  0  0  0  0
  -26.1231  -15.5839   19.9290 H   0  0  0  0  0  0
  -26.7375  -32.5119   23.0894 H   0  0  0  0  0  0
  -25.0147  -33.9491   25.0274 H   0  0  0  0  0  0
  -22.7929  -31.2666   21.3424 H   0  0  0  0  0  0
  -23.3759  -35.9531   23.3284 H   0  0  0  0  0  0
  -24.3583  -36.8882   22.2065 H   0  0  0  0  0  0
  -23.7243  -37.6407   23.6709 H   0  0  0  0  0  0
  -26.2221  -31.3728   20.6206 H   0  0  0  0  0  0
  -26.9078  -30.6962   22.0574 H   0  0  0  0  0  0
  -28.1497  -28.5944   21.2850 H   0  0  0  0  0  0
  -25.8588  -25.7189   19.0355 H   0  0  0  0  0  0
  -24.0016  -27.2614   18.9619 H   0  0  0  0  0  0
  -23.8887  -30.5262   19.3838 H   0  0  0  0  0  0
  -22.8303  -29.2149   19.8172 H   0  0  0  0  0  0
  -25.1340  -36.1803   25.0789 H   0  0  0  0  0  0
  -21.0032  -28.3251   24.1208 H   0  0  0  0  0  0
  -20.5857  -26.2366   23.3411 H   0  0  0  0  0  0
  -21.6625  -26.7523   22.0845 H   0  0  0  0  0  0
  -19.6706  -25.6190   21.1356 H   0  0  0  0  0  0
  -19.6400  -27.3050   20.6625 H   0  0  0  0  0  0
  -17.4034  -26.6329   21.4467 H   0  0  0  0  0  0
  -18.0543  -26.0069   22.9367 H   0  0  0  0  0  0
  -19.7988  -30.7280   24.2245 H   0  0  0  0  0  0
  -17.5103  -31.6275   24.5205 H   0  0  0  0  0  0
  -15.5422  -30.3035   23.7687 H   0  0  0  0  0  0
  -15.8680  -28.0769   22.7263 H   0  0  0  0  0  0
  -24.5920  -30.7095   25.7653 H   0  0  0  0  0  0
  -24.8901  -32.2956   26.4686 H   0  0  0  0  0  0
  -25.7949  -30.8983   27.0218 H   0  0  0  0  0  0
  -26.3166  -29.6543   24.1441 H   0  0  0  0  0  0
  -27.4024  -29.7275   25.5109 H   0  0  0  0  0  0
  -27.9110  -30.4079   23.9858 H   0  0  0  0  0  0
  -27.2682  -33.3669   26.2005 H   0  0  0  0  0  0
  -28.3982  -32.6817   25.0408 H   0  0  0  0  0  0
  -28.0692  -31.8518   26.5545 H   0  0  0  0  0  0
  -28.2595  -38.0089   24.7517 H   0  0  0  0  0  0
  -28.1088  -36.2613   24.6300 H   0  0  0  0  0  0
  -27.2294  -37.1427   25.8877 H   0  0  0  0  0  0
  -20.9529  -29.8905   21.6787 H   0  0  0  0  0  0
  -26.0143  -38.2764   24.1387 H   0  0  0  0  0  0
  -26.4380  -22.1087   19.7105 H   0  0  0  0  0  0
  -25.8156  -17.5285   20.8611 H   0  0  0  0  0  0
  -27.3904  -17.2222   21.4900 H   0  0  0  0  0  0
  -27.0829  -16.9535   19.7398 H   0  0  0  0  0  0
  -25.5669  -18.2719   17.8005 H   0  0  0  0  0  0
  -25.3447  -19.9174   17.2246 H   0  0  0  0  0  0
  -23.9434  -18.8833   17.5149 H   0  0  0  0  0  0
  -23.7719  -21.1336   20.5131 H   0  0  0  0  0  0
  -22.9061  -20.5523   19.1070 H   0  0  0  0  0  0
  -24.2164  -21.7004   18.9024 H   0  0  0  0  0  0
  -30.2903  -18.4739   21.3975 H   0  0  0  0  0  0
  -30.4855  -18.4708   19.6926 H   0  0  0  0  0  0
  -29.2312  -22.6773   21.4059 H   0  0  0  0  0  0
  -29.7079  -22.6686   19.7532 H   0  0  0  0  0  0
  -27.0402  -24.0801   20.8015 H   0  0  0  0  0  0
  -27.5310  -24.1117   19.1521 H   0  0  0  0  0  0
  -24.4514  -18.8481   19.9417 H   0  0  0  0  0  0
  -28.6342  -16.3250   20.5496 H   0  0  0  0  0  0
  1 25  1  0  0  0
  1 30  2  0  0  0
  1 83  1  0  0  0
  2  3  1  0  0  0
  2 25  1  0  0  0
  2 84  1  0  0  0
  2 85  1  0  0  0
  3  4  1  0  0  0
  3 86  1  0  0  0
  3 87  1  0  0  0
  4  5  1  0  0  0
  4 88  1  0  0  0
  4 89  1  0  0  0
  5  6  1  0  0  0
  5 26  1  0  0  0
  5 90  1  0  0  0
  6 25  1  0  0  0
  6 91  1  0  0  0
  6 92  1  0  0  0
  7  8  2  0  0  0
  7 26  1  0  0  0
  7 29  1  0  0  0
  8  9  1  0  0  0
  8 22  1  0  0  0
  9 10  1  0  0  0
  9 27  2  0  0  0
 10 11  2  0  0  0
 10 15  1  0  0  0
 11 12  1  0  0  0
 11 93  1  0  0  0
 12 13  2  0  0  0
 12 94  1  0  0  0
 13 14  1  0  0  0
 13 31  1  0  0  0
 14 15  2  0  0  0
 14 95  1  0  0  0
 15 96  1  0  0  0
 16 17  2  0  0  0
 16 21  1  0  0  0
 16 31  1  0  0  0
 17 18  1  0  0  0
 17 97  1  0  0  0
 18 19  2  0  0  0
 18 98  1  0  0  0
 19 20  1  0  0  0
 19 24  1  0  0  0
 20 21  2  0  0  0
 20 99  1  0  0  0
 21 23  1  0  0  0
 22 28  1  0  0  0
 22 32  2  0  0  0
 26 27  1  0  0  0
 28100  1  0  0  0
 28101  1  0  0  0
 29102  1  0  0  0
 29103  1  0  0  0
 33 34  1  0  0  0
 33 66  1  0  0  0
 33 70  2  0  0  0
 34 36  1  0  0  0
 34 59  1  0  0  0
 34104  1  0  0  0
 35 44  2  0  0  0
 35 45  1  0  0  0
 35 68  1  0  0  0
 36 56  1  0  0  0
 36105  1  0  0  0
 37 39  1  0  0  0
 37 47  1  0  0  0
 37 66  1  0  0  0
 37106  1  0  0  0
 38 43  2  0  0  0
 38 46  1  0  0  0
 38 47  1  0  0  0
 39 64  1  0  0  0
 39 67  2  0  0  0
 40 52  1  0  0  0
 40 53  2  0  0  0
 40 58  1  0  0  0
 41107  1  0  0  0
 41108  1  0  0  0
 41109  1  0  0  0
 41 48  1  0  0  0
 42 43  1  0  0  0
 42 66  1  0  0  0
 42110  1  0  0  0
 42111  1  0  0  0
 43 44  1  0  0  0
 44112  1  0  0  0
 45 46  2  0  0  0
 45113  1  0  0  0
 46114  1  0  0  0
 47115  1  0  0  0
 47116  1  0  0  0
 48 56  1  0  0  0
 48 65  1  0  0  0
 48117  1  0  0  0
 49 50  1  0  0  0
 49 53  1  0  0  0
 49 64  1  0  0  0
 49118  1  0  0  0
 50 51  1  0  0  0
 50119  1  0  0  0
 50120  1  0  0  0
 51 52  1  0  0  0
 51121  1  0  0  0
 51122  1  0  0  0
 52123  1  0  0  0
 52124  1  0  0  0
 53 54  1  0  0  0
 54 55  2  0  0  0
 54125  1  0  0  0
 55 57  1  0  0  0
 55126  1  0  0  0
 56 69  2  0  0  0
 57 58  2  0  0  0
 57127  1  0  0  0
 58128  1  0  0  0
 59 60  1  0  0  0
 59 61  1  0  0  0
 59 62  1  0  0  0
 60129  1  0  0  0
 60130  1  0  0  0
 60131  1  0  0  0
 61132  1  0  0  0
 61133  1  0  0  0
 61134  1  0  0  0
 62135  1  0  0  0
 62136  1  0  0  0
 62137  1  0  0  0
 63 65  1  0  0  0
 63138  1  0  0  0
 63139  1  0  0  0
 63140  1  0  0  0
 64141  1  0  0  0
 65142  1  0  0  0
 68 80  1  0  0  0
 71 72  2  0  0  0
 71 82  1  0  0  0
 71143  1  0  0  0
 72 73  1  0  0  0
 72 81  1  0  0  0
 73 74  2  0  0  0
 73 75  1  0  0  0
 74 78  1  0  0  0
 74 82  1  0  0  0
 75144  1  0  0  0
 75145  1  0  0  0
 75146  1  0  0  0
 76147  1  0  0  0
 76148  1  0  0  0
 76149  1  0  0  0
 76 81  1  0  0  0
 77 81  1  0  0  0
 77150  1  0  0  0
 77151  1  0  0  0
 77152  1  0  0  0
 78 83  1  0  0  0
 78153  1  0  0  0
 78154  1  0  0  0
 79 80  1  0  0  0
 79 82  1  0  0  0
 79155  1  0  0  0
 79156  1  0  0  0
 80157  1  0  0  0
 80158  1  0  0  0
 81159  1  0  0  0
 83160  1  0  0  0
M  ISO  4   1 100  68 101  80 101  83 100
M  END
> <chiral flag>
0

> <version>
0

> <s_m_source_file>
/data/baiqing/PycharmProjects/Reinvent-master-3.2/result/LINK_invent/BTK/process_docking_weight1_custom_sum_contain_oxygen_bond_distance_aromatic_linkinvent_7_9_3/rearranged_h_0104.sdf

> <i_m_source_file_index>
29

> <r_mmod_Potential_Energy-OPLS-2005>
1392.72692871094

> <r_mmod_Stretch_Energy-OPLS-2005>
665.695678710938

> <r_mmod_Bend_Energy-OPLS-2005>
507.007293701172

> <r_mmod_Torsional_Energy-OPLS-2005>
235.574935913086

> <r_mmod_Improper_Torsional_Energy-OPLS-2005>
4.46203327178955

> <r_mmod_Van_der_Waal_Energy-OPLS-2005>
126.207290649414

> <r_mmod_Electrostatic_Energy-OPLS-2005>
-427.532409667969

> <r_mmod_Solvation_Energy-OPLS-2005>
-212.877838134766

> <b_mmod_Minimization_Converged-OPLS-2005>
0

> <r_mmod_RMS_Derivative-OPLS-2005>
4.31009960174561

$$$$
29
                    3D
 Structure written by MMmdl.
173181  0  0  1  0            999 V2000
  -30.6545  -14.5485   20.5340 C   0  0  0  0  0  0
  -30.4277  -12.3384   19.4295 C   0  0  0  0  0  0
  -29.5045  -12.5140   18.2034 C   0  0  0  0  0  0
  -28.0240  -12.3575   18.6156 C   0  0  0  0  0  0
  -27.6566  -13.2078   19.8637 C   0  0  2  0  0  0
  -28.7022  -13.0151   20.9881 C   0  0  0  0  0  0
  -25.2572  -13.8137   20.5688 C   0  0  0  0  0  0
  -24.1823  -13.0423   20.9230 C   0  0  0  0  0  0
  -24.6377  -11.6894   20.8768 C   0  0  0  0  0  0
  -23.9035  -10.4290   21.0428 C   0  0  0  0  0  0
  -24.3604   -9.4199   21.9190 C   0  0  0  0  0  0
  -23.6292   -8.2216   22.0726 C   0  0  0  0  0  0
  -22.4252   -8.0288   21.3533 C   0  0  0  0  0  0
  -21.9903   -9.0252   20.4614 C   0  0  0  0  0  0
  -22.7231  -10.2133   20.3038 C   0  0  0  0  0  0
  -21.6831   -6.0768   22.5290 C   0  0  0  0  0  0
  -21.4017   -6.5642   23.8244 C   0  0  0  0  0  0
  -21.3666   -5.6777   24.9197 C   0  0  0  0  0  0
  -21.6022   -4.3034   24.7219 C   0  0  0  0  0  0
  -21.8809   -3.8153   23.4333 C   0  0  0  0  0  0
  -21.9170   -4.6995   22.3409 C   0  0  0  0  0  0
  -22.7834  -13.5225   21.1880 C   0  0  0  0  0  0
  -22.1640   -4.2196   21.0976 F   0  0  0  0  0  0
  -21.5630   -3.4501   25.7723 F   0  0  0  0  0  0
  -30.0234  -13.3432   20.4258 N   0  0  0  0  0  0
  -26.2997  -12.9307   20.3299 N   0  0  0  0  0  0
  -25.9294  -11.6477   20.5724 N   0  0  0  0  0  0
  -22.0433  -12.8257   22.0435 N   0  0  0  0  0  0
  -25.4283  -15.1873   20.4147 N   0  0  0  0  0  0
  -31.8237  -14.7084   20.1604 O   0  0  0  0  0  0
  -21.6600   -6.8902   21.4249 O   0  0  0  0  0  0
  -22.3546  -14.5544   20.6727 O   0  0  0  0  0  0
  -24.6208  -31.8624   23.2041 C   0  0  0  0  0  0
  -25.9083  -32.4798   23.8347 C   0  0  1  0  0  0
  -27.2244  -27.3817   20.0975 C   0  0  0  0  0  0
  -25.5924  -33.8592   24.2293 N   0  0  0  0  0  0
  -23.4086  -30.4890   21.5454 C   0  0  2  0  0  0
  -24.8525  -28.9418   20.1189 C   0  0  0  0  0  0
  -22.7444  -29.4660   22.4941 C   0  0  0  0  0  0
  -18.0274  -28.1401   22.8471 C   0  0  0  0  0  0
  -24.1496  -36.7285   23.2639 C   0  0  0  0  0  0
  -25.9450  -30.8144   21.3622 C   0  0  0  0  0  0
  -26.0184  -29.4445   20.7063 C   0  0  0  0  0  0
  -27.2110  -28.6765   20.6821 C   0  0  0  0  0  0
  -26.0295  -26.8984   19.5185 C   0  0  0  0  0  0
  -24.8542  -27.6713   19.5227 C   0  0  0  0  0  0
  -23.6201  -29.8183   20.1621 C   0  0  0  0  0  0
  -25.4123  -36.3105   24.0348 C   0  0  1  0  0  0
  -20.5876  -28.3707   23.1287 C   0  0  2  0  0  0
  -20.6790  -26.9432   22.5418 C   0  0  0  0  0  0
  -19.5754  -26.6401   21.5223 C   0  0  0  0  0  0
  -18.1926  -26.7936   22.1625 C   0  0  0  0  0  0
  -19.1528  -28.8861   23.2871 C   0  0  0  0  0  0
  -18.9469  -30.1471   23.8875 C   0  0  0  0  0  0
  -17.6476  -30.6587   24.0577 C   0  0  0  0  0  0
  -25.9044  -34.9463   23.5105 C   0  0  0  0  0  0
  -16.5362  -29.9103   23.6327 C   0  0  0  0  0  0
  -16.7276  -28.6531   23.0323 C   0  0  0  0  0  0
  -26.4471  -31.6600   25.0690 C   0  0  0  0  0  0
  -25.3760  -31.3734   26.1470 C   0  0  0  0  0  0
  -27.0287  -30.3027   24.6094 C   0  0  0  0  0  0
  -27.5999  -32.4365   25.7471 C   0  0  0  0  0  0
  -27.5578  -37.1812   24.8460 C   0  0  0  0  0  0
  -21.4165  -29.3052   22.3680 N   0  0  0  0  0  0
  -26.4293  -37.3804   23.9406 N   0  0  0  0  0  0
  -24.6766  -31.0714   22.0949 N   0  0  0  0  0  0
  -23.4210  -28.8195   23.2990 O   0  0  0  0  0  0
  -28.3848  -26.6247   20.0362 O   0  0  0  0  0  0
  -26.5608  -34.8918   22.4677 O   0  0  0  0  0  0
  -23.5405  -32.1374   23.7439 O   0  0  0  0  0  0
  -29.7758  -17.9827   20.1922 C   0  0  0  0  0  0
  -30.0634  -19.3623   20.4440 C   0  0  0  0  0  0
  -30.7313  -19.6506   21.6681 C   0  0  0  0  0  0
  -31.0087  -18.5837   22.5681 C   0  0  0  0  0  0
  -30.1655  -16.9615   21.1043 C   0  0  0  0  0  0
  -31.1709  -21.0726   22.0305 C   0  0  0  0  0  0
  -29.3454  -19.8927   18.0365 C   0  0  0  0  0  0
  -32.9000  -17.9751   24.1638 C   0  0  0  0  0  0
  -30.5781  -18.5444   25.0745 C   0  0  0  0  0  0
  -29.4606  -23.1591   17.9313 C   0  0  0  0  0  0
  -27.9617  -24.0722   19.6589 C   0  0  0  0  0  0
  -28.7794  -21.6461   19.8474 C   0  0  0  0  0  0
  -28.3640  -25.2757   20.5885 C   0  0  0  0  0  0
  -29.7818  -20.4950   19.3938 C   0  0  1  0  0  0
  -31.6132  -18.7961   23.9640 C   0  0  0  0  0  0
  -30.7291  -17.2939   22.2789 N   0  0  0  0  0  0
  -29.8389  -15.5929   20.8324 N   0  0  0  0  0  0
  -29.0448  -23.0618   19.3536 N   0  3  1  0  0  0
  -31.4793  -12.4254   19.1469 H   0  0  0  0  0  0
  -30.3080  -11.3349   19.8406 H   0  0  0  0  0  0
  -29.7592  -11.7888   17.4292 H   0  0  0  0  0  0
  -29.6610  -13.4972   17.7599 H   0  0  0  0  0  0
  -27.8522  -11.3020   18.8295 H   0  0  0  0  0  0
  -27.3670  -12.6075   17.7812 H   0  0  0  0  0  0
  -27.6840  -14.2495   19.5436 H   0  0  0  0  0  0
  -28.6980  -11.9798   21.3312 H   0  0  0  0  0  0
  -28.4663  -13.6178   21.8668 H   0  0  0  0  0  0
  -25.2765   -9.5666   22.4775 H   0  0  0  0  0  0
  -24.0010   -7.4571   22.7415 H   0  0  0  0  0  0
  -21.0851   -8.8773   19.8898 H   0  0  0  0  0  0
  -22.3718  -10.9682   19.6131 H   0  0  0  0  0  0
  -21.2020   -7.6150   23.9793 H   0  0  0  0  0  0
  -21.1501   -6.0482   25.9114 H   0  0  0  0  0  0
  -22.0579   -2.7624   23.2795 H   0  0  0  0  0  0
  -22.4002  -11.9950   22.4923 H   0  0  0  0  0  0
  -21.1031  -13.1306   22.2541 H   0  0  0  0  0  0
  -24.6502  -15.8315   20.5147 H   0  0  0  0  0  0
  -26.2677  -15.6315   20.0642 H   0  0  0  0  0  0
  -26.7147  -32.5482   23.1097 H   0  0  0  0  0  0
  -25.0144  -33.9734   25.0493 H   0  0  0  0  0  0
  -22.6983  -31.3062   21.4039 H   0  0  0  0  0  0
  -23.3765  -35.9602   23.3290 H   0  0  0  0  0  0
  -24.3575  -36.8904   22.2050 H   0  0  0  0  0  0
  -23.7242  -37.6486   23.6649 H   0  0  0  0  0  0
  -26.0729  -31.5834   20.6005 H   0  0  0  0  0  0
  -26.8281  -30.8594   21.9877 H   0  0  0  0  0  0
  -28.1153  -29.0686   21.1267 H   0  0  0  0  0  0
  -25.9919  -25.9294   19.0484 H   0  0  0  0  0  0
  -23.9555  -27.2756   19.0687 H   0  0  0  0  0  0
  -23.7374  -30.5891   19.3999 H   0  0  0  0  0  0
  -22.7420  -29.2447   19.8632 H   0  0  0  0  0  0
  -25.1320  -36.1933   25.0845 H   0  0  0  0  0  0
  -20.9964  -28.3307   24.1413 H   0  0  0  0  0  0
  -20.5740  -26.2314   23.3629 H   0  0  0  0  0  0
  -21.6663  -26.7504   22.1186 H   0  0  0  0  0  0
  -19.6928  -25.6323   21.1228 H   0  0  0  0  0  0
  -19.6684  -27.3227   20.6765 H   0  0  0  0  0  0
  -17.4218  -26.6689   21.4012 H   0  0  0  0  0  0
  -18.0304  -26.0103   22.9042 H   0  0  0  0  0  0
  -19.7959  -30.7283   24.2232 H   0  0  0  0  0  0
  -17.5041  -31.6257   24.5216 H   0  0  0  0  0  0
  -15.5367  -30.3015   23.7648 H   0  0  0  0  0  0
  -15.8679  -28.0864   22.7021 H   0  0  0  0  0  0
  -24.5895  -30.7103   25.7831 H   0  0  0  0  0  0
  -24.9022  -32.2932   26.4930 H   0  0  0  0  0  0
  -25.8174  -30.8900   27.0206 H   0  0  0  0  0  0
  -26.2821  -29.6807   24.1151 H   0  0  0  0  0  0
  -27.4024  -29.7234   25.4540 H   0  0  0  0  0  0
  -27.8668  -30.4273   23.9235 H   0  0  0  0  0  0
  -27.2532  -33.3647   26.2013 H   0  0  0  0  0  0
  -28.3833  -32.6982   25.0348 H   0  0  0  0  0  0
  -28.0637  -31.8553   26.5454 H   0  0  0  0  0  0
  -28.2619  -38.0082   24.7533 H   0  0  0  0  0  0
  -28.1068  -36.2645   24.6291 H   0  0  0  0  0  0
  -27.2289  -37.1453   25.8851 H   0  0  0  0  0  0
  -20.9345  -29.8753   21.6862 H   0  0  0  0  0  0
  -26.0171  -38.2868   24.1415 H   0  0  0  0  0  0
  -29.2896  -17.6751   19.2777 H   0  0  0  0  0  0
  -32.2209  -21.0911   22.3247 H   0  0  0  0  0  0
  -30.5786  -21.4603   22.8586 H   0  0  0  0  0  0
  -31.0955  -21.7952   21.2227 H   0  0  0  0  0  0
  -30.0563  -19.1415   17.6879 H   0  0  0  0  0  0
  -29.2796  -20.6271   17.2399 H   0  0  0  0  0  0
  -28.3612  -19.4269   18.1081 H   0  0  0  0  0  0
  -32.6951  -16.9053   24.1840 H   0  0  0  0  0  0
  -33.4029  -18.2365   25.0969 H   0  0  0  0  0  0
  -33.5993  -18.1532   23.3477 H   0  0  0  0  0  0
  -29.7094  -19.1947   24.9607 H   0  0  0  0  0  0
  -30.9995  -18.7356   26.0617 H   0  0  0  0  0  0
  -30.2154  -17.5164   25.0625 H   0  0  0  0  0  0
  -29.6789  -24.1912   17.6590 H   0  0  0  0  0  0
  -28.6711  -22.8070   17.2647 H   0  0  0  0  0  0
  -30.3688  -22.5943   17.7247 H   0  0  0  0  0  0
  -27.5520  -24.4609   18.7264 H   0  0  0  0  0  0
  -27.1240  -23.5585   20.1318 H   0  0  0  0  0  0
  -28.7688  -21.7043   20.9344 H   0  0  0  0  0  0
  -27.7655  -21.3483   19.5774 H   0  0  0  0  0  0
  -29.3554  -25.0952   21.0037 H   0  0  0  0  0  0
  -27.7045  -25.2731   21.4582 H   0  0  0  0  0  0
  -30.7612  -20.9431   19.2211 H   0  0  0  0  0  0
  -31.9189  -19.8314   24.0824 H   0  0  0  0  0  0
  -28.8723  -15.3488   20.9733 H   0  0  0  0  0  0
  -29.8524  -23.3749   19.8719 H   0  0  0  0  0  0
  1 25  1  0  0  0
  1 30  2  0  0  0
  1 87  1  0  0  0
  2  3  1  0  0  0
  2 25  1  0  0  0
  2 89  1  0  0  0
  2 90  1  0  0  0
  3  4  1  0  0  0
  3 91  1  0  0  0
  3 92  1  0  0  0
  4  5  1  0  0  0
  4 93  1  0  0  0
  4 94  1  0  0  0
  5  6  1  0  0  0
  5 26  1  0  0  0
  5 95  1  0  0  0
  6 25  1  0  0  0
  6 96  1  0  0  0
  6 97  1  0  0  0
  7  8  2  0  0  0
  7 26  1  0  0  0
  7 29  1  0  0  0
  8  9  1  0  0  0
  8 22  1  0  0  0
  9 10  1  0  0  0
  9 27  2  0  0  0
 10 11  2  0  0  0
 10 15  1  0  0  0
 11 12  1  0  0  0
 11 98  1  0  0  0
 12 13  2  0  0  0
 12 99  1  0  0  0
 13 14  1  0  0  0
 13 31  1  0  0  0
 14 15  2  0  0  0
 14100  1  0  0  0
 15101  1  0  0  0
 16 17  2  0  0  0
 16 21  1  0  0  0
 16 31  1  0  0  0
 17 18  1  0  0  0
 17102  1  0  0  0
 18 19  2  0  0  0
 18103  1  0  0  0
 19 20  1  0  0  0
 19 24  1  0  0  0
 20 21  2  0  0  0
 20104  1  0  0  0
 21 23  1  0  0  0
 22 28  1  0  0  0
 22 32  2  0  0  0
 26 27  1  0  0  0
 28105  1  0  0  0
 28106  1  0  0  0
 29107  1  0  0  0
 29108  1  0  0  0
 33 34  1  0  0  0
 33 66  1  0  0  0
 33 70  2  0  0  0
 34 36  1  0  0  0
 34 59  1  0  0  0
 34109  1  0  0  0
 35 44  2  0  0  0
 35 45  1  0  0  0
 35 68  1  0  0  0
 36 56  1  0  0  0
 36110  1  0  0  0
 37 39  1  0  0  0
 37 47  1  0  0  0
 37 66  1  0  0  0
 37111  1  0  0  0
 38 43  2  0  0  0
 38 46  1  0  0  0
 38 47  1  0  0  0
 39 64  1  0  0  0
 39 67  2  0  0  0
 40 52  1  0  0  0
 40 53  2  0  0  0
 40 58  1  0  0  0
 41112  1  0  0  0
 41113  1  0  0  0
 41114  1  0  0  0
 41 48  1  0  0  0
 42 43  1  0  0  0
 42 66  1  0  0  0
 42115  1  0  0  0
 42116  1  0  0  0
 43 44  1  0  0  0
 44117  1  0  0  0
 45 46  2  0  0  0
 45118  1  0  0  0
 46119  1  0  0  0
 47120  1  0  0  0
 47121  1  0  0  0
 48 56  1  0  0  0
 48 65  1  0  0  0
 48122  1  0  0  0
 49 50  1  0  0  0
 49 53  1  0  0  0
 49 64  1  0  0  0
 49123  1  0  0  0
 50 51  1  0  0  0
 50124  1  0  0  0
 50125  1  0  0  0
 51 52  1  0  0  0
 51126  1  0  0  0
 51127  1  0  0  0
 52128  1  0  0  0
 52129  1  0  0  0
 53 54  1  0  0  0
 54 55  2  0  0  0
 54130  1  0  0  0
 55 57  1  0  0  0
 55131  1  0  0  0
 56 69  2  0  0  0
 57 58  2  0  0  0
 57132  1  0  0  0
 58133  1  0  0  0
 59 60  1  0  0  0
 59 61  1  0  0  0
 59 62  1  0  0  0
 60134  1  0  0  0
 60135  1  0  0  0
 60136  1  0  0  0
 61137  1  0  0  0
 61138  1  0  0  0
 61139  1  0  0  0
 62140  1  0  0  0
 62141  1  0  0  0
 62142  1  0  0  0
 63 65  1  0  0  0
 63143  1  0  0  0
 63144  1  0  0  0
 63145  1  0  0  0
 64146  1  0  0  0
 65147  1  0  0  0
 68 83  1  0  0  0
 71 72  2  0  0  0
 71 75  1  0  0  0
 71148  1  0  0  0
 72 73  1  0  0  0
 72 84  1  0  0  0
 73 74  2  0  0  0
 73 76  1  0  0  0
 74 85  1  0  0  0
 74 86  1  0  0  0
 75 86  2  0  0  0
 75 87  1  0  0  0
 76149  1  0  0  0
 76150  1  0  0  0
 76151  1  0  0  0
 77152  1  0  0  0
 77153  1  0  0  0
 77154  1  0  0  0
 77 84  1  0  0  0
 78155  1  0  0  0
 78156  1  0  0  0
 78157  1  0  0  0
 78 85  1  0  0  0
 79 85  1  0  0  0
 79158  1  0  0  0
 79159  1  0  0  0
 79160  1  0  0  0
 80161  1  0  0  0
 80162  1  0  0  0
 80163  1  0  0  0
 80 88  1  0  0  0
 81 83  1  0  0  0
 81 88  1  0  0  0
 81164  1  0  0  0
 81165  1  0  0  0
 82 84  1  0  0  0
 82 88  1  0  0  0
 82166  1  0  0  0
 82167  1  0  0  0
 83168  1  0  0  0
 83169  1  0  0  0
 84170  1  0  0  0
 85171  1  0  0  0
 87172  1  0  0  0
 88173  1  0  0  0
M  CHG  1  88   1
M  ISO  4   1 100  68 101  83 101  87 100
M  END
> <chiral flag>
0

> <version>
0

> <s_m_source_file>
/data/baiqing/PycharmProjects/Reinvent-master-3.2/result/LINK_invent/BTK/process_docking_weight1_custom_sum_contain_oxygen_bond_distance_aromatic_linkinvent_7_9_3/rearranged_h_0104.sdf

> <i_m_source_file_index>
30

> <r_mmod_Potential_Energy-OPLS-2005>
-208.671997070312

> <r_mmod_Stretch_Energy-OPLS-2005>
64.2451095581055

> <r_mmod_Bend_Energy-OPLS-2005>
129.707565307617

> <r_mmod_Torsional_Energy-OPLS-2005>
282.081115722656

> <r_mmod_Improper_Torsional_Energy-OPLS-2005>
6.87819910049438

> <r_mmod_Van_der_Waal_Energy-OPLS-2005>
161.971343994141

> <r_mmod_Electrostatic_Energy-OPLS-2005>
-421.520874023438

> <r_mmod_Solvation_Energy-OPLS-2005>
-455.538604736328

> <b_mmod_Minimization_Converged-OPLS-2005>
0

> <r_mmod_RMS_Derivative-OPLS-2005>
4.25540590286255

$$$$
30
                    3D
 Structure written by MMmdl.
167175  0  0  1  0            999 V2000
  -30.6771  -14.4900   20.6014 C   0  0  0  0  0  0
  -30.4379  -12.3282   19.4162 C   0  0  0  0  0  0
  -29.5011  -12.5201   18.2040 C   0  0  0  0  0  0
  -28.0213  -12.3716   18.6149 C   0  0  0  0  0  0
  -27.6661  -13.2012   19.8777 C   0  0  2  0  0  0
  -28.7072  -12.9625   20.9933 C   0  0  0  0  0  0
  -25.2620  -13.8145   20.5678 C   0  0  0  0  0  0
  -24.1857  -13.0435   20.9173 C   0  0  0  0  0  0
  -24.6405  -11.6899   20.8727 C   0  0  0  0  0  0
  -23.9063  -10.4294   21.0407 C   0  0  0  0  0  0
  -24.3618   -9.4207   21.9181 C   0  0  0  0  0  0
  -23.6296   -8.2243   22.0756 C   0  0  0  0  0  0
  -22.4275   -8.0284   21.3548 C   0  0  0  0  0  0
  -21.9910   -9.0257   20.4647 C   0  0  0  0  0  0
  -22.7240  -10.2134   20.3053 C   0  0  0  0  0  0
  -21.6852   -6.0737   22.5280 C   0  0  0  0  0  0
  -21.4014   -6.5642   23.8215 C   0  0  0  0  0  0
  -21.3654   -5.6795   24.9179 C   0  0  0  0  0  0
  -21.6045   -4.3061   24.7230 C   0  0  0  0  0  0
  -21.8814   -3.8148   23.4355 C   0  0  0  0  0  0
  -21.9195   -4.6963   22.3408 C   0  0  0  0  0  0
  -22.7880  -13.5248   21.1844 C   0  0  0  0  0  0
  -22.1660   -4.2149   21.0982 F   0  0  0  0  0  0
  -21.5632   -3.4545   25.7743 F   0  0  0  0  0  0
  -30.0382  -13.2961   20.4487 N   0  0  0  0  0  0
  -26.3051  -12.9300   20.3365 N   0  0  0  0  0  0
  -25.9327  -11.6468   20.5750 N   0  0  0  0  0  0
  -22.0510  -12.8239   22.0394 N   0  0  0  0  0  0
  -25.4368  -15.1860   20.4085 N   0  0  0  0  0  0
  -31.7779  -14.7355   20.1005 O   0  0  0  0  0  0
  -21.6637   -6.8881   21.4246 O   0  0  0  0  0  0
  -22.3572  -14.5563   20.6704 O   0  0  0  0  0  0
  -24.6155  -31.8670   23.2086 C   0  0  0  0  0  0
  -25.9045  -32.4813   23.8386 C   0  0  1  0  0  0
  -27.2413  -27.4283   20.0972 C   0  0  0  0  0  0
  -25.5897  -33.8616   24.2323 N   0  0  0  0  0  0
  -23.4063  -30.4890   21.5471 C   0  0  2  0  0  0
  -24.8580  -28.9532   20.1127 C   0  0  0  0  0  0
  -22.7419  -29.4659   22.4969 C   0  0  0  0  0  0
  -18.0272  -28.1392   22.8482 C   0  0  0  0  0  0
  -24.1488  -36.7321   23.2637 C   0  0  0  0  0  0
  -25.9353  -30.8298   21.3639 C   0  0  0  0  0  0
  -26.0177  -29.4622   20.7126 C   0  0  0  0  0  0
  -27.2150  -28.7071   20.7038 C   0  0  0  0  0  0
  -26.0687  -26.9360   19.4901 C   0  0  0  0  0  0
  -24.8778  -27.6888   19.4982 C   0  0  0  0  0  0
  -23.6183  -29.8193   20.1628 C   0  0  0  0  0  0
  -25.4111  -36.3107   24.0337 C   0  0  1  0  0  0
  -20.5865  -28.3690   23.1310 C   0  0  2  0  0  0
  -20.6770  -26.9428   22.5417 C   0  0  0  0  0  0
  -19.5748  -26.6391   21.5215 C   0  0  0  0  0  0
  -18.1918  -26.7931   22.1619 C   0  0  0  0  0  0
  -19.1523  -28.8853   23.2885 C   0  0  0  0  0  0
  -18.9458  -30.1446   23.8920 C   0  0  0  0  0  0
  -17.6468  -30.6598   24.0573 C   0  0  0  0  0  0
  -25.9042  -34.9469   23.5128 C   0  0  0  0  0  0
  -16.5354  -29.9107   23.6335 C   0  0  0  0  0  0
  -16.7264  -28.6519   23.0359 C   0  0  0  0  0  0
  -26.4477  -31.6597   25.0719 C   0  0  0  0  0  0
  -25.3743  -31.3703   26.1467 C   0  0  0  0  0  0
  -27.0311  -30.3036   24.6102 C   0  0  0  0  0  0
  -27.6051  -32.4313   25.7488 C   0  0  0  0  0  0
  -27.5586  -37.1802   24.8456 C   0  0  0  0  0  0
  -21.4147  -29.3048   22.3708 N   0  0  0  0  0  0
  -26.4290  -37.3796   23.9415 N   0  0  0  0  0  0
  -24.6701  -31.0757   22.0988 N   0  0  0  0  0  0
  -23.4169  -28.8210   23.3036 O   0  0  0  0  0  0
  -28.3729  -26.6389   20.0928 O   0  0  0  0  0  0
  -26.5605  -34.8919   22.4688 O   0  0  0  0  0  0
  -23.5344  -32.1427   23.7473 O   0  0  0  0  0  0
  -28.9573  -23.7133   19.5037 C   0  0  0  0  0  0
  -29.4421  -22.3988   19.2964 C   0  0  0  0  0  0
  -29.9569  -21.6607   20.4004 C   0  0  0  0  0  0
  -28.9943  -24.2766   20.7935 C   0  0  0  0  0  0
  -29.9749  -22.3275   21.6552 C   0  0  0  0  0  0
  -29.3947  -21.8148   17.8936 C   0  0  0  0  0  0
  -30.5173  -21.6708   22.9131 C   0  0  0  0  0  0
  -31.4733  -17.1440   22.1834 C   0  0  0  0  0  0
  -28.9985  -17.1978   22.5540 C   0  0  0  0  0  0
  -30.5211  -20.2207   20.2384 C   0  0  0  0  0  0
  -28.3635  -25.6409   21.1331 C   0  0  0  0  0  0
  -29.9138  -17.7296   20.2277 C   0  0  0  0  0  0
  -30.1031  -16.8687   21.5260 C   0  0  0  0  0  0
  -29.5025  -23.5832   21.8386 N   0  0  0  0  0  0
  -29.9431  -15.4208   21.2471 N   0  0  0  0  0  0
  -29.5144  -19.1493   20.4763 N   0  3  0  0  0  0
  -31.4806  -12.4505   19.1153 H   0  0  0  0  0  0
  -30.3564  -11.3120   19.8058 H   0  0  0  0  0  0
  -29.7452  -11.7994   17.4219 H   0  0  0  0  0  0
  -29.6615  -13.5085   17.7692 H   0  0  0  0  0  0
  -27.8361  -11.3136   18.8030 H   0  0  0  0  0  0
  -27.3708  -12.6517   17.7856 H   0  0  0  0  0  0
  -27.7152  -14.2523   19.5919 H   0  0  0  0  0  0
  -28.6922  -11.9165   21.3033 H   0  0  0  0  0  0
  -28.4545  -13.5271   21.8914 H   0  0  0  0  0  0
  -25.2765   -9.5682   22.4752 H   0  0  0  0  0  0
  -24.0005   -7.4633   22.7470 H   0  0  0  0  0  0
  -21.0842   -8.8774   19.8946 H   0  0  0  0  0  0
  -22.3704  -10.9673   19.6159 H   0  0  0  0  0  0
  -21.1995   -7.6148   23.9721 H   0  0  0  0  0  0
  -21.1484   -6.0525   25.9080 H   0  0  0  0  0  0
  -22.0595   -2.7611   23.2856 H   0  0  0  0  0  0
  -22.4128  -11.9898   22.4775 H   0  0  0  0  0  0
  -21.1128  -13.1266   22.2594 H   0  0  0  0  0  0
  -24.6715  -15.8432   20.5111 H   0  0  0  0  0  0
  -26.2858  -15.6178   20.0685 H   0  0  0  0  0  0
  -26.7127  -32.5543   23.1165 H   0  0  0  0  0  0
  -25.0048  -33.9775   25.0465 H   0  0  0  0  0  0
  -22.6965  -31.3066   21.4045 H   0  0  0  0  0  0
  -23.3744  -35.9655   23.3293 H   0  0  0  0  0  0
  -24.3582  -36.8950   22.2051 H   0  0  0  0  0  0
  -23.7241  -37.6523   23.6664 H   0  0  0  0  0  0
  -26.0461  -31.5974   20.5956 H   0  0  0  0  0  0
  -26.8217  -30.8856   21.9833 H   0  0  0  0  0  0
  -28.1097  -29.0934   21.1725 H   0  0  0  0  0  0
  -26.0789  -25.9639   19.0171 H   0  0  0  0  0  0
  -23.9885  -27.2928   19.0278 H   0  0  0  0  0  0
  -23.7232  -30.5932   19.4018 H   0  0  0  0  0  0
  -22.7435  -29.2365   19.8683 H   0  0  0  0  0  0
  -25.1279  -36.1976   25.0830 H   0  0  0  0  0  0
  -20.9943  -28.3269   24.1432 H   0  0  0  0  0  0
  -20.5697  -26.2305   23.3606 H   0  0  0  0  0  0
  -21.6638  -26.7488   22.1197 H   0  0  0  0  0  0
  -19.6925  -25.6299   21.1251 H   0  0  0  0  0  0
  -19.6696  -27.3196   20.6738 H   0  0  0  0  0  0
  -17.4194  -26.6687   21.4011 H   0  0  0  0  0  0
  -18.0314  -26.0069   22.9013 H   0  0  0  0  0  0
  -19.7940  -30.7236   24.2311 H   0  0  0  0  0  0
  -17.5036  -31.6286   24.5156 H   0  0  0  0  0  0
  -15.5360  -30.3028   23.7649 H   0  0  0  0  0  0
  -15.8658  -28.0849   22.7091 H   0  0  0  0  0  0
  -24.5909  -30.7066   25.7795 H   0  0  0  0  0  0
  -24.8946  -32.2861   26.4932 H   0  0  0  0  0  0
  -25.8086  -30.8852   27.0221 H   0  0  0  0  0  0
  -26.2853  -29.6784   24.1177 H   0  0  0  0  0  0
  -27.4101  -29.7288   25.4566 H   0  0  0  0  0  0
  -27.8683  -30.4346   23.9237 H   0  0  0  0  0  0
  -27.2672  -33.3604   26.2089 H   0  0  0  0  0  0
  -28.3853  -32.6888   25.0313 H   0  0  0  0  0  0
  -28.0726  -31.8422   26.5389 H   0  0  0  0  0  0
  -28.2576  -38.0125   24.7538 H   0  0  0  0  0  0
  -28.1106  -36.2656   24.6234 H   0  0  0  0  0  0
  -27.2302  -37.1395   25.8855 H   0  0  0  0  0  0
  -20.9309  -29.8765   21.6929 H   0  0  0  0  0  0
  -26.0185  -38.2872   24.1435 H   0  0  0  0  0  0
  -28.5402  -24.2878   18.6862 H   0  0  0  0  0  0
  -28.7821  -22.4254   17.2295 H   0  0  0  0  0  0
  -28.9698  -20.8118   17.8931 H   0  0  0  0  0  0
  -30.3965  -21.7671   17.4662 H   0  0  0  0  0  0
  -31.5721  -21.4233   22.7973 H   0  0  0  0  0  0
  -29.9671  -20.7599   23.1468 H   0  0  0  0  0  0
  -30.4323  -22.3320   23.7764 H   0  0  0  0  0  0
  -31.5657  -18.1837   22.4991 H   0  0  0  0  0  0
  -32.3045  -16.9412   21.5072 H   0  0  0  0  0  0
  -31.6168  -16.5272   23.0719 H   0  0  0  0  0  0
  -29.0756  -18.2172   22.9340 H   0  0  0  0  0  0
  -29.0610  -16.5459   23.4268 H   0  0  0  0  0  0
  -28.0003  -17.0733   22.1310 H   0  0  0  0  0  0
  -31.3695  -20.0742   20.9056 H   0  0  0  0  0  0
  -30.9338  -20.1035   19.2360 H   0  0  0  0  0  0
  -28.8908  -26.0651   21.9892 H   0  0  0  0  0  0
  -27.3489  -25.4376   21.4816 H   0  0  0  0  0  0
  -29.1097  -17.2946   19.6332 H   0  0  0  0  0  0
  -30.7999  -17.6824   19.5925 H   0  0  0  0  0  0
  -29.0652  -15.0402   21.5661 H   0  0  0  0  0  0
  -28.7402  -19.3303   19.8584 H   0  0  0  0  0  0
  -29.1545  -19.2058   21.4144 H   0  0  0  0  0  0
  1 25  1  0  0  0
  1 30  2  0  0  0
  1 85  1  0  0  0
  2  3  1  0  0  0
  2 25  1  0  0  0
  2 87  1  0  0  0
  2 88  1  0  0  0
  3  4  1  0  0  0
  3 89  1  0  0  0
  3 90  1  0  0  0
  4  5  1  0  0  0
  4 91  1  0  0  0
  4 92  1  0  0  0
  5  6  1  0  0  0
  5 26  1  0  0  0
  5 93  1  0  0  0
  6 25  1  0  0  0
  6 94  1  0  0  0
  6 95  1  0  0  0
  7  8  2  0  0  0
  7 26  1  0  0  0
  7 29  1  0  0  0
  8  9  1  0  0  0
  8 22  1  0  0  0
  9 10  1  0  0  0
  9 27  2  0  0  0
 10 11  2  0  0  0
 10 15  1  0  0  0
 11 12  1  0  0  0
 11 96  1  0  0  0
 12 13  2  0  0  0
 12 97  1  0  0  0
 13 14  1  0  0  0
 13 31  1  0  0  0
 14 15  2  0  0  0
 14 98  1  0  0  0
 15 99  1  0  0  0
 16 17  2  0  0  0
 16 21  1  0  0  0
 16 31  1  0  0  0
 17 18  1  0  0  0
 17100  1  0  0  0
 18 19  2  0  0  0
 18101  1  0  0  0
 19 20  1  0  0  0
 19 24  1  0  0  0
 20 21  2  0  0  0
 20102  1  0  0  0
 21 23  1  0  0  0
 22 28  1  0  0  0
 22 32  2  0  0  0
 26 27  1  0  0  0
 28103  1  0  0  0
 28104  1  0  0  0
 29105  1  0  0  0
 29106  1  0  0  0
 33 34  1  0  0  0
 33 66  1  0  0  0
 33 70  2  0  0  0
 34 36  1  0  0  0
 34 59  1  0  0  0
 34107  1  0  0  0
 35 44  2  0  0  0
 35 45  1  0  0  0
 35 68  1  0  0  0
 36 56  1  0  0  0
 36108  1  0  0  0
 37 39  1  0  0  0
 37 47  1  0  0  0
 37 66  1  0  0  0
 37109  1  0  0  0
 38 43  2  0  0  0
 38 46  1  0  0  0
 38 47  1  0  0  0
 39 64  1  0  0  0
 39 67  2  0  0  0
 40 52  1  0  0  0
 40 53  2  0  0  0
 40 58  1  0  0  0
 41110  1  0  0  0
 41111  1  0  0  0
 41112  1  0  0  0
 41 48  1  0  0  0
 42 43  1  0  0  0
 42 66  1  0  0  0
 42113  1  0  0  0
 42114  1  0  0  0
 43 44  1  0  0  0
 44115  1  0  0  0
 45 46  2  0  0  0
 45116  1  0  0  0
 46117  1  0  0  0
 47118  1  0  0  0
 47119  1  0  0  0
 48 56  1  0  0  0
 48 65  1  0  0  0
 48120  1  0  0  0
 49 50  1  0  0  0
 49 53  1  0  0  0
 49 64  1  0  0  0
 49121  1  0  0  0
 50 51  1  0  0  0
 50122  1  0  0  0
 50123  1  0  0  0
 51 52  1  0  0  0
 51124  1  0  0  0
 51125  1  0  0  0
 52126  1  0  0  0
 52127  1  0  0  0
 53 54  1  0  0  0
 54 55  2  0  0  0
 54128  1  0  0  0
 55 57  1  0  0  0
 55129  1  0  0  0
 56 69  2  0  0  0
 57 58  2  0  0  0
 57130  1  0  0  0
 58131  1  0  0  0
 59 60  1  0  0  0
 59 61  1  0  0  0
 59 62  1  0  0  0
 60132  1  0  0  0
 60133  1  0  0  0
 60134  1  0  0  0
 61135  1  0  0  0
 61136  1  0  0  0
 61137  1  0  0  0
 62138  1  0  0  0
 62139  1  0  0  0
 62140  1  0  0  0
 63 65  1  0  0  0
 63141  1  0  0  0
 63142  1  0  0  0
 63143  1  0  0  0
 64144  1  0  0  0
 65145  1  0  0  0
 68 81  1  0  0  0
 71 72  2  0  0  0
 71 74  1  0  0  0
 71146  1  0  0  0
 72 73  1  0  0  0
 72 76  1  0  0  0
 73 75  2  0  0  0
 73 80  1  0  0  0
 74 81  1  0  0  0
 74 84  2  0  0  0
 75 77  1  0  0  0
 75 84  1  0  0  0
 76147  1  0  0  0
 76148  1  0  0  0
 76149  1  0  0  0
 77150  1  0  0  0
 77151  1  0  0  0
 77152  1  0  0  0
 78153  1  0  0  0
 78154  1  0  0  0
 78155  1  0  0  0
 78 83  1  0  0  0
 79 83  1  0  0  0
 79156  1  0  0  0
 79157  1  0  0  0
 79158  1  0  0  0
 80 86  1  0  0  0
 80159  1  0  0  0
 80160  1  0  0  0
 81161  1  0  0  0
 81162  1  0  0  0
 82 83  1  0  0  0
 82 86  1  0  0  0
 82163  1  0  0  0
 82164  1  0  0  0
 83 85  1  0  0  0
 85165  1  0  0  0
 86166  1  0  0  0
 86167  1  0  0  0
M  CHG  1  86   1
M  ISO  4   1 100  68 101  81 101  85 100
M  END
> <chiral flag>
0

> <version>
0

> <s_m_source_file>
/data/baiqing/PycharmProjects/Reinvent-master-3.2/result/LINK_invent/BTK/process_docking_weight1_custom_sum_contain_oxygen_bond_distance_aromatic_linkinvent_7_9_3/rearranged_h_0104.sdf

> <i_m_source_file_index>
31

> <r_mmod_Potential_Energy-OPLS-2005>
-317.879272460938

> <r_mmod_Stretch_Energy-OPLS-2005>
45.4667892456055

> <r_mmod_Bend_Energy-OPLS-2005>
113.835205078125

> <r_mmod_Torsional_Energy-OPLS-2005>
245.442153930664

> <r_mmod_Improper_Torsional_Energy-OPLS-2005>
3.19937515258789

> <r_mmod_Van_der_Waal_Energy-OPLS-2005>
144.228134155273

> <r_mmod_Electrostatic_Energy-OPLS-2005>
-414.133697509766

> <r_mmod_Solvation_Energy-OPLS-2005>
-470.079986572266

> <b_mmod_Minimization_Converged-OPLS-2005>
0

> <r_mmod_RMS_Derivative-OPLS-2005>
1.66918313503265

$$$$
31
                    3D
 Structure written by MMmdl.
160168  0  0  1  0            999 V2000
  -30.5330  -15.0031   20.4167 C   0  0  0  0  0  0
  -30.4393  -12.6242   19.5044 C   0  0  0  0  0  0
  -29.5264  -12.5352   18.2591 C   0  0  0  0  0  0
  -28.0596  -12.3127   18.6758 C   0  0  0  0  0  0
  -27.6261  -13.2563   19.8284 C   0  0  2  0  0  0
  -28.6676  -13.3143   20.9665 C   0  0  0  0  0  0
  -25.2433  -13.8246   20.5684 C   0  0  0  0  0  0
  -24.1775  -13.0451   20.9225 C   0  0  0  0  0  0
  -24.6411  -11.6939   20.8758 C   0  0  0  0  0  0
  -23.9105  -10.4301   21.0394 C   0  0  0  0  0  0
  -24.3655   -9.4219   21.9164 C   0  0  0  0  0  0
  -23.6322   -8.2254   22.0744 C   0  0  0  0  0  0
  -22.4305   -8.0284   21.3533 C   0  0  0  0  0  0
  -21.9945   -9.0253   20.4644 C   0  0  0  0  0  0
  -22.7271  -10.2131   20.3042 C   0  0  0  0  0  0
  -21.6857   -6.0740   22.5278 C   0  0  0  0  0  0
  -21.4017   -6.5642   23.8209 C   0  0  0  0  0  0
  -21.3674   -5.6783   24.9180 C   0  0  0  0  0  0
  -21.6050   -4.3046   24.7223 C   0  0  0  0  0  0
  -21.8815   -3.8145   23.4343 C   0  0  0  0  0  0
  -21.9202   -4.6974   22.3400 C   0  0  0  0  0  0
  -22.7786  -13.5202   21.1884 C   0  0  0  0  0  0
  -22.1656   -4.2157   21.0970 F   0  0  0  0  0  0
  -21.5651   -3.4525   25.7735 F   0  0  0  0  0  0
  -29.9364  -13.7378   20.3629 N   0  0  0  0  0  0
  -26.2868  -12.9493   20.3184 N   0  0  0  0  0  0
  -25.9344  -11.6625   20.5717 N   0  0  0  0  0  0
  -22.0431  -12.8189   22.0439 N   0  0  0  0  0  0
  -25.4071  -15.1976   20.4120 N   0  0  0  0  0  0
  -31.7431  -15.0527   20.1743 O   0  0  0  0  0  0
  -21.6658   -6.8889   21.4238 O   0  0  0  0  0  0
  -22.3454  -14.5482   20.6712 O   0  0  0  0  0  0
  -24.6487  -31.8426   23.1871 C   0  0  0  0  0  0
  -25.9234  -32.4701   23.8286 C   0  0  1  0  0  0
  -27.2113  -27.0870   20.1550 C   0  0  0  0  0  0
  -25.5962  -33.8509   24.2190 N   0  0  0  0  0  0
  -23.4561  -30.4632   21.5321 C   0  0  2  0  0  0
  -24.9070  -28.8861   20.1092 C   0  0  0  0  0  0
  -22.7598  -29.4553   22.4819 C   0  0  0  0  0  0
  -18.0334  -28.1419   22.8470 C   0  0  0  0  0  0
  -24.1494  -36.7245   23.2642 C   0  0  0  0  0  0
  -26.0166  -30.6986   21.3981 C   0  0  0  0  0  0
  -26.0862  -29.3051   20.7370 C   0  0  0  0  0  0
  -27.2381  -28.4214   20.7467 C   0  0  0  0  0  0
  -26.0082  -26.7927   19.4722 C   0  0  0  0  0  0
  -24.8833  -27.6443   19.4612 C   0  0  0  0  0  0
  -23.6899  -29.7983   20.1505 C   0  0  0  0  0  0
  -25.4129  -36.3039   24.0315 C   0  0  1  0  0  0
  -20.5941  -28.3761   23.1213 C   0  0  2  0  0  0
  -20.6812  -26.9459   22.5391 C   0  0  0  0  0  0
  -19.5788  -26.6397   21.5199 C   0  0  0  0  0  0
  -18.1973  -26.7960   22.1612 C   0  0  0  0  0  0
  -19.1581  -28.8903   23.2843 C   0  0  0  0  0  0
  -18.9489  -30.1478   23.8904 C   0  0  0  0  0  0
  -17.6482  -30.6608   24.0560 C   0  0  0  0  0  0
  -25.9079  -34.9412   23.5067 C   0  0  0  0  0  0
  -16.5379  -29.9102   23.6327 C   0  0  0  0  0  0
  -16.7308  -28.6514   23.0363 C   0  0  0  0  0  0
  -26.4536  -31.6597   25.0756 C   0  0  0  0  0  0
  -25.3684  -31.3758   26.1413 C   0  0  0  0  0  0
  -27.0402  -30.3007   24.6346 C   0  0  0  0  0  0
  -27.6109  -32.4328   25.7525 C   0  0  0  0  0  0
  -27.5577  -37.1787   24.8459 C   0  0  0  0  0  0
  -21.4279  -29.3079   22.3567 N   0  0  0  0  0  0
  -26.4289  -37.3750   23.9406 N   0  0  0  0  0  0
  -24.7268  -31.0226   22.0943 N   0  0  0  0  0  0
  -23.4197  -28.8094   23.2992 O   0  0  0  0  0  0
  -28.2249  -26.0449   20.2476 O   0  0  0  0  0  0
  -26.5653  -34.8898   22.4638 O   0  0  0  0  0  0
  -23.5593  -32.1313   23.7055 O   0  0  0  0  0  0
  -29.9140  -22.8437   20.9628 C   0  0  0  0  0  0
  -28.6578  -23.0946   20.3238 C   0  0  0  0  0  0
  -30.2185  -21.4853   21.0694 C   0  0  0  0  0  0
  -28.2820  -21.7388   20.0594 C   0  0  0  0  0  0
  -27.0114  -21.2993   19.4040 C   0  0  0  0  0  0
  -31.3077  -21.0137   23.2801 C   0  0  0  0  0  0
  -32.7271  -21.5733   21.2690 C   0  0  0  0  0  0
  -27.8431  -24.5354   20.0074 C   0  0  0  0  0  0
  -29.0092  -19.0784   20.4196 C   0  0  0  0  0  0
  -30.1169  -17.7750   20.5653 C   0  0  0  0  0  0
  -31.4285  -20.9094   21.7504 C   0  0  0  0  0  0
  -29.2089  -20.6894   20.4919 N   0  0  0  0  0  0
  -29.7614  -16.2072   20.5401 N   0  0  0  0  0  0
  -31.4736  -12.7780   19.1966 H   0  0  0  0  0  0
  -30.4299  -11.6811   20.0554 H   0  0  0  0  0  0
  -29.8550  -11.7274   17.6031 H   0  0  0  0  0  0
  -29.6067  -13.4562   17.6769 H   0  0  0  0  0  0
  -27.9672  -11.2754   18.9977 H   0  0  0  0  0  0
  -27.3965  -12.4237   17.8171 H   0  0  0  0  0  0
  -27.5797  -14.2530   19.3859 H   0  0  0  0  0  0
  -28.7663  -12.3452   21.4593 H   0  0  0  0  0  0
  -28.3571  -14.0251   21.7334 H   0  0  0  0  0  0
  -25.2800   -9.5696   22.4751 H   0  0  0  0  0  0
  -24.0032   -7.4653   22.7470 H   0  0  0  0  0  0
  -21.0867   -8.8778   19.8961 H   0  0  0  0  0  0
  -22.3721  -10.9668   19.6158 H   0  0  0  0  0  0
  -21.1977   -7.6139   23.9713 H   0  0  0  0  0  0
  -21.1506   -6.0514   25.9081 H   0  0  0  0  0  0
  -22.0582   -2.7603   23.2829 H   0  0  0  0  0  0
  -22.4065  -11.9889   22.4879 H   0  0  0  0  0  0
  -21.1028  -13.1177   22.2612 H   0  0  0  0  0  0
  -24.6310  -15.8420   20.5247 H   0  0  0  0  0  0
  -26.2424  -15.6432   20.0547 H   0  0  0  0  0  0
  -26.7307  -32.5296   23.1015 H   0  0  0  0  0  0
  -25.0123  -33.9619   25.0348 H   0  0  0  0  0  0
  -22.7636  -31.2931   21.3751 H   0  0  0  0  0  0
  -23.3781  -35.9550   23.3289 H   0  0  0  0  0  0
  -24.3591  -36.8898   22.2059 H   0  0  0  0  0  0
  -23.7213  -37.6422   23.6688 H   0  0  0  0  0  0
  -26.1787  -31.4535   20.6268 H   0  0  0  0  0  0
  -26.8833  -30.7495   22.0452 H   0  0  0  0  0  0
  -28.1266  -28.7313   21.2793 H   0  0  0  0  0  0
  -25.8891  -25.8524   18.9572 H   0  0  0  0  0  0
  -23.9875  -27.3217   18.9503 H   0  0  0  0  0  0
  -23.8423  -30.5755   19.4012 H   0  0  0  0  0  0
  -22.8022  -29.2534   19.8252 H   0  0  0  0  0  0
  -25.1324  -36.1873   25.0809 H   0  0  0  0  0  0
  -21.0042  -28.3363   24.1326 H   0  0  0  0  0  0
  -20.5719  -26.2370   23.3616 H   0  0  0  0  0  0
  -21.6681  -26.7477   22.1182 H   0  0  0  0  0  0
  -19.6951  -25.6285   21.1283 H   0  0  0  0  0  0
  -19.6737  -27.3159   20.6695 H   0  0  0  0  0  0
  -17.4237  -26.6700   21.4022 H   0  0  0  0  0  0
  -18.0387  -26.0113   22.9022 H   0  0  0  0  0  0
  -19.7954  -30.7284   24.2307 H   0  0  0  0  0  0
  -17.5036  -31.6292   24.5147 H   0  0  0  0  0  0
  -15.5374  -30.3004   23.7648 H   0  0  0  0  0  0
  -15.8711  -28.0811   22.7111 H   0  0  0  0  0  0
  -24.5896  -30.7098   25.7665 H   0  0  0  0  0  0
  -24.8813  -32.2910   26.4793 H   0  0  0  0  0  0
  -25.7924  -30.8928   27.0224 H   0  0  0  0  0  0
  -26.3006  -29.6732   24.1353 H   0  0  0  0  0  0
  -27.4021  -29.7331   25.4928 H   0  0  0  0  0  0
  -27.8927  -30.4279   23.9669 H   0  0  0  0  0  0
  -27.2785  -33.3657   26.2079 H   0  0  0  0  0  0
  -28.3930  -32.6830   25.0342 H   0  0  0  0  0  0
  -28.0762  -31.8447   26.5439 H   0  0  0  0  0  0
  -28.2591  -38.0091   24.7537 H   0  0  0  0  0  0
  -28.1089  -36.2631   24.6269 H   0  0  0  0  0  0
  -27.2301  -37.1400   25.8862 H   0  0  0  0  0  0
  -20.9500  -29.8765   21.6720 H   0  0  0  0  0  0
  -26.0170  -38.2823   24.1421 H   0  0  0  0  0  0
  -30.5582  -23.6197   21.3546 H   0  0  0  0  0  0
  -26.3383  -22.1380   19.2251 H   0  0  0  0  0  0
  -26.4827  -20.5804   20.0298 H   0  0  0  0  0  0
  -27.2102  -20.8261   18.4425 H   0  0  0  0  0  0
  -30.4223  -20.4920   23.6421 H   0  0  0  0  0  0
  -31.2288  -22.0523   23.6054 H   0  0  0  0  0  0
  -32.1719  -20.5755   23.7803 H   0  0  0  0  0  0
  -32.8380  -21.4699   20.1893 H   0  0  0  0  0  0
  -33.6008  -21.1131   21.7320 H   0  0  0  0  0  0
  -32.7514  -22.6376   21.5059 H   0  0  0  0  0  0
  -26.8930  -24.3992   20.5209 H   0  0  0  0  0  0
  -27.6110  -24.4663   18.9443 H   0  0  0  0  0  0
  -28.2346  -18.8724   21.1583 H   0  0  0  0  0  0
  -28.5156  -18.9058   19.4627 H   0  0  0  0  0  0
  -30.6198  -17.8950   21.5231 H   0  0  0  0  0  0
  -30.8918  -17.9278   19.8124 H   0  0  0  0  0  0
  -31.5203  -19.8575   21.5005 H   0  0  0  0  0  0
  -28.7765  -16.0147   20.6452 H   0  0  0  0  0  0
  1 25  1  0  0  0
  1 30  2  0  0  0
  1 83  1  0  0  0
  2  3  1  0  0  0
  2 25  1  0  0  0
  2 84  1  0  0  0
  2 85  1  0  0  0
  3  4  1  0  0  0
  3 86  1  0  0  0
  3 87  1  0  0  0
  4  5  1  0  0  0
  4 88  1  0  0  0
  4 89  1  0  0  0
  5  6  1  0  0  0
  5 26  1  0  0  0
  5 90  1  0  0  0
  6 25  1  0  0  0
  6 91  1  0  0  0
  6 92  1  0  0  0
  7  8  2  0  0  0
  7 26  1  0  0  0
  7 29  1  0  0  0
  8  9  1  0  0  0
  8 22  1  0  0  0
  9 10  1  0  0  0
  9 27  2  0  0  0
 10 11  2  0  0  0
 10 15  1  0  0  0
 11 12  1  0  0  0
 11 93  1  0  0  0
 12 13  2  0  0  0
 12 94  1  0  0  0
 13 14  1  0  0  0
 13 31  1  0  0  0
 14 15  2  0  0  0
 14 95  1  0  0  0
 15 96  1  0  0  0
 16 17  2  0  0  0
 16 21  1  0  0  0
 16 31  1  0  0  0
 17 18  1  0  0  0
 17 97  1  0  0  0
 18 19  2  0  0  0
 18 98  1  0  0  0
 19 20  1  0  0  0
 19 24  1  0  0  0
 20 21  2  0  0  0
 20 99  1  0  0  0
 21 23  1  0  0  0
 22 28  1  0  0  0
 22 32  2  0  0  0
 26 27  1  0  0  0
 28100  1  0  0  0
 28101  1  0  0  0
 29102  1  0  0  0
 29103  1  0  0  0
 33 34  1  0  0  0
 33 66  1  0  0  0
 33 70  2  0  0  0
 34 36  1  0  0  0
 34 59  1  0  0  0
 34104  1  0  0  0
 35 44  2  0  0  0
 35 45  1  0  0  0
 35 68  1  0  0  0
 36 56  1  0  0  0
 36105  1  0  0  0
 37 39  1  0  0  0
 37 47  1  0  0  0
 37 66  1  0  0  0
 37106  1  0  0  0
 38 43  2  0  0  0
 38 46  1  0  0  0
 38 47  1  0  0  0
 39 64  1  0  0  0
 39 67  2  0  0  0
 40 52  1  0  0  0
 40 53  2  0  0  0
 40 58  1  0  0  0
 41107  1  0  0  0
 41108  1  0  0  0
 41109  1  0  0  0
 41 48  1  0  0  0
 42 43  1  0  0  0
 42 66  1  0  0  0
 42110  1  0  0  0
 42111  1  0  0  0
 43 44  1  0  0  0
 44112  1  0  0  0
 45 46  2  0  0  0
 45113  1  0  0  0
 46114  1  0  0  0
 47115  1  0  0  0
 47116  1  0  0  0
 48 56  1  0  0  0
 48 65  1  0  0  0
 48117  1  0  0  0
 49 50  1  0  0  0
 49 53  1  0  0  0
 49 64  1  0  0  0
 49118  1  0  0  0
 50 51  1  0  0  0
 50119  1  0  0  0
 50120  1  0  0  0
 51 52  1  0  0  0
 51121  1  0  0  0
 51122  1  0  0  0
 52123  1  0  0  0
 52124  1  0  0  0
 53 54  1  0  0  0
 54 55  2  0  0  0
 54125  1  0  0  0
 55 57  1  0  0  0
 55126  1  0  0  0
 56 69  2  0  0  0
 57 58  2  0  0  0
 57127  1  0  0  0
 58128  1  0  0  0
 59 60  1  0  0  0
 59 61  1  0  0  0
 59 62  1  0  0  0
 60129  1  0  0  0
 60130  1  0  0  0
 60131  1  0  0  0
 61132  1  0  0  0
 61133  1  0  0  0
 61134  1  0  0  0
 62135  1  0  0  0
 62136  1  0  0  0
 62137  1  0  0  0
 63 65  1  0  0  0
 63138  1  0  0  0
 63139  1  0  0  0
 63140  1  0  0  0
 64141  1  0  0  0
 65142  1  0  0  0
 68 78  1  0  0  0
 71 72  1  0  0  0
 71 73  2  0  0  0
 71143  1  0  0  0
 72 74  2  0  0  0
 72 78  1  0  0  0
 73 81  1  0  0  0
 73 82  1  0  0  0
 74 75  1  0  0  0
 74 82  1  0  0  0
 75144  1  0  0  0
 75145  1  0  0  0
 75146  1  0  0  0
 76147  1  0  0  0
 76148  1  0  0  0
 76149  1  0  0  0
 76 81  1  0  0  0
 77 81  1  0  0  0
 77150  1  0  0  0
 77151  1  0  0  0
 77152  1  0  0  0
 78153  1  0  0  0
 78154  1  0  0  0
 79 80  1  0  0  0
 79 82  1  0  0  0
 79155  1  0  0  0
 79156  1  0  0  0
 80 83  1  0  0  0
 80157  1  0  0  0
 80158  1  0  0  0
 81159  1  0  0  0
 83160  1  0  0  0
M  ISO  4   1 100  68 101  78 101  83 100
M  END
> <chiral flag>
0

> <version>
0

> <s_m_source_file>
/data/baiqing/PycharmProjects/Reinvent-master-3.2/result/LINK_invent/BTK/process_docking_weight1_custom_sum_contain_oxygen_bond_distance_aromatic_linkinvent_7_9_3/rearranged_h_0104.sdf

> <i_m_source_file_index>
32

> <r_mmod_Potential_Energy-OPLS-2005>
592.751403808594

> <r_mmod_Stretch_Energy-OPLS-2005>
314.213165283203

> <r_mmod_Bend_Energy-OPLS-2005>
303.709289550781

> <r_mmod_Torsional_Energy-OPLS-2005>
227.967620849609

> <r_mmod_Improper_Torsional_Energy-OPLS-2005>
4.67877435684204

> <r_mmod_Van_der_Waal_Energy-OPLS-2005>
110.31566619873

> <r_mmod_Electrostatic_Energy-OPLS-2005>
-387.269866943359

> <r_mmod_Solvation_Energy-OPLS-2005>
-222.660995483398

> <b_mmod_Minimization_Converged-OPLS-2005>
0

> <r_mmod_RMS_Derivative-OPLS-2005>
2.70572376251221

$$$$
32
                    3D
 Structure written by MMmdl.
162170  0  0  1  0            999 V2000
  -30.6841  -14.6082   20.5577 C   0  0  0  0  0  0
  -30.4233  -12.3915   19.4399 C   0  0  0  0  0  0
  -29.4967  -12.5229   18.2145 C   0  0  0  0  0  0
  -28.0212  -12.3642   18.6294 C   0  0  0  0  0  0
  -27.6538  -13.2249   19.8689 C   0  0  2  0  0  0
  -28.7005  -13.0556   20.9905 C   0  0  0  0  0  0
  -25.2527  -13.8172   20.5634 C   0  0  0  0  0  0
  -24.1823  -13.0431   20.9208 C   0  0  0  0  0  0
  -24.6407  -11.6916   20.8755 C   0  0  0  0  0  0
  -23.9083  -10.4295   21.0405 C   0  0  0  0  0  0
  -24.3624   -9.4209   21.9180 C   0  0  0  0  0  0
  -23.6289   -8.2248   22.0752 C   0  0  0  0  0  0
  -22.4271   -8.0293   21.3550 C   0  0  0  0  0  0
  -21.9915   -9.0269   20.4649 C   0  0  0  0  0  0
  -22.7251  -10.2143   20.3055 C   0  0  0  0  0  0
  -21.6864   -6.0725   22.5267 C   0  0  0  0  0  0
  -21.4013   -6.5622   23.8200 C   0  0  0  0  0  0
  -21.3668   -5.6780   24.9162 C   0  0  0  0  0  0
  -21.6047   -4.3042   24.7217 C   0  0  0  0  0  0
  -21.8826   -3.8131   23.4338 C   0  0  0  0  0  0
  -21.9195   -4.6950   22.3389 C   0  0  0  0  0  0
  -22.7851  -13.5223   21.1871 C   0  0  0  0  0  0
  -22.1669   -4.2132   21.0973 F   0  0  0  0  0  0
  -21.5645   -3.4535   25.7736 F   0  0  0  0  0  0
  -30.0115  -13.4146   20.4279 N   0  0  0  0  0  0
  -26.2994  -12.9382   20.3347 N   0  0  0  0  0  0
  -25.9346  -11.6530   20.5784 N   0  0  0  0  0  0
  -22.0498  -12.8213   22.0431 N   0  0  0  0  0  0
  -25.4155  -15.1863   20.3895 N   0  0  0  0  0  0
  -31.8107  -14.6951   20.0698 O   0  0  0  0  0  0
  -21.6651   -6.8876   21.4232 O   0  0  0  0  0  0
  -22.3531  -14.5526   20.6722 O   0  0  0  0  0  0
  -24.6221  -31.8607   23.2061 C   0  0  0  0  0  0
  -25.9082  -32.4785   23.8376 C   0  0  1  0  0  0
  -27.2220  -27.3538   20.1154 C   0  0  0  0  0  0
  -25.5894  -33.8579   24.2291 N   0  0  0  0  0  0
  -23.4140  -30.4851   21.5495 C   0  0  2  0  0  0
  -24.8611  -28.9436   20.1142 C   0  0  0  0  0  0
  -22.7456  -29.4611   22.4963 C   0  0  0  0  0  0
  -18.0279  -28.1371   22.8490 C   0  0  0  0  0  0
  -24.1491  -36.7306   23.2645 C   0  0  0  0  0  0
  -25.9504  -30.8055   21.3690 C   0  0  0  0  0  0
  -26.0285  -29.4349   20.7118 C   0  0  0  0  0  0
  -27.2175  -28.6528   20.6987 C   0  0  0  0  0  0
  -26.0361  -26.9003   19.5007 C   0  0  0  0  0  0
  -24.8634  -27.6794   19.5020 C   0  0  0  0  0  0
  -23.6264  -29.8196   20.1651 C   0  0  0  0  0  0
  -25.4106  -36.3081   24.0335 C   0  0  1  0  0  0
  -20.5878  -28.3656   23.1308 C   0  0  2  0  0  0
  -20.6770  -26.9385   22.5419 C   0  0  0  0  0  0
  -19.5742  -26.6376   21.5216 C   0  0  0  0  0  0
  -18.1921  -26.7922   22.1621 C   0  0  0  0  0  0
  -19.1533  -28.8829   23.2891 C   0  0  0  0  0  0
  -18.9456  -30.1436   23.8899 C   0  0  0  0  0  0
  -17.6455  -30.6584   24.0555 C   0  0  0  0  0  0
  -25.9035  -34.9447   23.5115 C   0  0  0  0  0  0
  -16.5345  -29.9081   23.6329 C   0  0  0  0  0  0
  -16.7267  -28.6494   23.0361 C   0  0  0  0  0  0
  -26.4484  -31.6591   25.0738 C   0  0  0  0  0  0
  -25.3735  -31.3678   26.1481 C   0  0  0  0  0  0
  -27.0343  -30.3026   24.6173 C   0  0  0  0  0  0
  -27.6054  -32.4332   25.7498 C   0  0  0  0  0  0
  -27.5586  -37.1791   24.8462 C   0  0  0  0  0  0
  -21.4178  -29.3016   22.3705 N   0  0  0  0  0  0
  -26.4290  -37.3773   23.9411 N   0  0  0  0  0  0
  -24.6816  -31.0657   22.0985 N   0  0  0  0  0  0
  -23.4195  -28.8136   23.3020 O   0  0  0  0  0  0
  -28.3488  -26.5349   20.1197 O   0  0  0  0  0  0
  -26.5612  -34.8916   22.4692 O   0  0  0  0  0  0
  -23.5391  -32.1393   23.7394 O   0  0  0  0  0  0
  -30.5638  -19.3638   19.4798 C   0  0  0  0  0  0
  -30.8280  -18.0221   19.8653 C   0  0  0  0  0  0
  -29.9005  -17.3210   20.7027 C   0  0  0  0  0  0
  -29.4084  -20.0467   19.9078 C   0  0  0  0  0  0
  -28.7655  -18.1115   21.0934 C   0  0  0  0  0  0
  -32.1312  -17.4359   19.3601 C   0  0  0  0  0  0
  -27.7070  -17.5856   22.0474 C   0  0  0  0  0  0
  -30.9653  -16.0438   22.6300 C   0  0  0  0  0  0
  -29.0666  -21.4709   19.3547 C   0  0  0  0  0  0
  -28.6619  -23.9770   19.6862 C   0  0  0  0  0  0
  -28.1957  -25.1594   20.6255 C   0  0  0  0  0  0
  -30.1238  -15.8746   21.3530 C   0  0  2  0  0  0
  -28.5310  -19.4045   20.7116 N   0  0  0  0  0  0
  -28.7646  -22.5920   20.3112 N   0  3  0  0  0  0
  -31.4645  -12.4886   19.1298 H   0  0  0  0  0  0
  -30.3471  -11.3929   19.8715 H   0  0  0  0  0  0
  -29.7591  -11.7778   17.4623 H   0  0  0  0  0  0
  -29.6459  -13.4981   17.7464 H   0  0  0  0  0  0
  -27.8553  -11.3096   18.8505 H   0  0  0  0  0  0
  -27.3629  -12.6070   17.7953 H   0  0  0  0  0  0
  -27.6809  -14.2674   19.5493 H   0  0  0  0  0  0
  -28.7200  -12.0198   21.3308 H   0  0  0  0  0  0
  -28.4364  -13.6293   21.8770 H   0  0  0  0  0  0
  -25.2765   -9.5695   22.4757 H   0  0  0  0  0  0
  -24.0008   -7.4643   22.7478 H   0  0  0  0  0  0
  -21.0847   -8.8793   19.8952 H   0  0  0  0  0  0
  -22.3709  -10.9686   19.6171 H   0  0  0  0  0  0
  -21.2000   -7.6131   23.9694 H   0  0  0  0  0  0
  -21.1486   -6.0511   25.9067 H   0  0  0  0  0  0
  -22.0595   -2.7591   23.2841 H   0  0  0  0  0  0
  -22.4110  -11.9863   22.4804 H   0  0  0  0  0  0
  -21.1110  -13.1233   22.2617 H   0  0  0  0  0  0
  -24.6364  -15.8303   20.4657 H   0  0  0  0  0  0
  -26.2420  -15.6111   19.9882 H   0  0  0  0  0  0
  -26.7152  -32.5479   23.1133 H   0  0  0  0  0  0
  -25.0006  -33.9718   25.0411 H   0  0  0  0  0  0
  -22.7060  -31.3034   21.4083 H   0  0  0  0  0  0
  -23.3751  -35.9645   23.3298 H   0  0  0  0  0  0
  -24.3569  -36.8951   22.2062 H   0  0  0  0  0  0
  -23.7258  -37.6510   23.6676 H   0  0  0  0  0  0
  -26.0746  -31.5728   20.6034 H   0  0  0  0  0  0
  -26.8323  -30.8564   21.9959 H   0  0  0  0  0  0
  -28.1201  -29.0251   21.1631 H   0  0  0  0  0  0
  -26.0084  -25.9326   19.0204 H   0  0  0  0  0  0
  -23.9657  -27.2992   19.0323 H   0  0  0  0  0  0
  -23.7421  -30.5955   19.4069 H   0  0  0  0  0  0
  -22.7469  -29.2457   19.8676 H   0  0  0  0  0  0
  -25.1282  -36.1941   25.0827 H   0  0  0  0  0  0
  -20.9950  -28.3243   24.1440 H   0  0  0  0  0  0
  -20.5682  -26.2255   23.3601 H   0  0  0  0  0  0
  -21.6639  -26.7434   22.1202 H   0  0  0  0  0  0
  -19.6906  -25.6288   21.1237 H   0  0  0  0  0  0
  -19.6700  -27.3188   20.6745 H   0  0  0  0  0  0
  -17.4193  -26.6668   21.4024 H   0  0  0  0  0  0
  -18.0313  -26.0059   22.9004 H   0  0  0  0  0  0
  -19.7930  -30.7241   24.2286 H   0  0  0  0  0  0
  -17.5021  -31.6274   24.5136 H   0  0  0  0  0  0
  -15.5341  -30.2979   23.7674 H   0  0  0  0  0  0
  -15.8667  -28.0815   22.7089 H   0  0  0  0  0  0
  -24.5952  -30.6978   25.7822 H   0  0  0  0  0  0
  -24.8858  -32.2798   26.4925 H   0  0  0  0  0  0
  -25.8099  -30.8873   27.0248 H   0  0  0  0  0  0
  -26.2914  -29.6734   24.1261 H   0  0  0  0  0  0
  -27.4136  -29.7326   25.4665 H   0  0  0  0  0  0
  -27.8729  -30.4341   23.9336 H   0  0  0  0  0  0
  -27.2706  -33.3660   26.2050 H   0  0  0  0  0  0
  -28.3874  -32.6843   25.0320 H   0  0  0  0  0  0
  -28.0711  -31.8473   26.5435 H   0  0  0  0  0  0
  -28.2572  -38.0120   24.7552 H   0  0  0  0  0  0
  -28.1121  -36.2646   24.6245 H   0  0  0  0  0  0
  -27.2298  -37.1410   25.8866 H   0  0  0  0  0  0
  -20.9353  -29.8746   21.6925 H   0  0  0  0  0  0
  -26.0179  -38.2848   24.1441 H   0  0  0  0  0  0
  -31.2565  -19.8768   18.8260 H   0  0  0  0  0  0
  -32.7595  -18.1967   18.8959 H   0  0  0  0  0  0
  -31.9362  -16.6862   18.5935 H   0  0  0  0  0  0
  -32.7124  -17.0061   20.1734 H   0  0  0  0  0  0
  -28.1384  -17.3879   23.0280 H   0  0  0  0  0  0
  -27.2601  -16.6696   21.6695 H   0  0  0  0  0  0
  -26.8945  -18.3007   22.1824 H   0  0  0  0  0  0
  -30.4763  -16.7079   23.3415 H   0  0  0  0  0  0
  -31.9468  -16.4633   22.4080 H   0  0  0  0  0  0
  -31.1222  -15.0897   23.1358 H   0  0  0  0  0  0
  -28.2213  -21.3604   18.6760 H   0  0  0  0  0  0
  -29.9000  -21.7912   18.7300 H   0  0  0  0  0  0
  -29.6403  -24.2316   19.2750 H   0  0  0  0  0  0
  -27.9805  -23.9219   18.8358 H   0  0  0  0  0  0
  -28.7912  -25.1163   21.5382 H   0  0  0  0  0  0
  -27.1722  -24.9720   20.9530 H   0  0  0  0  0  0
  -29.1472  -15.5610   21.6897 H   0  0  0  0  0  0
  -29.4852  -22.5861   21.0151 H   0  0  0  0  0  0
  -27.9043  -22.3418   20.7734 H   0  0  0  0  0  0
  1 25  1  0  0  0
  1 30  2  0  0  0
  1 82  1  0  0  0
  2  3  1  0  0  0
  2 25  1  0  0  0
  2 85  1  0  0  0
  2 86  1  0  0  0
  3  4  1  0  0  0
  3 87  1  0  0  0
  3 88  1  0  0  0
  4  5  1  0  0  0
  4 89  1  0  0  0
  4 90  1  0  0  0
  5  6  1  0  0  0
  5 26  1  0  0  0
  5 91  1  0  0  0
  6 25  1  0  0  0
  6 92  1  0  0  0
  6 93  1  0  0  0
  7  8  2  0  0  0
  7 26  1  0  0  0
  7 29  1  0  0  0
  8  9  1  0  0  0
  8 22  1  0  0  0
  9 10  1  0  0  0
  9 27  2  0  0  0
 10 11  2  0  0  0
 10 15  1  0  0  0
 11 12  1  0  0  0
 11 94  1  0  0  0
 12 13  2  0  0  0
 12 95  1  0  0  0
 13 14  1  0  0  0
 13 31  1  0  0  0
 14 15  2  0  0  0
 14 96  1  0  0  0
 15 97  1  0  0  0
 16 17  2  0  0  0
 16 21  1  0  0  0
 16 31  1  0  0  0
 17 18  1  0  0  0
 17 98  1  0  0  0
 18 19  2  0  0  0
 18 99  1  0  0  0
 19 20  1  0  0  0
 19 24  1  0  0  0
 20 21  2  0  0  0
 20100  1  0  0  0
 21 23  1  0  0  0
 22 28  1  0  0  0
 22 32  2  0  0  0
 26 27  1  0  0  0
 28101  1  0  0  0
 28102  1  0  0  0
 29103  1  0  0  0
 29104  1  0  0  0
 33 34  1  0  0  0
 33 66  1  0  0  0
 33 70  2  0  0  0
 34 36  1  0  0  0
 34 59  1  0  0  0
 34105  1  0  0  0
 35 44  2  0  0  0
 35 45  1  0  0  0
 35 68  1  0  0  0
 36 56  1  0  0  0
 36106  1  0  0  0
 37 39  1  0  0  0
 37 47  1  0  0  0
 37 66  1  0  0  0
 37107  1  0  0  0
 38 43  2  0  0  0
 38 46  1  0  0  0
 38 47  1  0  0  0
 39 64  1  0  0  0
 39 67  2  0  0  0
 40 52  1  0  0  0
 40 53  2  0  0  0
 40 58  1  0  0  0
 41108  1  0  0  0
 41109  1  0  0  0
 41110  1  0  0  0
 41 48  1  0  0  0
 42 43  1  0  0  0
 42 66  1  0  0  0
 42111  1  0  0  0
 42112  1  0  0  0
 43 44  1  0  0  0
 44113  1  0  0  0
 45 46  2  0  0  0
 45114  1  0  0  0
 46115  1  0  0  0
 47116  1  0  0  0
 47117  1  0  0  0
 48 56  1  0  0  0
 48 65  1  0  0  0
 48118  1  0  0  0
 49 50  1  0  0  0
 49 53  1  0  0  0
 49 64  1  0  0  0
 49119  1  0  0  0
 50 51  1  0  0  0
 50120  1  0  0  0
 50121  1  0  0  0
 51 52  1  0  0  0
 51122  1  0  0  0
 51123  1  0  0  0
 52124  1  0  0  0
 52125  1  0  0  0
 53 54  1  0  0  0
 54 55  2  0  0  0
 54126  1  0  0  0
 55 57  1  0  0  0
 55127  1  0  0  0
 56 69  2  0  0  0
 57 58  2  0  0  0
 57128  1  0  0  0
 58129  1  0  0  0
 59 60  1  0  0  0
 59 61  1  0  0  0
 59 62  1  0  0  0
 60130  1  0  0  0
 60131  1  0  0  0
 60132  1  0  0  0
 61133  1  0  0  0
 61134  1  0  0  0
 61135  1  0  0  0
 62136  1  0  0  0
 62137  1  0  0  0
 62138  1  0  0  0
 63 65  1  0  0  0
 63139  1  0  0  0
 63140  1  0  0  0
 63141  1  0  0  0
 64142  1  0  0  0
 65143  1  0  0  0
 68 81  1  0  0  0
 71 72  2  0  0  0
 71 74  1  0  0  0
 71144  1  0  0  0
 72 73  1  0  0  0
 72 76  1  0  0  0
 73 75  2  0  0  0
 73 82  1  0  0  0
 74 79  1  0  0  0
 74 83  2  0  0  0
 75 77  1  0  0  0
 75 83  1  0  0  0
 76145  1  0  0  0
 76146  1  0  0  0
 76147  1  0  0  0
 77148  1  0  0  0
 77149  1  0  0  0
 77150  1  0  0  0
 78151  1  0  0  0
 78152  1  0  0  0
 78153  1  0  0  0
 78 82  1  0  0  0
 79 84  1  0  0  0
 79154  1  0  0  0
 79155  1  0  0  0
 80 81  1  0  0  0
 80 84  1  0  0  0
 80156  1  0  0  0
 80157  1  0  0  0
 81158  1  0  0  0
 81159  1  0  0  0
 82160  1  0  0  0
 84161  1  0  0  0
 84162  1  0  0  0
M  CHG  1  84   1
M  ISO  4   1 100  68 101  81 101  82 100
M  END
> <chiral flag>
0

> <version>
0

> <s_m_source_file>
/data/baiqing/PycharmProjects/Reinvent-master-3.2/result/LINK_invent/BTK/process_docking_weight1_custom_sum_contain_oxygen_bond_distance_aromatic_linkinvent_7_9_3/rearranged_h_0104.sdf

> <i_m_source_file_index>
33

> <r_mmod_Potential_Energy-OPLS-2005>
-280.501037597656

> <r_mmod_Stretch_Energy-OPLS-2005>
80.5713043212891

> <r_mmod_Bend_Energy-OPLS-2005>
155.546234130859

> <r_mmod_Torsional_Energy-OPLS-2005>
188.471145629883

> <r_mmod_Improper_Torsional_Energy-OPLS-2005>
3.45712375640869

> <r_mmod_Van_der_Waal_Energy-OPLS-2005>
153.031021118164

> <r_mmod_Electrostatic_Energy-OPLS-2005>
-465.559783935547

> <r_mmod_Solvation_Energy-OPLS-2005>
-429.763549804688

> <b_mmod_Minimization_Converged-OPLS-2005>
0

> <r_mmod_RMS_Derivative-OPLS-2005>
2.15253734588623

$$$$
33
                    3D
 Structure written by MMmdl.
159167  0  0  1  0            999 V2000
  -30.5354  -14.9882   20.4014 C   0  0  0  0  0  0
  -30.4417  -12.6176   19.4886 C   0  0  0  0  0  0
  -29.5153  -12.5136   18.2552 C   0  0  0  0  0  0
  -28.0559  -12.2908   18.6922 C   0  0  0  0  0  0
  -27.6246  -13.2468   19.8333 C   0  0  2  0  0  0
  -28.6710  -13.3108   20.9643 C   0  0  0  0  0  0
  -25.2453  -13.8218   20.5728 C   0  0  0  0  0  0
  -24.1767  -13.0441   20.9244 C   0  0  0  0  0  0
  -24.6386  -11.6930   20.8764 C   0  0  0  0  0  0
  -23.9072  -10.4295   21.0418 C   0  0  0  0  0  0
  -24.3618   -9.4205   21.9194 C   0  0  0  0  0  0
  -23.6294   -8.2232   22.0749 C   0  0  0  0  0  0
  -22.4273   -8.0273   21.3543 C   0  0  0  0  0  0
  -21.9917   -9.0246   20.4639 C   0  0  0  0  0  0
  -22.7245  -10.2133   20.3064 C   0  0  0  0  0  0
  -21.6851   -6.0725   22.5273 C   0  0  0  0  0  0
  -21.4008   -6.5632   23.8206 C   0  0  0  0  0  0
  -21.3665   -5.6786   24.9171 C   0  0  0  0  0  0
  -21.6049   -4.3048   24.7221 C   0  0  0  0  0  0
  -21.8822   -3.8138   23.4342 C   0  0  0  0  0  0
  -21.9194   -4.6952   22.3398 C   0  0  0  0  0  0
  -22.7797  -13.5211   21.1900 C   0  0  0  0  0  0
  -22.1663   -4.2141   21.0977 F   0  0  0  0  0  0
  -21.5639   -3.4537   25.7738 F   0  0  0  0  0  0
  -29.9352  -13.7286   20.3444 N   0  0  0  0  0  0
  -26.2865  -12.9439   20.3263 N   0  0  0  0  0  0
  -25.9320  -11.6573   20.5773 N   0  0  0  0  0  0
  -22.0453  -12.8172   22.0444 N   0  0  0  0  0  0
  -25.4145  -15.1933   20.4144 N   0  0  0  0  0  0
  -31.7537  -15.0326   20.2032 O   0  0  0  0  0  0
  -21.6638   -6.8868   21.4235 O   0  0  0  0  0  0
  -22.3486  -14.5521   20.6763 O   0  0  0  0  0  0
  -24.6483  -31.8424   23.1856 C   0  0  0  0  0  0
  -25.9237  -32.4679   23.8255 C   0  0  1  0  0  0
  -27.2106  -27.1098   20.1394 C   0  0  0  0  0  0
  -25.5970  -33.8485   24.2176 N   0  0  0  0  0  0
  -23.4529  -30.4621   21.5340 C   0  0  2  0  0  0
  -24.8984  -28.8892   20.1055 C   0  0  0  0  0  0
  -22.7616  -29.4532   22.4856 C   0  0  0  0  0  0
  -18.0316  -28.1410   22.8458 C   0  0  0  0  0  0
  -24.1487  -36.7246   23.2644 C   0  0  0  0  0  0
  -26.0119  -30.7083   21.3857 C   0  0  0  0  0  0
  -26.0799  -29.3180   20.7235 C   0  0  0  0  0  0
  -27.2376  -28.4453   20.7212 C   0  0  0  0  0  0
  -26.0012  -26.7918   19.4829 C   0  0  0  0  0  0
  -24.8738  -27.6404   19.4701 C   0  0  0  0  0  0
  -23.6764  -29.7953   20.1525 C   0  0  0  0  0  0
  -25.4118  -36.3019   24.0319 C   0  0  1  0  0  0
  -20.5941  -28.3718   23.1230 C   0  0  2  0  0  0
  -20.6802  -26.9424   22.5405 C   0  0  0  0  0  0
  -19.5771  -26.6391   21.5211 C   0  0  0  0  0  0
  -18.1943  -26.7944   22.1610 C   0  0  0  0  0  0
  -19.1579  -28.8877   23.2817 C   0  0  0  0  0  0
  -18.9495  -30.1474   23.8844 C   0  0  0  0  0  0
  -17.6491  -30.6585   24.0556 C   0  0  0  0  0  0
  -25.9085  -34.9397   23.5059 C   0  0  0  0  0  0
  -16.5377  -29.9086   23.6340 C   0  0  0  0  0  0
  -16.7299  -28.6520   23.0326 C   0  0  0  0  0  0
  -26.4543  -31.6550   25.0710 C   0  0  0  0  0  0
  -25.3712  -31.3743   26.1396 C   0  0  0  0  0  0
  -27.0412  -30.2951   24.6285 C   0  0  0  0  0  0
  -27.6080  -32.4312   25.7484 C   0  0  0  0  0  0
  -27.5568  -37.1770   24.8469 C   0  0  0  0  0  0
  -21.4309  -29.3029   22.3597 N   0  0  0  0  0  0
  -26.4272  -37.3744   23.9426 N   0  0  0  0  0  0
  -24.7251  -31.0245   22.0907 N   0  0  0  0  0  0
  -23.4239  -28.8086   23.3019 O   0  0  0  0  0  0
  -28.2479  -26.0979   20.2052 O   0  0  0  0  0  0
  -26.5682  -34.8906   22.4646 O   0  0  0  0  0  0
  -23.5594  -32.1324   23.7048 O   0  0  0  0  0  0
  -27.4194  -20.5409   22.5522 C   0  0  0  0  0  0
  -27.6599  -21.8611   22.1097 C   0  0  0  0  0  0
  -28.4458  -21.7654   20.9726 C   0  0  0  0  0  0
  -25.6149  -23.2390   22.6728 C   0  0  0  0  0  0
  -30.2437  -23.6053   20.8143 C   0  0  0  0  0  0
  -27.1281  -23.0571   22.8647 C   0  0  0  0  0  0
  -29.4744  -19.1607   20.0409 C   0  0  0  0  0  0
  -30.1283  -17.7238   20.7168 C   0  0  0  0  0  0
  -27.9272  -24.5664   20.0544 C   0  0  0  0  0  0
  -28.9010  -23.1615   20.2253 C   0  0  1  0  0  0
  -28.0405  -19.6405   21.8402 N   0  0  0  0  0  0
  -28.7488  -20.2795   20.8843 N   0  0  0  0  0  0
  -29.7631  -16.1899   20.4753 N   0  0  0  0  0  0
  -31.4691  -12.7905   19.1639 H   0  0  0  0  0  0
  -30.4569  -11.6812   20.0479 H   0  0  0  0  0  0
  -29.8383  -11.6958   17.6104 H   0  0  0  0  0  0
  -29.5873  -13.4246   17.6592 H   0  0  0  0  0  0
  -27.9767  -11.2593   19.0389 H   0  0  0  0  0  0
  -27.3799  -12.3781   17.8418 H   0  0  0  0  0  0
  -27.5763  -14.2377   19.3812 H   0  0  0  0  0  0
  -28.7740  -12.3485   21.4667 H   0  0  0  0  0  0
  -28.3667  -14.0303   21.7267 H   0  0  0  0  0  0
  -25.2760   -9.5681   22.4778 H   0  0  0  0  0  0
  -23.9999   -7.4624   22.7474 H   0  0  0  0  0  0
  -21.0845   -8.8777   19.8936 H   0  0  0  0  0  0
  -22.3706  -10.9680   19.6174 H   0  0  0  0  0  0
  -21.1989   -7.6142   23.9706 H   0  0  0  0  0  0
  -21.1491   -6.0516   25.9074 H   0  0  0  0  0  0
  -22.0596   -2.7602   23.2847 H   0  0  0  0  0  0
  -22.4074  -11.9813   22.4790 H   0  0  0  0  0  0
  -21.1084  -13.1198   22.2696 H   0  0  0  0  0  0
  -24.6495  -15.8494   20.5244 H   0  0  0  0  0  0
  -26.2628  -15.6295   20.0774 H   0  0  0  0  0  0
  -26.7314  -32.5263   23.0985 H   0  0  0  0  0  0
  -25.0056  -33.9601   25.0280 H   0  0  0  0  0  0
  -22.7550  -31.2870   21.3824 H   0  0  0  0  0  0
  -23.3761  -35.9568   23.3294 H   0  0  0  0  0  0
  -24.3571  -36.8902   22.2062 H   0  0  0  0  0  0
  -23.7225  -37.6432   23.6699 H   0  0  0  0  0  0
  -26.1676  -31.4632   20.6132 H   0  0  0  0  0  0
  -26.8828  -30.7580   22.0279 H   0  0  0  0  0  0
  -28.1376  -28.7680   21.2238 H   0  0  0  0  0  0
  -25.8834  -25.8423   18.9840 H   0  0  0  0  0  0
  -23.9741  -27.3038   18.9728 H   0  0  0  0  0  0
  -23.8112  -30.5740   19.4011 H   0  0  0  0  0  0
  -22.7877  -29.2438   19.8403 H   0  0  0  0  0  0
  -25.1296  -36.1851   25.0813 H   0  0  0  0  0  0
  -20.9987  -28.3297   24.1369 H   0  0  0  0  0  0
  -20.5698  -26.2323   23.3626 H   0  0  0  0  0  0
  -21.6660  -26.7441   22.1183 H   0  0  0  0  0  0
  -19.6941  -25.6307   21.1230 H   0  0  0  0  0  0
  -19.6700  -27.3196   20.6745 H   0  0  0  0  0  0
  -17.4217  -26.6676   21.4013 H   0  0  0  0  0  0
  -18.0328  -26.0112   22.9034 H   0  0  0  0  0  0
  -19.7973  -30.7296   24.2177 H   0  0  0  0  0  0
  -17.5051  -31.6259   24.5179 H   0  0  0  0  0  0
  -15.5368  -30.2955   23.7719 H   0  0  0  0  0  0
  -15.8705  -28.0838   22.7032 H   0  0  0  0  0  0
  -24.5922  -30.7060   25.7712 H   0  0  0  0  0  0
  -24.8851  -32.2919   26.4731 H   0  0  0  0  0  0
  -25.7977  -30.8988   27.0235 H   0  0  0  0  0  0
  -26.3043  -29.6663   24.1286 H   0  0  0  0  0  0
  -27.4045  -29.7257   25.4846 H   0  0  0  0  0  0
  -27.8936  -30.4206   23.9603 H   0  0  0  0  0  0
  -27.2715  -33.3666   26.1972 H   0  0  0  0  0  0
  -28.3933  -32.6786   25.0325 H   0  0  0  0  0  0
  -28.0709  -31.8485   26.5464 H   0  0  0  0  0  0
  -28.2574  -38.0073   24.7526 H   0  0  0  0  0  0
  -28.1073  -36.2612   24.6281 H   0  0  0  0  0  0
  -27.2298  -37.1393   25.8872 H   0  0  0  0  0  0
  -20.9544  -29.8752   21.6775 H   0  0  0  0  0  0
  -26.0146  -38.2814   24.1444 H   0  0  0  0  0  0
  -26.8285  -20.2173   23.3987 H   0  0  0  0  0  0
  -25.2654  -24.1326   23.1888 H   0  0  0  0  0  0
  -25.0653  -22.3907   23.0817 H   0  0  0  0  0  0
  -25.3386  -23.3334   21.6234 H   0  0  0  0  0  0
  -30.6593  -24.4439   20.2555 H   0  0  0  0  0  0
  -30.9708  -22.7938   20.7817 H   0  0  0  0  0  0
  -30.1284  -23.9158   21.8529 H   0  0  0  0  0  0
  -27.6643  -23.9720   22.6224 H   0  0  0  0  0  0
  -27.3114  -22.9317   23.9324 H   0  0  0  0  0  0
  -28.7921  -18.8779   19.2393 H   0  0  0  0  0  0
  -30.2881  -19.6726   19.5245 H   0  0  0  0  0  0
  -30.0975  -17.8496   21.7986 H   0  0  0  0  0  0
  -31.1960  -17.7753   20.4938 H   0  0  0  0  0  0
  -27.5664  -24.4819   19.0294 H   0  0  0  0  0  0
  -27.0162  -24.4171   20.6220 H   0  0  0  0  0  0
  -29.1320  -22.8673   19.2020 H   0  0  0  0  0  0
  -28.7718  -16.0094   20.5183 H   0  0  0  0  0  0
  1 25  1  0  0  0
  1 30  2  0  0  0
  1 83  1  0  0  0
  2  3  1  0  0  0
  2 25  1  0  0  0
  2 84  1  0  0  0
  2 85  1  0  0  0
  3  4  1  0  0  0
  3 86  1  0  0  0
  3 87  1  0  0  0
  4  5  1  0  0  0
  4 88  1  0  0  0
  4 89  1  0  0  0
  5  6  1  0  0  0
  5 26  1  0  0  0
  5 90  1  0  0  0
  6 25  1  0  0  0
  6 91  1  0  0  0
  6 92  1  0  0  0
  7  8  2  0  0  0
  7 26  1  0  0  0
  7 29  1  0  0  0
  8  9  1  0  0  0
  8 22  1  0  0  0
  9 10  1  0  0  0
  9 27  2  0  0  0
 10 11  2  0  0  0
 10 15  1  0  0  0
 11 12  1  0  0  0
 11 93  1  0  0  0
 12 13  2  0  0  0
 12 94  1  0  0  0
 13 14  1  0  0  0
 13 31  1  0  0  0
 14 15  2  0  0  0
 14 95  1  0  0  0
 15 96  1  0  0  0
 16 17  2  0  0  0
 16 21  1  0  0  0
 16 31  1  0  0  0
 17 18  1  0  0  0
 17 97  1  0  0  0
 18 19  2  0  0  0
 18 98  1  0  0  0
 19 20  1  0  0  0
 19 24  1  0  0  0
 20 21  2  0  0  0
 20 99  1  0  0  0
 21 23  1  0  0  0
 22 28  1  0  0  0
 22 32  2  0  0  0
 26 27  1  0  0  0
 28100  1  0  0  0
 28101  1  0  0  0
 29102  1  0  0  0
 29103  1  0  0  0
 33 34  1  0  0  0
 33 66  1  0  0  0
 33 70  2  0  0  0
 34 36  1  0  0  0
 34 59  1  0  0  0
 34104  1  0  0  0
 35 44  2  0  0  0
 35 45  1  0  0  0
 35 68  1  0  0  0
 36 56  1  0  0  0
 36105  1  0  0  0
 37 39  1  0  0  0
 37 47  1  0  0  0
 37 66  1  0  0  0
 37106  1  0  0  0
 38 43  2  0  0  0
 38 46  1  0  0  0
 38 47  1  0  0  0
 39 64  1  0  0  0
 39 67  2  0  0  0
 40 52  1  0  0  0
 40 53  2  0  0  0
 40 58  1  0  0  0
 41107  1  0  0  0
 41108  1  0  0  0
 41109  1  0  0  0
 41 48  1  0  0  0
 42 43  1  0  0  0
 42 66  1  0  0  0
 42110  1  0  0  0
 42111  1  0  0  0
 43 44  1  0  0  0
 44112  1  0  0  0
 45 46  2  0  0  0
 45113  1  0  0  0
 46114  1  0  0  0
 47115  1  0  0  0
 47116  1  0  0  0
 48 56  1  0  0  0
 48 65  1  0  0  0
 48117  1  0  0  0
 49 50  1  0  0  0
 49 53  1  0  0  0
 49 64  1  0  0  0
 49118  1  0  0  0
 50 51  1  0  0  0
 50119  1  0  0  0
 50120  1  0  0  0
 51 52  1  0  0  0
 51121  1  0  0  0
 51122  1  0  0  0
 52123  1  0  0  0
 52124  1  0  0  0
 53 54  1  0  0  0
 54 55  2  0  0  0
 54125  1  0  0  0
 55 57  1  0  0  0
 55126  1  0  0  0
 56 69  2  0  0  0
 57 58  2  0  0  0
 57127  1  0  0  0
 58128  1  0  0  0
 59 60  1  0  0  0
 59 61  1  0  0  0
 59 62  1  0  0  0
 60129  1  0  0  0
 60130  1  0  0  0
 60131  1  0  0  0
 61132  1  0  0  0
 61133  1  0  0  0
 61134  1  0  0  0
 62135  1  0  0  0
 62136  1  0  0  0
 62137  1  0  0  0
 63 65  1  0  0  0
 63138  1  0  0  0
 63139  1  0  0  0
 63140  1  0  0  0
 64141  1  0  0  0
 65142  1  0  0  0
 68 79  1  0  0  0
 71 72  1  0  0  0
 71 81  2  0  0  0
 71143  1  0  0  0
 72 73  2  0  0  0
 72 76  1  0  0  0
 73 80  1  0  0  0
 73 82  1  0  0  0
 74 76  1  0  0  0
 74144  1  0  0  0
 74145  1  0  0  0
 74146  1  0  0  0
 75147  1  0  0  0
 75148  1  0  0  0
 75149  1  0  0  0
 75 80  1  0  0  0
 76150  1  0  0  0
 76151  1  0  0  0
 77 78  1  0  0  0
 77 82  1  0  0  0
 77152  1  0  0  0
 77153  1  0  0  0
 78 83  1  0  0  0
 78154  1  0  0  0
 78155  1  0  0  0
 79 80  1  0  0  0
 79156  1  0  0  0
 79157  1  0  0  0
 80158  1  0  0  0
 81 82  1  0  0  0
 83159  1  0  0  0
M  ISO  4   1 100  68 101  79 101  83 100
M  END
> <chiral flag>
0

> <version>
0

> <s_m_source_file>
/data/baiqing/PycharmProjects/Reinvent-master-3.2/result/LINK_invent/BTK/process_docking_weight1_custom_sum_contain_oxygen_bond_distance_aromatic_linkinvent_7_9_3/rearranged_h_0104.sdf

> <i_m_source_file_index>
34

> <r_mmod_Potential_Energy-OPLS-2005>
669.989318847656

> <r_mmod_Stretch_Energy-OPLS-2005>
321.053802490234

> <r_mmod_Bend_Energy-OPLS-2005>
340.406158447266

> <r_mmod_Torsional_Energy-OPLS-2005>
253.447845458984

> <r_mmod_Improper_Torsional_Energy-OPLS-2005>
5.22068214416504

> <r_mmod_Van_der_Waal_Energy-OPLS-2005>
110.307144165039

> <r_mmod_Electrostatic_Energy-OPLS-2005>
-367.217071533203

> <r_mmod_Solvation_Energy-OPLS-2005>
-216.882873535156

> <b_mmod_Minimization_Converged-OPLS-2005>
0

> <r_mmod_RMS_Derivative-OPLS-2005>
2.21014356613159

$$$$
34
                    3D
 Structure written by MMmdl.
155162  0  0  1  0            999 V2000
  -30.4981  -14.9665   20.4247 C   0  0  0  0  0  0
  -30.4518  -12.6061   19.4735 C   0  0  0  0  0  0
  -29.5196  -12.5249   18.2416 C   0  0  0  0  0  0
  -28.0539  -12.3040   18.6682 C   0  0  0  0  0  0
  -27.6274  -13.2384   19.8298 C   0  0  2  0  0  0
  -28.6754  -13.2614   20.9599 C   0  0  0  0  0  0
  -25.2468  -13.8186   20.5700 C   0  0  0  0  0  0
  -24.1782  -13.0423   20.9234 C   0  0  0  0  0  0
  -24.6388  -11.6905   20.8759 C   0  0  0  0  0  0
  -23.9070  -10.4282   21.0415 C   0  0  0  0  0  0
  -24.3621   -9.4196   21.9190 C   0  0  0  0  0  0
  -23.6292   -8.2234   22.0757 C   0  0  0  0  0  0
  -22.4274   -8.0276   21.3544 C   0  0  0  0  0  0
  -21.9913   -9.0251   20.4647 C   0  0  0  0  0  0
  -22.7245  -10.2127   20.3059 C   0  0  0  0  0  0
  -21.6852   -6.0732   22.5278 C   0  0  0  0  0  0
  -21.4013   -6.5638   23.8211 C   0  0  0  0  0  0
  -21.3658   -5.6792   24.9174 C   0  0  0  0  0  0
  -21.6045   -4.3055   24.7226 C   0  0  0  0  0  0
  -21.8819   -3.8145   23.4347 C   0  0  0  0  0  0
  -21.9192   -4.6960   22.3403 C   0  0  0  0  0  0
  -22.7805  -13.5203   21.1888 C   0  0  0  0  0  0
  -22.1661   -4.2146   21.0980 F   0  0  0  0  0  0
  -21.5629   -3.4539   25.7739 F   0  0  0  0  0  0
  -29.9392  -13.6935   20.3489 N   0  0  0  0  0  0
  -26.2877  -12.9396   20.3210 N   0  0  0  0  0  0
  -25.9315  -11.6539   20.5727 N   0  0  0  0  0  0
  -22.0453  -12.8191   22.0440 N   0  0  0  0  0  0
  -25.4120  -15.1918   20.4112 N   0  0  0  0  0  0
  -31.7195  -15.0690   20.2697 O   0  0  0  0  0  0
  -21.6637   -6.8875   21.4240 O   0  0  0  0  0  0
  -22.3494  -14.5508   20.6729 O   0  0  0  0  0  0
  -24.6431  -31.8426   23.1851 C   0  0  0  0  0  0
  -25.9200  -32.4687   23.8249 C   0  0  1  0  0  0
  -27.2252  -27.1239   20.1765 C   0  0  0  0  0  0
  -25.5944  -33.8492   24.2168 N   0  0  0  0  0  0
  -23.4469  -30.4573   21.5320 C   0  0  2  0  0  0
  -24.8956  -28.8637   20.1293 C   0  0  0  0  0  0
  -22.7557  -29.4539   22.4882 C   0  0  0  0  0  0
  -18.0301  -28.1393   22.8480 C   0  0  0  0  0  0
  -24.1492  -36.7256   23.2643 C   0  0  0  0  0  0
  -26.0005  -30.7133   21.3821 C   0  0  0  0  0  0
  -26.0723  -29.3157   20.7402 C   0  0  0  0  0  0
  -27.2400  -28.4652   20.7359 C   0  0  0  0  0  0
  -26.0192  -26.7577   19.5473 C   0  0  0  0  0  0
  -24.8801  -27.5969   19.5200 C   0  0  0  0  0  0
  -23.6752  -29.7723   20.1575 C   0  0  0  0  0  0
  -25.4123  -36.3025   24.0312 C   0  0  1  0  0  0
  -20.5910  -28.3717   23.1246 C   0  0  2  0  0  0
  -20.6787  -26.9423   22.5408 C   0  0  0  0  0  0
  -19.5762  -26.6380   21.5214 C   0  0  0  0  0  0
  -18.1941  -26.7932   22.1623 C   0  0  0  0  0  0
  -19.1556  -28.8873   23.2855 C   0  0  0  0  0  0
  -18.9474  -30.1471   23.8878 C   0  0  0  0  0  0
  -17.6471  -30.6592   24.0558 C   0  0  0  0  0  0
  -25.9074  -34.9403   23.5053 C   0  0  0  0  0  0
  -16.5362  -29.9084   23.6336 C   0  0  0  0  0  0
  -16.7286  -28.6502   23.0357 C   0  0  0  0  0  0
  -26.4520  -31.6561   25.0697 C   0  0  0  0  0  0
  -25.3705  -31.3746   26.1394 C   0  0  0  0  0  0
  -27.0391  -30.2962   24.6273 C   0  0  0  0  0  0
  -27.6046  -32.4333   25.7485 C   0  0  0  0  0  0
  -27.5576  -37.1777   24.8461 C   0  0  0  0  0  0
  -21.4251  -29.3044   22.3623 N   0  0  0  0  0  0
  -26.4283  -37.3741   23.9410 N   0  0  0  0  0  0
  -24.7168  -31.0272   22.0886 N   0  0  0  0  0  0
  -23.4196  -28.8103   23.3049 O   0  0  0  0  0  0
  -28.3470  -26.2342   20.0533 O   0  0  0  0  0  0
  -26.5668  -34.8906   22.4636 O   0  0  0  0  0  0
  -23.5549  -32.1305   23.7070 O   0  0  0  0  0  0
  -26.8535  -23.0113   21.0916 C   0  0  0  0  0  0
  -27.6637  -20.1551   19.2092 C   0  0  0  0  0  0
  -29.5627  -17.6076   20.9437 C   0  0  0  0  0  0
  -29.6930  -19.0701   20.0988 C   0  0  0  0  0  0
  -29.1472  -21.8440   20.3857 C   0  0  0  0  0  0
  -28.6025  -24.8025   20.6277 C   0  0  0  0  0  0
  -28.1268  -23.2181   20.2460 C   0  0  2  0  0  0
  -29.6309  -16.0963   20.4432 N   0  0  0  0  0  0
  -28.6910  -20.3104   20.2693 N   0  3  1  0  0  0
  -27.7513  -23.2511   18.9665 F   0  0  0  0  0  0
  -31.4767  -12.8009   19.1534 H   0  0  0  0  0  0
  -30.4763  -11.6563   20.0103 H   0  0  0  0  0  0
  -29.8411  -11.7232   17.5754 H   0  0  0  0  0  0
  -29.5951  -13.4492   17.6665 H   0  0  0  0  0  0
  -27.9573  -11.2640   18.9819 H   0  0  0  0  0  0
  -27.3862  -12.4273   17.8147 H   0  0  0  0  0  0
  -27.5875  -14.2385   19.3984 H   0  0  0  0  0  0
  -28.7759  -12.2802   21.4262 H   0  0  0  0  0  0
  -28.3752  -13.9514   21.7507 H   0  0  0  0  0  0
  -25.2764   -9.5670   22.4768 H   0  0  0  0  0  0
  -23.9997   -7.4624   22.7478 H   0  0  0  0  0  0
  -21.0844   -8.8772   19.8954 H   0  0  0  0  0  0
  -22.3705  -10.9669   19.6170 H   0  0  0  0  0  0
  -21.2005   -7.6146   23.9713 H   0  0  0  0  0  0
  -21.1481   -6.0523   25.9076 H   0  0  0  0  0  0
  -22.0600   -2.7607   23.2849 H   0  0  0  0  0  0
  -22.4073  -11.9851   22.4822 H   0  0  0  0  0  0
  -21.1068  -13.1210   22.2648 H   0  0  0  0  0  0
  -24.6355  -15.8354   20.5193 H   0  0  0  0  0  0
  -26.2400  -15.6346   20.0380 H   0  0  0  0  0  0
  -26.7265  -32.5294   23.0978 H   0  0  0  0  0  0
  -25.0059  -33.9600   25.0294 H   0  0  0  0  0  0
  -22.7503  -31.2824   21.3700 H   0  0  0  0  0  0
  -23.3758  -35.9583   23.3285 H   0  0  0  0  0  0
  -24.3577  -36.8913   22.2063 H   0  0  0  0  0  0
  -23.7245  -37.6443   23.6700 H   0  0  0  0  0  0
  -26.1488  -31.4594   20.6002 H   0  0  0  0  0  0
  -26.8739  -30.7747   22.0200 H   0  0  0  0  0  0
  -28.1532  -28.8251   21.1888 H   0  0  0  0  0  0
  -25.9599  -25.7934   19.0618 H   0  0  0  0  0  0
  -23.9813  -27.2455   19.0318 H   0  0  0  0  0  0
  -23.8175  -30.5385   19.3945 H   0  0  0  0  0  0
  -22.7894  -29.2141   19.8489 H   0  0  0  0  0  0
  -25.1311  -36.1846   25.0803 H   0  0  0  0  0  0
  -20.9996  -28.3308   24.1369 H   0  0  0  0  0  0
  -20.5683  -26.2330   23.3624 H   0  0  0  0  0  0
  -21.6654  -26.7434   22.1204 H   0  0  0  0  0  0
  -19.6924  -25.6285   21.1258 H   0  0  0  0  0  0
  -19.6700  -27.3180   20.6736 H   0  0  0  0  0  0
  -17.4211  -26.6681   21.4024 H   0  0  0  0  0  0
  -18.0338  -26.0075   22.9020 H   0  0  0  0  0  0
  -19.7952  -30.7291   24.2239 H   0  0  0  0  0  0
  -17.5026  -31.6270   24.5163 H   0  0  0  0  0  0
  -15.5362  -30.2978   23.7672 H   0  0  0  0  0  0
  -15.8687  -28.0814   22.7083 H   0  0  0  0  0  0
  -24.5896  -30.7082   25.7713 H   0  0  0  0  0  0
  -24.8879  -32.2925   26.4761 H   0  0  0  0  0  0
  -25.7988  -30.8961   27.0210 H   0  0  0  0  0  0
  -26.3007  -29.6677   24.1284 H   0  0  0  0  0  0
  -27.4014  -29.7268   25.4842 H   0  0  0  0  0  0
  -27.8905  -30.4204   23.9578 H   0  0  0  0  0  0
  -27.2638  -33.3658   26.1997 H   0  0  0  0  0  0
  -28.3891  -32.6854   25.0339 H   0  0  0  0  0  0
  -28.0677  -31.8504   26.5457 H   0  0  0  0  0  0
  -28.2566  -38.0099   24.7528 H   0  0  0  0  0  0
  -28.1097  -36.2627   24.6261 H   0  0  0  0  0  0
  -27.2295  -37.1390   25.8862 H   0  0  0  0  0  0
  -20.9470  -29.8746   21.6787 H   0  0  0  0  0  0
  -26.0146  -38.2803   24.1431 H   0  0  0  0  0  0
  -27.0966  -22.9952   22.1544 H   0  0  0  0  0  0
  -26.3163  -22.0926   20.8805 H   0  0  0  0  0  0
  -26.1493  -23.8293   20.9353 H   0  0  0  0  0  0
  -27.2645  -19.1401   19.2065 H   0  0  0  0  0  0
  -28.0983  -20.3434   18.2268 H   0  0  0  0  0  0
  -26.8131  -20.8201   19.3117 H   0  0  0  0  0  0
  -28.5986  -17.6584   21.4501 H   0  0  0  0  0  0
  -30.2793  -17.6666   21.7642 H   0  0  0  0  0  0
  -29.7809  -18.8383   19.0368 H   0  0  0  0  0  0
  -30.6778  -19.4663   20.3474 H   0  0  0  0  0  0
  -29.6543  -21.9226   21.3474 H   0  0  0  0  0  0
  -29.9397  -21.9769   19.6490 H   0  0  0  0  0  0
  -29.6852  -24.7465   20.5155 H   0  0  0  0  0  0
  -28.4817  -24.9166   21.7055 H   0  0  0  0  0  0
  -28.6925  -15.7562   20.3006 H   0  0  0  0  0  0
  -28.2109  -20.1386   21.1398 H   0  0  0  0  0  0
  1 25  1  0  0  0
  1 30  2  0  0  0
  1 78  1  0  0  0
  2  3  1  0  0  0
  2 25  1  0  0  0
  2 81  1  0  0  0
  2 82  1  0  0  0
  3  4  1  0  0  0
  3 83  1  0  0  0
  3 84  1  0  0  0
  4  5  1  0  0  0
  4 85  1  0  0  0
  4 86  1  0  0  0
  5  6  1  0  0  0
  5 26  1  0  0  0
  5 87  1  0  0  0
  6 25  1  0  0  0
  6 88  1  0  0  0
  6 89  1  0  0  0
  7  8  2  0  0  0
  7 26  1  0  0  0
  7 29  1  0  0  0
  8  9  1  0  0  0
  8 22  1  0  0  0
  9 10  1  0  0  0
  9 27  2  0  0  0
 10 11  2  0  0  0
 10 15  1  0  0  0
 11 12  1  0  0  0
 11 90  1  0  0  0
 12 13  2  0  0  0
 12 91  1  0  0  0
 13 14  1  0  0  0
 13 31  1  0  0  0
 14 15  2  0  0  0
 14 92  1  0  0  0
 15 93  1  0  0  0
 16 17  2  0  0  0
 16 21  1  0  0  0
 16 31  1  0  0  0
 17 18  1  0  0  0
 17 94  1  0  0  0
 18 19  2  0  0  0
 18 95  1  0  0  0
 19 20  1  0  0  0
 19 24  1  0  0  0
 20 21  2  0  0  0
 20 96  1  0  0  0
 21 23  1  0  0  0
 22 28  1  0  0  0
 22 32  2  0  0  0
 26 27  1  0  0  0
 28 97  1  0  0  0
 28 98  1  0  0  0
 29 99  1  0  0  0
 29100  1  0  0  0
 33 34  1  0  0  0
 33 66  1  0  0  0
 33 70  2  0  0  0
 34 36  1  0  0  0
 34 59  1  0  0  0
 34101  1  0  0  0
 35 44  2  0  0  0
 35 45  1  0  0  0
 35 68  1  0  0  0
 36 56  1  0  0  0
 36102  1  0  0  0
 37 39  1  0  0  0
 37 47  1  0  0  0
 37 66  1  0  0  0
 37103  1  0  0  0
 38 43  2  0  0  0
 38 46  1  0  0  0
 38 47  1  0  0  0
 39 64  1  0  0  0
 39 67  2  0  0  0
 40 52  1  0  0  0
 40 53  2  0  0  0
 40 58  1  0  0  0
 41104  1  0  0  0
 41105  1  0  0  0
 41106  1  0  0  0
 41 48  1  0  0  0
 42 43  1  0  0  0
 42 66  1  0  0  0
 42107  1  0  0  0
 42108  1  0  0  0
 43 44  1  0  0  0
 44109  1  0  0  0
 45 46  2  0  0  0
 45110  1  0  0  0
 46111  1  0  0  0
 47112  1  0  0  0
 47113  1  0  0  0
 48 56  1  0  0  0
 48 65  1  0  0  0
 48114  1  0  0  0
 49 50  1  0  0  0
 49 53  1  0  0  0
 49 64  1  0  0  0
 49115  1  0  0  0
 50 51  1  0  0  0
 50116  1  0  0  0
 50117  1  0  0  0
 51 52  1  0  0  0
 51118  1  0  0  0
 51119  1  0  0  0
 52120  1  0  0  0
 52121  1  0  0  0
 53 54  1  0  0  0
 54 55  2  0  0  0
 54122  1  0  0  0
 55 57  1  0  0  0
 55123  1  0  0  0
 56 69  2  0  0  0
 57 58  2  0  0  0
 57124  1  0  0  0
 58125  1  0  0  0
 59 60  1  0  0  0
 59 61  1  0  0  0
 59 62  1  0  0  0
 60126  1  0  0  0
 60127  1  0  0  0
 60128  1  0  0  0
 61129  1  0  0  0
 61130  1  0  0  0
 61131  1  0  0  0
 62132  1  0  0  0
 62133  1  0  0  0
 62134  1  0  0  0
 63 65  1  0  0  0
 63135  1  0  0  0
 63136  1  0  0  0
 63137  1  0  0  0
 64138  1  0  0  0
 65139  1  0  0  0
 68 76  1  0  0  0
 71140  1  0  0  0
 71141  1  0  0  0
 71142  1  0  0  0
 71 77  1  0  0  0
 72143  1  0  0  0
 72144  1  0  0  0
 72145  1  0  0  0
 72 79  1  0  0  0
 73 74  1  0  0  0
 73 78  1  0  0  0
 73146  1  0  0  0
 73147  1  0  0  0
 74 79  1  0  0  0
 74148  1  0  0  0
 74149  1  0  0  0
 75 77  1  0  0  0
 75 79  1  0  0  0
 75150  1  0  0  0
 75151  1  0  0  0
 76 77  1  0  0  0
 76152  1  0  0  0
 76153  1  0  0  0
 77 80  1  0  0  0
 78154  1  0  0  0
 79155  1  0  0  0
M  CHG  1  79   1
M  ISO  4   1 100  68 101  76 101  78 100
M  END
> <chiral flag>
0

> <version>
0

> <s_m_source_file>
/data/baiqing/PycharmProjects/Reinvent-master-3.2/result/LINK_invent/BTK/process_docking_weight1_custom_sum_contain_oxygen_bond_distance_aromatic_linkinvent_7_9_3/rearranged_h_0104.sdf

> <i_m_source_file_index>
35

> <r_mmod_Potential_Energy-OPLS-2005>
510.377746582031

> <r_mmod_Stretch_Energy-OPLS-2005>
293.436218261719

> <r_mmod_Bend_Energy-OPLS-2005>
363.548583984375

> <r_mmod_Torsional_Energy-OPLS-2005>
296.816711425781

> <r_mmod_Improper_Torsional_Energy-OPLS-2005>
6.75273656845093

> <r_mmod_Van_der_Waal_Energy-OPLS-2005>
108.530937194824

> <r_mmod_Electrostatic_Energy-OPLS-2005>
-281.558013916016

> <r_mmod_Solvation_Energy-OPLS-2005>
-473.079315185547

> <b_mmod_Minimization_Converged-OPLS-2005>
0

> <r_mmod_RMS_Derivative-OPLS-2005>
0.338214665651321

$$$$
35
                    3D
 Structure written by MMmdl.
174182  0  0  1  0            999 V2000
  -30.6901  -14.5180   20.6412 C   0  0  0  0  0  0
  -30.4425  -12.3610   19.4309 C   0  0  0  0  0  0
  -29.5021  -12.5373   18.2162 C   0  0  0  0  0  0
  -28.0163  -12.3938   18.6111 C   0  0  0  0  0  0
  -27.6631  -13.2031   19.8851 C   0  0  2  0  0  0
  -28.7051  -12.9079   20.9798 C   0  0  0  0  0  0
  -25.2581  -13.8166   20.5713 C   0  0  0  0  0  0
  -24.1825  -13.0473   20.9203 C   0  0  0  0  0  0
  -24.6361  -11.6921   20.8766 C   0  0  0  0  0  0
  -23.9025  -10.4291   21.0396 C   0  0  0  0  0  0
  -24.3594   -9.4196   21.9150 C   0  0  0  0  0  0
  -23.6271   -8.2237   22.0737 C   0  0  0  0  0  0
  -22.4253   -8.0284   21.3514 C   0  0  0  0  0  0
  -21.9883   -9.0252   20.4627 C   0  0  0  0  0  0
  -22.7200  -10.2128   20.3034 C   0  0  0  0  0  0
  -21.6826   -6.0754   22.5285 C   0  0  0  0  0  0
  -21.3977   -6.5656   23.8226 C   0  0  0  0  0  0
  -21.3658   -5.6806   24.9176 C   0  0  0  0  0  0
  -21.6074   -4.3083   24.7225 C   0  0  0  0  0  0
  -21.8815   -3.8168   23.4342 C   0  0  0  0  0  0
  -21.9165   -4.6989   22.3393 C   0  0  0  0  0  0
  -22.7836  -13.5249   21.1921 C   0  0  0  0  0  0
  -22.1650   -4.2180   21.0970 F   0  0  0  0  0  0
  -21.5628   -3.4554   25.7735 F   0  0  0  0  0  0
  -30.0298  -13.3231   20.4739 N   0  0  0  0  0  0
  -26.3021  -12.9325   20.3426 N   0  0  0  0  0  0
  -25.9281  -11.6487   20.5808 N   0  0  0  0  0  0
  -22.0478  -12.8186   22.0440 N   0  0  0  0  0  0
  -25.4374  -15.1883   20.4050 N   0  0  0  0  0  0
  -31.7839  -14.7120   20.0961 O   0  0  0  0  0  0
  -21.6616   -6.8888   21.4237 O   0  0  0  0  0  0
  -22.3511  -14.5562   20.6775 O   0  0  0  0  0  0
  -24.6188  -31.8666   23.2140 C   0  0  0  0  0  0
  -25.9080  -32.4828   23.8405 C   0  0  1  0  0  0
  -27.2348  -27.4295   20.0590 C   0  0  0  0  0  0
  -25.5955  -33.8634   24.2347 N   0  0  0  0  0  0
  -23.4033  -30.4950   21.5565 C   0  0  2  0  0  0
  -24.8454  -28.9625   20.1200 C   0  0  0  0  0  0
  -22.7408  -29.4684   22.5024 C   0  0  0  0  0  0
  -18.0284  -28.1363   22.8489 C   0  0  0  0  0  0
  -24.1494  -36.7318   23.2630 C   0  0  0  0  0  0
  -25.9377  -30.8267   21.3705 C   0  0  0  0  0  0
  -26.0136  -29.4657   20.7067 C   0  0  0  0  0  0
  -27.2101  -28.7096   20.6691 C   0  0  0  0  0  0
  -26.0310  -26.9324   19.5018 C   0  0  0  0  0  0
  -24.8503  -27.6943   19.5235 C   0  0  0  0  0  0
  -23.6089  -29.8326   20.1705 C   0  0  0  0  0  0
  -25.4111  -36.3118   24.0337 C   0  0  1  0  0  0
  -20.5875  -28.3674   23.1323 C   0  0  2  0  0  0
  -20.6806  -26.9414   22.5425 C   0  0  0  0  0  0
  -19.5782  -26.6390   21.5221 C   0  0  0  0  0  0
  -18.1943  -26.7908   22.1611 C   0  0  0  0  0  0
  -19.1525  -28.8826   23.2903 C   0  0  0  0  0  0
  -18.9442  -30.1433   23.8925 C   0  0  0  0  0  0
  -17.6456  -30.6581   24.0553 C   0  0  0  0  0  0
  -25.9047  -34.9483   23.5135 C   0  0  0  0  0  0
  -16.5351  -29.9081   23.6330 C   0  0  0  0  0  0
  -16.7267  -28.6492   23.0357 C   0  0  0  0  0  0
  -26.4512  -31.6601   25.0734 C   0  0  0  0  0  0
  -25.3775  -31.3715   26.1484 C   0  0  0  0  0  0
  -27.0340  -30.3025   24.6142 C   0  0  0  0  0  0
  -27.6087  -32.4318   25.7506 C   0  0  0  0  0  0
  -27.5593  -37.1824   24.8464 C   0  0  0  0  0  0
  -21.4132  -29.3055   22.3742 N   0  0  0  0  0  0
  -26.4310  -37.3799   23.9399 N   0  0  0  0  0  0
  -24.6712  -31.0760   22.1052 N   0  0  0  0  0  0
  -23.4177  -28.8232   23.3052 O   0  0  0  0  0  0
  -28.4250  -26.7152   20.0067 O   0  0  0  0  0  0
  -26.5583  -34.8923   22.4687 O   0  0  0  0  0  0
  -23.5379  -32.1458   23.7526 O   0  0  0  0  0  0
  -30.3961  -17.2150   19.1944 C   0  0  0  0  0  0
  -29.9496  -18.5107   18.4365 C   0  0  0  0  0  0
  -30.2683  -18.1493   21.5008 C   0  0  0  0  0  0
  -29.2150  -19.2832   21.5645 C   0  0  0  0  0  0
  -29.8066  -16.9499   20.6157 C   0  0  2  0  0  0
  -29.7260  -19.8997   19.1440 C   0  0  2  0  0  0
  -32.2925  -20.3356   18.9445 C   0  0  0  0  0  0
  -30.7047  -25.1126   20.6908 C   0  0  0  0  0  0
  -29.4334  -15.4302   22.5648 C   0  0  0  0  0  0
  -30.8207  -22.3581   19.0621 C   0  0  0  0  0  0
  -28.3728  -25.3174   19.6544 C   0  0  0  0  0  0
  -30.9450  -20.8500   19.5007 C   0  0  1  0  0  0
  -29.7691  -24.6256   19.5652 C   0  0  2  0  0  0
  -30.0008  -15.5690   21.2073 N   0  0  0  0  0  0
  -28.7306  -19.7517   20.2391 N   0  3  0  0  0  0
  -29.6451  -23.1296   19.5728 N   0  3  0  0  0  0
  -31.4788  -12.5026   19.1265 H   0  0  0  0  0  0
  -30.3989  -11.3395   19.8094 H   0  0  0  0  0  0
  -29.7466  -11.8124   17.4384 H   0  0  0  0  0  0
  -29.6612  -13.5227   17.7762 H   0  0  0  0  0  0
  -27.8062  -11.3370   18.7778 H   0  0  0  0  0  0
  -27.3797  -12.6999   17.7797 H   0  0  0  0  0  0
  -27.7295  -14.2601   19.6320 H   0  0  0  0  0  0
  -28.7213  -11.8348   21.1792 H   0  0  0  0  0  0
  -28.4037  -13.3156   21.9334 H   0  0  0  0  0  0
  -25.2731   -9.5692   22.4731 H   0  0  0  0  0  0
  -24.0009   -7.4616   22.7416 H   0  0  0  0  0  0
  -21.0841   -8.8728   19.8889 H   0  0  0  0  0  0
  -22.3625  -10.9678   19.6162 H   0  0  0  0  0  0
  -21.1947   -7.6163   23.9730 H   0  0  0  0  0  0
  -21.1493   -6.0538   25.9092 H   0  0  0  0  0  0
  -22.0578   -2.7637   23.2821 H   0  0  0  0  0  0
  -22.4077  -11.9823   22.4795 H   0  0  0  0  0  0
  -21.1088  -13.1156   22.2684 H   0  0  0  0  0  0
  -24.6764  -15.8543   20.4848 H   0  0  0  0  0  0
  -26.3051  -15.6043   20.0942 H   0  0  0  0  0  0
  -26.7145  -32.5509   23.1156 H   0  0  0  0  0  0
  -25.0148  -33.9812   25.0512 H   0  0  0  0  0  0
  -22.6944  -31.3140   21.4247 H   0  0  0  0  0  0
  -23.3770  -35.9651   23.3302 H   0  0  0  0  0  0
  -24.3566  -36.8914   22.2046 H   0  0  0  0  0  0
  -23.7254  -37.6528   23.6628 H   0  0  0  0  0  0
  -26.0625  -31.6005   20.6125 H   0  0  0  0  0  0
  -26.8207  -30.8652   21.9969 H   0  0  0  0  0  0
  -28.1170  -29.1097   21.1062 H   0  0  0  0  0  0
  -25.9585  -25.9648   19.0282 H   0  0  0  0  0  0
  -23.9520  -27.2950   19.0760 H   0  0  0  0  0  0
  -23.7181  -30.6110   19.4163 H   0  0  0  0  0  0
  -22.7305  -29.2614   19.8717 H   0  0  0  0  0  0
  -25.1300  -36.1998   25.0841 H   0  0  0  0  0  0
  -20.9953  -28.3239   24.1440 H   0  0  0  0  0  0
  -20.5739  -26.2271   23.3593 H   0  0  0  0  0  0
  -21.6668  -26.7497   22.1178 H   0  0  0  0  0  0
  -19.6961  -25.6311   21.1215 H   0  0  0  0  0  0
  -19.6711  -27.3226   20.6760 H   0  0  0  0  0  0
  -17.4229  -26.6658   21.3996 H   0  0  0  0  0  0
  -18.0336  -26.0032   22.8981 H   0  0  0  0  0  0
  -19.7924  -30.7229   24.2293 H   0  0  0  0  0  0
  -17.5019  -31.6248   24.5157 H   0  0  0  0  0  0
  -15.5355  -30.2995   23.7638 H   0  0  0  0  0  0
  -15.8654  -28.0812   22.7082 H   0  0  0  0  0  0
  -24.5926  -30.7112   25.7802 H   0  0  0  0  0  0
  -24.9014  -32.2885   26.4967 H   0  0  0  0  0  0
  -25.8128  -30.8825   27.0208 H   0  0  0  0  0  0
  -26.2889  -29.6790   24.1198 H   0  0  0  0  0  0
  -27.4089  -29.7285   25.4628 H   0  0  0  0  0  0
  -27.8745  -30.4325   23.9319 H   0  0  0  0  0  0
  -27.2696  -33.3580   26.2156 H   0  0  0  0  0  0
  -28.3867  -32.6937   25.0326 H   0  0  0  0  0  0
  -28.0797  -31.8394   26.5363 H   0  0  0  0  0  0
  -28.2631  -38.0100   24.7505 H   0  0  0  0  0  0
  -28.1067  -36.2645   24.6305 H   0  0  0  0  0  0
  -27.2292  -37.1487   25.8857 H   0  0  0  0  0  0
  -20.9310  -29.8710   21.6896 H   0  0  0  0  0  0
  -26.0206  -38.2888   24.1376 H   0  0  0  0  0  0
  -31.4871  -17.2051   19.2287 H   0  0  0  0  0  0
  -30.1259  -16.3804   18.5431 H   0  0  0  0  0  0
  -29.0029  -18.2592   17.9526 H   0  0  0  0  0  0
  -30.6172  -18.6592   17.5900 H   0  0  0  0  0  0
  -30.5466  -17.8829   22.5189 H   0  0  0  0  0  0
  -31.2087  -18.5508   21.1214 H   0  0  0  0  0  0
  -29.6105  -20.1293   22.1277 H   0  0  0  0  0  0
  -28.3425  -18.9495   22.1312 H   0  0  0  0  0  0
  -28.7195  -17.0027   20.5168 H   0  0  0  0  0  0
  -29.1903  -20.4575   18.3720 H   0  0  0  0  0  0
  -32.3122  -20.3655   17.8546 H   0  0  0  0  0  0
  -32.5226  -19.3208   19.2619 H   0  0  0  0  0  0
  -33.1193  -20.9553   19.2921 H   0  0  0  0  0  0
  -30.8647  -26.1906   20.6241 H   0  0  0  0  0  0
  -31.6923  -24.6610   20.6377 H   0  0  0  0  0  0
  -30.2987  -24.8910   21.6756 H   0  0  0  0  0  0
  -28.3465  -15.3685   22.5135 H   0  0  0  0  0  0
  -29.8196  -14.5525   23.0852 H   0  0  0  0  0  0
  -29.6426  -16.2441   23.2486 H   0  0  0  0  0  0
  -30.8640  -22.4577   17.9754 H   0  0  0  0  0  0
  -31.7226  -22.8540   19.4212 H   0  0  0  0  0  0
  -27.7542  -24.8174   20.4005 H   0  0  0  0  0  0
  -27.8872  -25.1843   18.6862 H   0  0  0  0  0  0
  -31.0854  -20.8595   20.5805 H   0  0  0  0  0  0
  -30.2019  -24.9162   18.6067 H   0  0  0  0  0  0
  -28.2286  -20.6131   20.3761 H   0  0  0  0  0  0
  -28.0312  -19.1036   19.9132 H   0  0  0  0  0  0
  -29.4172  -22.8423   20.5121 H   0  0  0  0  0  0
  -28.8654  -22.8987   18.9759 H   0  0  0  0  0  0
  1 25  1  0  0  0
  1 30  2  0  0  0
  1 84  1  0  0  0
  2  3  1  0  0  0
  2 25  1  0  0  0
  2 87  1  0  0  0
  2 88  1  0  0  0
  3  4  1  0  0  0
  3 89  1  0  0  0
  3 90  1  0  0  0
  4  5  1  0  0  0
  4 91  1  0  0  0
  4 92  1  0  0  0
  5  6  1  0  0  0
  5 26  1  0  0  0
  5 93  1  0  0  0
  6 25  1  0  0  0
  6 94  1  0  0  0
  6 95  1  0  0  0
  7  8  2  0  0  0
  7 26  1  0  0  0
  7 29  1  0  0  0
  8  9  1  0  0  0
  8 22  1  0  0  0
  9 10  1  0  0  0
  9 27  2  0  0  0
 10 11  2  0  0  0
 10 15  1  0  0  0
 11 12  1  0  0  0
 11 96  1  0  0  0
 12 13  2  0  0  0
 12 97  1  0  0  0
 13 14  1  0  0  0
 13 31  1  0  0  0
 14 15  2  0  0  0
 14 98  1  0  0  0
 15 99  1  0  0  0
 16 17  2  0  0  0
 16 21  1  0  0  0
 16 31  1  0  0  0
 17 18  1  0  0  0
 17100  1  0  0  0
 18 19  2  0  0  0
 18101  1  0  0  0
 19 20  1  0  0  0
 19 24  1  0  0  0
 20 21  2  0  0  0
 20102  1  0  0  0
 21 23  1  0  0  0
 22 28  1  0  0  0
 22 32  2  0  0  0
 26 27  1  0  0  0
 28103  1  0  0  0
 28104  1  0  0  0
 29105  1  0  0  0
 29106  1  0  0  0
 33 34  1  0  0  0
 33 66  1  0  0  0
 33 70  2  0  0  0
 34 36  1  0  0  0
 34 59  1  0  0  0
 34107  1  0  0  0
 35 44  2  0  0  0
 35 45  1  0  0  0
 35 68  1  0  0  0
 36 56  1  0  0  0
 36108  1  0  0  0
 37 39  1  0  0  0
 37 47  1  0  0  0
 37 66  1  0  0  0
 37109  1  0  0  0
 38 43  2  0  0  0
 38 46  1  0  0  0
 38 47  1  0  0  0
 39 64  1  0  0  0
 39 67  2  0  0  0
 40 52  1  0  0  0
 40 53  2  0  0  0
 40 58  1  0  0  0
 41110  1  0  0  0
 41111  1  0  0  0
 41112  1  0  0  0
 41 48  1  0  0  0
 42 43  1  0  0  0
 42 66  1  0  0  0
 42113  1  0  0  0
 42114  1  0  0  0
 43 44  1  0  0  0
 44115  1  0  0  0
 45 46  2  0  0  0
 45116  1  0  0  0
 46117  1  0  0  0
 47118  1  0  0  0
 47119  1  0  0  0
 48 56  1  0  0  0
 48 65  1  0  0  0
 48120  1  0  0  0
 49 50  1  0  0  0
 49 53  1  0  0  0
 49 64  1  0  0  0
 49121  1  0  0  0
 50 51  1  0  0  0
 50122  1  0  0  0
 50123  1  0  0  0
 51 52  1  0  0  0
 51124  1  0  0  0
 51125  1  0  0  0
 52126  1  0  0  0
 52127  1  0  0  0
 53 54  1  0  0  0
 54 55  2  0  0  0
 54128  1  0  0  0
 55 57  1  0  0  0
 55129  1  0  0  0
 56 69  2  0  0  0
 57 58  2  0  0  0
 57130  1  0  0  0
 58131  1  0  0  0
 59 60  1  0  0  0
 59 61  1  0  0  0
 59 62  1  0  0  0
 60132  1  0  0  0
 60133  1  0  0  0
 60134  1  0  0  0
 61135  1  0  0  0
 61136  1  0  0  0
 61137  1  0  0  0
 62138  1  0  0  0
 62139  1  0  0  0
 62140  1  0  0  0
 63 65  1  0  0  0
 63141  1  0  0  0
 63142  1  0  0  0
 63143  1  0  0  0
 64144  1  0  0  0
 65145  1  0  0  0
 68 81  1  0  0  0
 71 72  1  0  0  0
 71 75  1  0  0  0
 71146  1  0  0  0
 71147  1  0  0  0
 72148  1  0  0  0
 72149  1  0  0  0
 72 76  1  0  0  0
 73 74  1  0  0  0
 73 75  1  0  0  0
 73150  1  0  0  0
 73151  1  0  0  0
 74 85  1  0  0  0
 74152  1  0  0  0
 74153  1  0  0  0
 75 84  1  0  0  0
 75154  1  0  0  0
 76 82  1  0  0  0
 76 85  1  0  0  0
 76155  1  0  0  0
 77156  1  0  0  0
 77157  1  0  0  0
 77158  1  0  0  0
 77 82  1  0  0  0
 78159  1  0  0  0
 78160  1  0  0  0
 78161  1  0  0  0
 78 83  1  0  0  0
 79 84  1  0  0  0
 79162  1  0  0  0
 79163  1  0  0  0
 79164  1  0  0  0
 80 82  1  0  0  0
 80 86  1  0  0  0
 80165  1  0  0  0
 80166  1  0  0  0
 81 83  1  0  0  0
 81167  1  0  0  0
 81168  1  0  0  0
 82169  1  0  0  0
 83 86  1  0  0  0
 83170  1  0  0  0
 85171  1  0  0  0
 85172  1  0  0  0
 86173  1  0  0  0
 86174  1  0  0  0
M  CHG  2  85   1  86   1
M  ISO  4   1 100  68 101  81 101  84 100
M  END
> <chiral flag>
0

> <version>
0

> <s_m_source_file>
/data/baiqing/PycharmProjects/Reinvent-master-3.2/result/LINK_invent/BTK/process_docking_weight1_custom_sum_contain_oxygen_bond_distance_aromatic_linkinvent_7_9_3/rearranged_h_0104.sdf

> <i_m_source_file_index>
36

> <r_mmod_Potential_Energy-OPLS-2005>
72.3244476318359

> <r_mmod_Stretch_Energy-OPLS-2005>
64.3280639648438

> <r_mmod_Bend_Energy-OPLS-2005>
175.22883605957

> <r_mmod_Torsional_Energy-OPLS-2005>
365.395935058594

> <r_mmod_Improper_Torsional_Energy-OPLS-2005>
5.7074499130249

> <r_mmod_Van_der_Waal_Energy-OPLS-2005>
156.136627197266

> <r_mmod_Electrostatic_Energy-OPLS-2005>
298.120910644531

> <r_mmod_Solvation_Energy-OPLS-2005>
-1008.06573486328

> <b_mmod_Minimization_Converged-OPLS-2005>
0

> <r_mmod_RMS_Derivative-OPLS-2005>
5.5068564414978

$$$$
36
                    3D
 Structure written by MMmdl.
143150  0  0  1  0            999 V2000
  -30.1595  -16.0078   20.3078 C   0  0  0  0  0  0
  -30.3940  -13.3746   19.5173 C   0  0  0  0  0  0
  -29.5601  -12.7499   18.3502 C   0  0  0  0  0  0
  -28.1678  -12.3104   18.8210 C   0  0  0  0  0  0
  -27.5839  -13.3436   19.8037 C   0  0  2  0  0  0
  -28.5800  -13.8372   20.8884 C   0  0  0  0  0  0
  -25.2277  -13.8329   20.5855 C   0  0  0  0  0  0
  -24.1700  -13.0432   20.9315 C   0  0  0  0  0  0
  -24.6452  -11.6959   20.8763 C   0  0  0  0  0  0
  -23.9157  -10.4294   21.0383 C   0  0  0  0  0  0
  -24.3677   -9.4206   21.9172 C   0  0  0  0  0  0
  -23.6327   -8.2252   22.0752 C   0  0  0  0  0  0
  -22.4306   -8.0294   21.3544 C   0  0  0  0  0  0
  -21.9961   -9.0272   20.4641 C   0  0  0  0  0  0
  -22.7316  -10.2138   20.3041 C   0  0  0  0  0  0
  -21.6863   -6.0747   22.5278 C   0  0  0  0  0  0
  -21.4022   -6.5646   23.8213 C   0  0  0  0  0  0
  -21.3662   -5.6796   24.9174 C   0  0  0  0  0  0
  -21.6043   -4.3059   24.7222 C   0  0  0  0  0  0
  -21.8818   -3.8153   23.4342 C   0  0  0  0  0  0
  -21.9195   -4.6972   22.3400 C   0  0  0  0  0  0
  -22.7702  -13.5134   21.1935 C   0  0  0  0  0  0
  -22.1662   -4.2157   21.0977 F   0  0  0  0  0  0
  -21.5627   -3.4540   25.7734 F   0  0  0  0  0  0
  -29.6764  -14.5833   20.1903 N   0  0  0  0  0  0
  -26.2771  -12.9730   20.3294 N   0  0  0  0  0  0
  -25.9414  -11.6759   20.5684 N   0  0  0  0  0  0
  -22.0374  -12.8103   22.0484 N   0  0  0  0  0  0
  -25.3817  -15.2078   20.4303 N   0  0  0  0  0  0
  -31.4071  -15.8753   20.2838 O   0  0  0  0  0  0
  -21.6655   -6.8898   21.4244 O   0  0  0  0  0  0
  -22.3366  -14.5428   20.6768 O   0  0  0  0  0  0
  -24.7087  -31.7703   23.1300 C   0  0  0  0  0  0
  -25.9545  -32.4322   23.7943 C   0  0  1  0  0  0
  -27.2364  -26.4390   20.2497 C   0  0  0  0  0  0
  -25.6015  -33.8161   24.1804 N   0  0  0  0  0  0
  -23.5466  -30.3606   21.4913 C   0  0  2  0  0  0
  -25.0045  -28.6425   20.1353 C   0  0  0  0  0  0
  -22.7877  -29.4163   22.4653 C   0  0  0  0  0  0
  -18.0355  -28.1436   22.8443 C   0  0  0  0  0  0
  -24.1496  -36.7088   23.2660 C   0  0  0  0  0  0
  -26.1381  -30.4173   21.4331 C   0  0  0  0  0  0
  -26.2005  -28.9507   20.7935 C   0  0  0  0  0  0
  -27.2915  -27.8889   20.8029 C   0  0  0  0  0  0
  -26.0001  -26.4054   19.5348 C   0  0  0  0  0  0
  -24.9584  -27.3976   19.4806 C   0  0  0  0  0  0
  -23.8152  -29.6318   20.1400 C   0  0  0  0  0  0
  -25.4156  -36.2810   24.0263 C   0  0  1  0  0  0
  -20.6003  -28.3808   23.1096 C   0  0  2  0  0  0
  -20.6810  -26.9444   22.5407 C   0  0  0  0  0  0
  -19.5789  -26.6365   21.5220 C   0  0  0  0  0  0
  -18.1971  -26.7958   22.1617 C   0  0  0  0  0  0
  -19.1628  -28.8952   23.2742 C   0  0  0  0  0  0
  -18.9529  -30.1529   23.8798 C   0  0  0  0  0  0
  -17.6517  -30.6612   24.0545 C   0  0  0  0  0  0
  -25.9154  -34.9207   23.4890 C   0  0  0  0  0  0
  -16.5404  -29.9089   23.6358 C   0  0  0  0  0  0
  -16.7334  -28.6513   23.0373 C   0  0  0  0  0  0
  -26.4636  -31.6465   25.0673 C   0  0  0  0  0  0
  -25.3631  -31.3860   26.1239 C   0  0  0  0  0  0
  -27.0607  -30.2775   24.6759 C   0  0  0  0  0  0
  -27.6037  -32.4386   25.7504 C   0  0  0  0  0  0
  -27.5555  -37.1700   24.8466 C   0  0  0  0  0  0
  -21.4502  -29.3007   22.3391 N   0  0  0  0  0  0
  -26.4259  -37.3599   23.9408 N   0  0  0  0  0  0
  -24.8246  -30.8890   22.0700 N   0  0  0  0  0  0
  -23.4198  -28.7805   23.3117 O   0  0  0  0  0  0
  -28.1984  -25.1242   20.2208 O   0  0  0  0  0  0
  -26.5829  -34.8836   22.4532 O   0  0  0  0  0  0
  -23.6052  -32.0901   23.6087 O   0  0  0  0  0  0
  -29.7499  -21.5385   18.8335 C   0  0  0  0  0  0
  -29.3522  -19.3570   20.6037 C   0  0  0  0  0  0
  -28.2246  -23.2484   20.5237 C   0  0  0  0  0  0
  -28.7682  -21.2821   19.9812 C   0  0  1  0  0  0
  -29.4058  -17.4732   20.2728 N   0  0  0  0  0  0
  -31.3447  -13.7072   19.0991 H   0  0  0  0  0  0
  -30.6677  -12.6134   20.2501 H   0  0  0  0  0  0
  -30.0924  -11.9081   17.9052 H   0  0  0  0  0  0
  -29.4508  -13.4943   17.5600 H   0  0  0  0  0  0
  -28.2678  -11.3489   19.3261 H   0  0  0  0  0  0
  -27.5011  -12.1502   17.9727 H   0  0  0  0  0  0
  -27.3924  -14.2104   19.1690 H   0  0  0  0  0  0
  -28.9371  -13.0212   21.5186 H   0  0  0  0  0  0
  -28.0781  -14.5348   21.5604 H   0  0  0  0  0  0
  -25.2815   -9.5675   22.4762 H   0  0  0  0  0  0
  -24.0022   -7.4645   22.7482 H   0  0  0  0  0  0
  -21.0890   -8.8806   19.8948 H   0  0  0  0  0  0
  -22.3776  -10.9681   19.6153 H   0  0  0  0  0  0
  -21.2017   -7.6155   23.9719 H   0  0  0  0  0  0
  -21.1483   -6.0525   25.9077 H   0  0  0  0  0  0
  -22.0593   -2.7614   23.2841 H   0  0  0  0  0  0
  -22.4031  -11.9789   22.4887 H   0  0  0  0  0  0
  -21.0973  -13.1083   22.2676 H   0  0  0  0  0  0
  -24.6090  -15.8546   20.5462 H   0  0  0  0  0  0
  -26.2275  -15.6543   20.1020 H   0  0  0  0  0  0
  -26.7653  -32.4733   23.0671 H   0  0  0  0  0  0
  -25.0035  -33.9155   24.9873 H   0  0  0  0  0  0
  -22.8873  -31.2044   21.2779 H   0  0  0  0  0  0
  -23.3784  -35.9388   23.3250 H   0  0  0  0  0  0
  -24.3554  -36.8838   22.2088 H   0  0  0  0  0  0
  -23.7232  -37.6228   23.6806 H   0  0  0  0  0  0
  -26.3659  -31.1218   20.6322 H   0  0  0  0  0  0
  -26.9803  -30.4976   22.1074 H   0  0  0  0  0  0
  -28.1971  -28.1519   21.3311 H   0  0  0  0  0  0
  -25.7930  -25.4854   19.0064 H   0  0  0  0  0  0
  -24.0645  -27.1473   18.9258 H   0  0  0  0  0  0
  -24.0157  -30.3791   19.3715 H   0  0  0  0  0  0
  -22.9142  -29.1130   19.8083 H   0  0  0  0  0  0
  -25.1378  -36.1535   25.0751 H   0  0  0  0  0  0
  -21.0074  -28.3450   24.1228 H   0  0  0  0  0  0
  -20.5655  -26.2438   23.3691 H   0  0  0  0  0  0
  -21.6669  -26.7350   22.1237 H   0  0  0  0  0  0
  -19.6941  -25.6250   21.1313 H   0  0  0  0  0  0
  -19.6739  -27.3122   20.6708 H   0  0  0  0  0  0
  -17.4242  -26.6702   21.4018 H   0  0  0  0  0  0
  -18.0350  -26.0124   22.9034 H   0  0  0  0  0  0
  -19.8005  -30.7368   24.2124 H   0  0  0  0  0  0
  -17.5067  -31.6282   24.5167 H   0  0  0  0  0  0
  -15.5401  -30.2960   23.7741 H   0  0  0  0  0  0
  -15.8734  -28.0799   22.7146 H   0  0  0  0  0  0
  -24.5839  -30.7198   25.7519 H   0  0  0  0  0  0
  -24.8804  -32.3110   26.4403 H   0  0  0  0  0  0
  -25.7738  -30.9176   27.0192 H   0  0  0  0  0  0
  -26.3371  -29.6310   24.1786 H   0  0  0  0  0  0
  -27.3966  -29.7327   25.5592 H   0  0  0  0  0  0
  -27.9375  -30.3843   24.0373 H   0  0  0  0  0  0
  -27.2549  -33.3792   26.1781 H   0  0  0  0  0  0
  -28.3996  -32.6781   25.0440 H   0  0  0  0  0  0
  -28.0540  -31.8721   26.5665 H   0  0  0  0  0  0
  -28.2524  -38.0038   24.7516 H   0  0  0  0  0  0
  -28.1097  -36.2557   24.6292 H   0  0  0  0  0  0
  -27.2268  -37.1327   25.8867 H   0  0  0  0  0  0
  -20.9869  -29.8620   21.6380 H   0  0  0  0  0  0
  -26.0063  -38.2634   24.1430 H   0  0  0  0  0  0
  -30.7270  -21.8328   19.2172 H   0  0  0  0  0  0
  -29.3942  -22.3364   18.1806 H   0  0  0  0  0  0
  -29.8850  -20.6463   18.2213 H   0  0  0  0  0  0
  -30.3903  -19.5262   20.8911 H   0  0  0  0  0  0
  -28.8376  -19.3180   21.5641 H   0  0  0  0  0  0
  -28.7189  -23.2891   21.4943 H   0  0  0  0  0  0
  -27.1784  -23.1028   20.7930 H   0  0  0  0  0  0
  -27.8342  -21.0080   19.4895 H   0  0  0  0  0  0
  -28.4457  -17.2186   20.0831 H   0  0  0  0  0  0
  1 25  1  0  0  0
  1 30  2  0  0  0
  1 75  1  0  0  0
  2  3  1  0  0  0
  2 25  1  0  0  0
  2 76  1  0  0  0
  2 77  1  0  0  0
  3  4  1  0  0  0
  3 78  1  0  0  0
  3 79  1  0  0  0
  4  5  1  0  0  0
  4 80  1  0  0  0
  4 81  1  0  0  0
  5  6  1  0  0  0
  5 26  1  0  0  0
  5 82  1  0  0  0
  6 25  1  0  0  0
  6 83  1  0  0  0
  6 84  1  0  0  0
  7  8  2  0  0  0
  7 26  1  0  0  0
  7 29  1  0  0  0
  8  9  1  0  0  0
  8 22  1  0  0  0
  9 10  1  0  0  0
  9 27  2  0  0  0
 10 11  2  0  0  0
 10 15  1  0  0  0
 11 12  1  0  0  0
 11 85  1  0  0  0
 12 13  2  0  0  0
 12 86  1  0  0  0
 13 14  1  0  0  0
 13 31  1  0  0  0
 14 15  2  0  0  0
 14 87  1  0  0  0
 15 88  1  0  0  0
 16 17  2  0  0  0
 16 21  1  0  0  0
 16 31  1  0  0  0
 17 18  1  0  0  0
 17 89  1  0  0  0
 18 19  2  0  0  0
 18 90  1  0  0  0
 19 20  1  0  0  0
 19 24  1  0  0  0
 20 21  2  0  0  0
 20 91  1  0  0  0
 21 23  1  0  0  0
 22 28  1  0  0  0
 22 32  2  0  0  0
 26 27  1  0  0  0
 28 92  1  0  0  0
 28 93  1  0  0  0
 29 94  1  0  0  0
 29 95  1  0  0  0
 33 34  1  0  0  0
 33 66  1  0  0  0
 33 70  2  0  0  0
 34 36  1  0  0  0
 34 59  1  0  0  0
 34 96  1  0  0  0
 35 44  2  0  0  0
 35 45  1  0  0  0
 35 68  1  0  0  0
 36 56  1  0  0  0
 36 97  1  0  0  0
 37 39  1  0  0  0
 37 47  1  0  0  0
 37 66  1  0  0  0
 37 98  1  0  0  0
 38 43  2  0  0  0
 38 46  1  0  0  0
 38 47  1  0  0  0
 39 64  1  0  0  0
 39 67  2  0  0  0
 40 52  1  0  0  0
 40 53  2  0  0  0
 40 58  1  0  0  0
 41 99  1  0  0  0
 41100  1  0  0  0
 41101  1  0  0  0
 41 48  1  0  0  0
 42 43  1  0  0  0
 42 66  1  0  0  0
 42102  1  0  0  0
 42103  1  0  0  0
 43 44  1  0  0  0
 44104  1  0  0  0
 45 46  2  0  0  0
 45105  1  0  0  0
 46106  1  0  0  0
 47107  1  0  0  0
 47108  1  0  0  0
 48 56  1  0  0  0
 48 65  1  0  0  0
 48109  1  0  0  0
 49 50  1  0  0  0
 49 53  1  0  0  0
 49 64  1  0  0  0
 49110  1  0  0  0
 50 51  1  0  0  0
 50111  1  0  0  0
 50112  1  0  0  0
 51 52  1  0  0  0
 51113  1  0  0  0
 51114  1  0  0  0
 52115  1  0  0  0
 52116  1  0  0  0
 53 54  1  0  0  0
 54 55  2  0  0  0
 54117  1  0  0  0
 55 57  1  0  0  0
 55118  1  0  0  0
 56 69  2  0  0  0
 57 58  2  0  0  0
 57119  1  0  0  0
 58120  1  0  0  0
 59 60  1  0  0  0
 59 61  1  0  0  0
 59 62  1  0  0  0
 60121  1  0  0  0
 60122  1  0  0  0
 60123  1  0  0  0
 61124  1  0  0  0
 61125  1  0  0  0
 61126  1  0  0  0
 62127  1  0  0  0
 62128  1  0  0  0
 62129  1  0  0  0
 63 65  1  0  0  0
 63130  1  0  0  0
 63131  1  0  0  0
 63132  1  0  0  0
 64133  1  0  0  0
 65134  1  0  0  0
 68 73  1  0  0  0
 71135  1  0  0  0
 71136  1  0  0  0
 71137  1  0  0  0
 71 74  1  0  0  0
 72 74  1  0  0  0
 72 75  1  0  0  0
 72138  1  0  0  0
 72139  1  0  0  0
 73 74  1  0  0  0
 73140  1  0  0  0
 73141  1  0  0  0
 74142  1  0  0  0
 75143  1  0  0  0
M  ISO  4   1 100  68 101  73 101  75 100
M  END
> <chiral flag>
0

> <version>
0

> <s_m_source_file>
/data/baiqing/PycharmProjects/Reinvent-master-3.2/result/LINK_invent/BTK/process_docking_weight1_custom_sum_contain_oxygen_bond_distance_aromatic_linkinvent_7_9_3/rearranged_h_0104.sdf

> <i_m_source_file_index>
37

> <r_mmod_Potential_Energy-OPLS-2005>
4172.19580078125

> <r_mmod_Stretch_Energy-OPLS-2005>
1930.658203125

> <r_mmod_Bend_Energy-OPLS-2005>
901.940307617188

> <r_mmod_Torsional_Energy-OPLS-2005>
257.332458496094

> <r_mmod_Improper_Torsional_Energy-OPLS-2005>
5.03359031677246

> <r_mmod_Van_der_Waal_Energy-OPLS-2005>
112.043655395508

> <r_mmod_Electrostatic_Energy-OPLS-2005>
-353.434631347656

> <r_mmod_Solvation_Energy-OPLS-2005>
-220.922927856445

> <b_mmod_Minimization_Converged-OPLS-2005>
0

> <r_mmod_RMS_Derivative-OPLS-2005>
0.272040635347366

$$$$
37
                    3D
 Structure written by MMmdl.
158166  0  0  1  0            999 V2000
  -30.4788  -15.0309   20.4518 C   0  0  0  0  0  0
  -30.4586  -12.6457   19.5038 C   0  0  0  0  0  0
  -29.5315  -12.5506   18.2657 C   0  0  0  0  0  0
  -28.0686  -12.3013   18.6824 C   0  0  0  0  0  0
  -27.6343  -13.2305   19.8415 C   0  0  2  0  0  0
  -28.6796  -13.2421   20.9795 C   0  0  0  0  0  0
  -25.2497  -13.8164   20.5686 C   0  0  0  0  0  0
  -24.1786  -13.0412   20.9179 C   0  0  0  0  0  0
  -24.6388  -11.6894   20.8732 C   0  0  0  0  0  0
  -23.9068  -10.4279   21.0399 C   0  0  0  0  0  0
  -24.3618   -9.4199   21.9178 C   0  0  0  0  0  0
  -23.6289   -8.2240   22.0751 C   0  0  0  0  0  0
  -22.4270   -8.0278   21.3544 C   0  0  0  0  0  0
  -21.9909   -9.0250   20.4643 C   0  0  0  0  0  0
  -22.7242  -10.2124   20.3050 C   0  0  0  0  0  0
  -21.6848   -6.0733   22.5279 C   0  0  0  0  0  0
  -21.4011   -6.5637   23.8211 C   0  0  0  0  0  0
  -21.3659   -5.6792   24.9173 C   0  0  0  0  0  0
  -21.6043   -4.3055   24.7226 C   0  0  0  0  0  0
  -21.8821   -3.8146   23.4348 C   0  0  0  0  0  0
  -21.9191   -4.6961   22.3403 C   0  0  0  0  0  0
  -22.7816  -13.5203   21.1864 C   0  0  0  0  0  0
  -22.1657   -4.2149   21.0980 F   0  0  0  0  0  0
  -21.5634   -3.4538   25.7739 F   0  0  0  0  0  0
  -29.9434  -13.7287   20.4008 N   0  0  0  0  0  0
  -26.2912  -12.9354   20.3252 N   0  0  0  0  0  0
  -25.9318  -11.6507   20.5742 N   0  0  0  0  0  0
  -22.0474  -12.8190   22.0427 N   0  0  0  0  0  0
  -25.4210  -15.1891   20.4179 N   0  0  0  0  0  0
  -31.6590  -15.1144   20.0874 O   0  0  0  0  0  0
  -21.6632   -6.8874   21.4240 O   0  0  0  0  0  0
  -22.3493  -14.5511   20.6720 O   0  0  0  0  0  0
  -24.6470  -31.8399   23.1838 C   0  0  0  0  0  0
  -25.9226  -32.4668   23.8239 C   0  0  1  0  0  0
  -27.2199  -27.0984   20.1586 C   0  0  0  0  0  0
  -25.5955  -33.8478   24.2152 N   0  0  0  0  0  0
  -23.4529  -30.4575   21.5308 C   0  0  2  0  0  0
  -24.9033  -28.8763   20.1134 C   0  0  0  0  0  0
  -22.7587  -29.4522   22.4844 C   0  0  0  0  0  0
  -18.0305  -28.1399   22.8462 C   0  0  0  0  0  0
  -24.1494  -36.7246   23.2644 C   0  0  0  0  0  0
  -26.0121  -30.7018   21.3889 C   0  0  0  0  0  0
  -26.0831  -29.3096   20.7303 C   0  0  0  0  0  0
  -27.2428  -28.4389   20.7305 C   0  0  0  0  0  0
  -26.0118  -26.7763   19.5008 C   0  0  0  0  0  0
  -24.8819  -27.6239   19.4822 C   0  0  0  0  0  0
  -23.6816  -29.7827   20.1527 C   0  0  0  0  0  0
  -25.4129  -36.3013   24.0307 C   0  0  1  0  0  0
  -20.5922  -28.3724   23.1227 C   0  0  2  0  0  0
  -20.6795  -26.9428   22.5403 C   0  0  0  0  0  0
  -19.5770  -26.6382   21.5211 C   0  0  0  0  0  0
  -18.1946  -26.7932   22.1617 C   0  0  0  0  0  0
  -19.1564  -28.8880   23.2831 C   0  0  0  0  0  0
  -18.9482  -30.1469   23.8866 C   0  0  0  0  0  0
  -17.6481  -30.6594   24.0552 C   0  0  0  0  0  0
  -25.9087  -34.9391   23.5044 C   0  0  0  0  0  0
  -16.5369  -29.9084   23.6341 C   0  0  0  0  0  0
  -16.7291  -28.6505   23.0356 C   0  0  0  0  0  0
  -26.4536  -31.6552   25.0701 C   0  0  0  0  0  0
  -25.3701  -31.3746   26.1378 C   0  0  0  0  0  0
  -27.0418  -30.2942   24.6324 C   0  0  0  0  0  0
  -27.6053  -32.4337   25.7492 C   0  0  0  0  0  0
  -27.5574  -37.1776   24.8466 C   0  0  0  0  0  0
  -21.4277  -29.3037   22.3595 N   0  0  0  0  0  0
  -26.4286  -37.3733   23.9410 N   0  0  0  0  0  0
  -24.7242  -31.0220   22.0893 N   0  0  0  0  0  0
  -23.4209  -28.8074   23.3014 O   0  0  0  0  0  0
  -28.2768  -26.1030   20.1996 O   0  0  0  0  0  0
  -26.5687  -34.8898   22.4632 O   0  0  0  0  0  0
  -23.5582  -32.1291   23.7043 O   0  0  0  0  0  0
  -28.3835  -20.4919   19.6013 C   0  0  0  0  0  0
  -30.4187  -20.8136   20.7705 C   0  0  0  0  0  0
  -28.4000  -18.9163   20.0414 C   0  0  0  0  0  0
  -30.4562  -19.2434   21.2122 C   0  0  0  0  0  0
  -29.0339  -21.5920   20.5548 C   0  0  1  0  0  0
  -29.7623  -18.0930   20.3316 C   0  0  1  0  0  0
  -29.8548  -16.5207   22.4503 C   0  0  0  0  0  0
  -29.1238  -23.2646   20.1489 C   0  0  0  0  0  0
  -28.0168  -24.5513   20.3248 C   0  0  0  0  0  0
  -29.6599  -16.4557   20.9225 C   0  0  2  0  0  0
  -28.2743  -16.2146   20.7825 O   0  0  0  0  0  0
  -31.4827  -12.8380   19.1819 H   0  0  0  0  0  0
  -30.4958  -11.6920   20.0335 H   0  0  0  0  0  0
  -29.8722  -11.7588   17.5975 H   0  0  0  0  0  0
  -29.5930  -13.4791   17.6968 H   0  0  0  0  0  0
  -27.9862  -11.2605   18.9980 H   0  0  0  0  0  0
  -27.4015  -12.4155   17.8276 H   0  0  0  0  0  0
  -27.5944  -14.2239   19.3978 H   0  0  0  0  0  0
  -28.8001  -12.2418   21.3985 H   0  0  0  0  0  0
  -28.3589  -13.8637   21.8140 H   0  0  0  0  0  0
  -25.2758   -9.5674   22.4752 H   0  0  0  0  0  0
  -23.9994   -7.4629   22.7470 H   0  0  0  0  0  0
  -21.0841   -8.8770   19.8946 H   0  0  0  0  0  0
  -22.3700  -10.9661   19.6160 H   0  0  0  0  0  0
  -21.2000   -7.6144   23.9716 H   0  0  0  0  0  0
  -21.1479   -6.0518   25.9075 H   0  0  0  0  0  0
  -22.0601   -2.7609   23.2847 H   0  0  0  0  0  0
  -22.4095  -11.9839   22.4789 H   0  0  0  0  0  0
  -21.1106  -13.1220   22.2671 H   0  0  0  0  0  0
  -24.6608  -15.8472   20.5462 H   0  0  0  0  0  0
  -26.3016  -15.6447   20.1878 H   0  0  0  0  0  0
  -26.7286  -32.5260   23.0960 H   0  0  0  0  0  0
  -25.0047  -33.9585   25.0261 H   0  0  0  0  0  0
  -22.7570  -31.2839   21.3712 H   0  0  0  0  0  0
  -23.3762  -35.9571   23.3294 H   0  0  0  0  0  0
  -24.3573  -36.8907   22.2062 H   0  0  0  0  0  0
  -23.7253  -37.6433   23.6705 H   0  0  0  0  0  0
  -26.1756  -31.4561   20.6179 H   0  0  0  0  0  0
  -26.8787  -30.7503   22.0364 H   0  0  0  0  0  0
  -28.1444  -28.7693   21.2272 H   0  0  0  0  0  0
  -25.9091  -25.8283   18.9969 H   0  0  0  0  0  0
  -23.9833  -27.2876   18.9840 H   0  0  0  0  0  0
  -23.8209  -30.5542   19.3950 H   0  0  0  0  0  0
  -22.7964  -29.2260   19.8404 H   0  0  0  0  0  0
  -25.1323  -36.1829   25.0799 H   0  0  0  0  0  0
  -20.9999  -28.3322   24.1354 H   0  0  0  0  0  0
  -20.5701  -26.2336   23.3623 H   0  0  0  0  0  0
  -21.6656  -26.7438   22.1193 H   0  0  0  0  0  0
  -19.6941  -25.6290   21.1253 H   0  0  0  0  0  0
  -19.6718  -27.3178   20.6733 H   0  0  0  0  0  0
  -17.4218  -26.6670   21.4016 H   0  0  0  0  0  0
  -18.0341  -26.0082   22.9023 H   0  0  0  0  0  0
  -19.7960  -30.7284   24.2231 H   0  0  0  0  0  0
  -17.5035  -31.6268   24.5162 H   0  0  0  0  0  0
  -15.5368  -30.2974   23.7691 H   0  0  0  0  0  0
  -15.8686  -28.0815   22.7096 H   0  0  0  0  0  0
  -24.5904  -30.7081   25.7678 H   0  0  0  0  0  0
  -24.8860  -32.2918   26.4734 H   0  0  0  0  0  0
  -25.7951  -30.8956   27.0206 H   0  0  0  0  0  0
  -26.3046  -29.6636   24.1339 H   0  0  0  0  0  0
  -27.4020  -29.7281   25.4925 H   0  0  0  0  0  0
  -27.8953  -30.4167   23.9653 H   0  0  0  0  0  0
  -27.2650  -33.3681   26.1971 H   0  0  0  0  0  0
  -28.3905  -32.6837   25.0341 H   0  0  0  0  0  0
  -28.0669  -31.8526   26.5489 H   0  0  0  0  0  0
  -28.2576  -38.0085   24.7517 H   0  0  0  0  0  0
  -28.1085  -36.2615   24.6288 H   0  0  0  0  0  0
  -27.2287  -37.1409   25.8865 H   0  0  0  0  0  0
  -20.9512  -29.8740   21.6750 H   0  0  0  0  0  0
  -26.0150  -38.2799   24.1411 H   0  0  0  0  0  0
  -27.3456  -20.7806   19.4316 H   0  0  0  0  0  0
  -28.8559  -20.5680   18.6205 H   0  0  0  0  0  0
  -31.0027  -20.9093   19.8537 H   0  0  0  0  0  0
  -30.9882  -21.3715   21.5149 H   0  0  0  0  0  0
  -27.8458  -18.3675   19.2791 H   0  0  0  0  0  0
  -27.7821  -18.8407   20.9375 H   0  0  0  0  0  0
  -30.0237  -19.2101   22.2123 H   0  0  0  0  0  0
  -31.5009  -18.9619   21.3496 H   0  0  0  0  0  0
  -28.5010  -21.5496   21.5057 H   0  0  0  0  0  0
  -30.3059  -18.0364   19.3878 H   0  0  0  0  0  0
  -29.1494  -17.2039   22.9253 H   0  0  0  0  0  0
  -30.8602  -16.8631   22.6961 H   0  0  0  0  0  0
  -29.7302  -15.5493   22.9303 H   0  0  0  0  0  0
  -29.4637  -23.3043   19.1140 H   0  0  0  0  0  0
  -29.9875  -23.6146   20.7144 H   0  0  0  0  0  0
  -27.5860  -24.4366   21.3198 H   0  0  0  0  0  0
  -27.2007  -24.3012   19.6510 H   0  0  0  0  0  0
  -28.0459  -15.5372   21.4059 H   0  0  0  0  0  0
  1 25  1  0  0  0
  1 30  2  0  0  0
  1 80  1  0  0  0
  2  3  1  0  0  0
  2 25  1  0  0  0
  2 82  1  0  0  0
  2 83  1  0  0  0
  3  4  1  0  0  0
  3 84  1  0  0  0
  3 85  1  0  0  0
  4  5  1  0  0  0
  4 86  1  0  0  0
  4 87  1  0  0  0
  5  6  1  0  0  0
  5 26  1  0  0  0
  5 88  1  0  0  0
  6 25  1  0  0  0
  6 89  1  0  0  0
  6 90  1  0  0  0
  7  8  2  0  0  0
  7 26  1  0  0  0
  7 29  1  0  0  0
  8  9  1  0  0  0
  8 22  1  0  0  0
  9 10  1  0  0  0
  9 27  2  0  0  0
 10 11  2  0  0  0
 10 15  1  0  0  0
 11 12  1  0  0  0
 11 91  1  0  0  0
 12 13  2  0  0  0
 12 92  1  0  0  0
 13 14  1  0  0  0
 13 31  1  0  0  0
 14 15  2  0  0  0
 14 93  1  0  0  0
 15 94  1  0  0  0
 16 17  2  0  0  0
 16 21  1  0  0  0
 16 31  1  0  0  0
 17 18  1  0  0  0
 17 95  1  0  0  0
 18 19  2  0  0  0
 18 96  1  0  0  0
 19 20  1  0  0  0
 19 24  1  0  0  0
 20 21  2  0  0  0
 20 97  1  0  0  0
 21 23  1  0  0  0
 22 28  1  0  0  0
 22 32  2  0  0  0
 26 27  1  0  0  0
 28 98  1  0  0  0
 28 99  1  0  0  0
 29100  1  0  0  0
 29101  1  0  0  0
 33 34  1  0  0  0
 33 66  1  0  0  0
 33 70  2  0  0  0
 34 36  1  0  0  0
 34 59  1  0  0  0
 34102  1  0  0  0
 35 44  2  0  0  0
 35 45  1  0  0  0
 35 68  1  0  0  0
 36 56  1  0  0  0
 36103  1  0  0  0
 37 39  1  0  0  0
 37 47  1  0  0  0
 37 66  1  0  0  0
 37104  1  0  0  0
 38 43  2  0  0  0
 38 46  1  0  0  0
 38 47  1  0  0  0
 39 64  1  0  0  0
 39 67  2  0  0  0
 40 52  1  0  0  0
 40 53  2  0  0  0
 40 58  1  0  0  0
 41105  1  0  0  0
 41106  1  0  0  0
 41107  1  0  0  0
 41 48  1  0  0  0
 42 43  1  0  0  0
 42 66  1  0  0  0
 42108  1  0  0  0
 42109  1  0  0  0
 43 44  1  0  0  0
 44110  1  0  0  0
 45 46  2  0  0  0
 45111  1  0  0  0
 46112  1  0  0  0
 47113  1  0  0  0
 47114  1  0  0  0
 48 56  1  0  0  0
 48 65  1  0  0  0
 48115  1  0  0  0
 49 50  1  0  0  0
 49 53  1  0  0  0
 49 64  1  0  0  0
 49116  1  0  0  0
 50 51  1  0  0  0
 50117  1  0  0  0
 50118  1  0  0  0
 51 52  1  0  0  0
 51119  1  0  0  0
 51120  1  0  0  0
 52121  1  0  0  0
 52122  1  0  0  0
 53 54  1  0  0  0
 54 55  2  0  0  0
 54123  1  0  0  0
 55 57  1  0  0  0
 55124  1  0  0  0
 56 69  2  0  0  0
 57 58  2  0  0  0
 57125  1  0  0  0
 58126  1  0  0  0
 59 60  1  0  0  0
 59 61  1  0  0  0
 59 62  1  0  0  0
 60127  1  0  0  0
 60128  1  0  0  0
 60129  1  0  0  0
 61130  1  0  0  0
 61131  1  0  0  0
 61132  1  0  0  0
 62133  1  0  0  0
 62134  1  0  0  0
 62135  1  0  0  0
 63 65  1  0  0  0
 63136  1  0  0  0
 63137  1  0  0  0
 63138  1  0  0  0
 64139  1  0  0  0
 65140  1  0  0  0
 68 79  1  0  0  0
 71 73  1  0  0  0
 71 75  1  0  0  0
 71141  1  0  0  0
 71142  1  0  0  0
 72 74  1  0  0  0
 72 75  1  0  0  0
 72143  1  0  0  0
 72144  1  0  0  0
 73145  1  0  0  0
 73146  1  0  0  0
 73 76  1  0  0  0
 74 76  1  0  0  0
 74147  1  0  0  0
 74148  1  0  0  0
 75 78  1  0  0  0
 75149  1  0  0  0
 76 80  1  0  0  0
 76150  1  0  0  0
 77151  1  0  0  0
 77152  1  0  0  0
 77153  1  0  0  0
 77 80  1  0  0  0
 78 79  1  0  0  0
 78154  1  0  0  0
 78155  1  0  0  0
 79156  1  0  0  0
 79157  1  0  0  0
 80 81  1  0  0  0
 81158  1  0  0  0
M  ISO  4   1 100  68 101  79 101  80 100
M  END
> <chiral flag>
0

> <version>
0

> <s_m_source_file>
/data/baiqing/PycharmProjects/Reinvent-master-3.2/result/LINK_invent/BTK/process_docking_weight1_custom_sum_contain_oxygen_bond_distance_aromatic_linkinvent_7_9_3/rearranged_h_0104.sdf

> <i_m_source_file_index>
38

> <r_mmod_Potential_Energy-OPLS-2005>
823.021240234375

> <r_mmod_Stretch_Energy-OPLS-2005>
337.676391601562

> <r_mmod_Bend_Energy-OPLS-2005>
343.319366455078

> <r_mmod_Torsional_Energy-OPLS-2005>
238.820526123047

> <r_mmod_Improper_Torsional_Energy-OPLS-2005>
1.50987923145294

> <r_mmod_Van_der_Waal_Energy-OPLS-2005>
126.502067565918

> <r_mmod_Electrostatic_Energy-OPLS-2005>
-278.400329589844

> <r_mmod_Solvation_Energy-OPLS-2005>
-180.061233520508

> <b_mmod_Minimization_Converged-OPLS-2005>
0

> <r_mmod_RMS_Derivative-OPLS-2005>
1.09082436561584

$$$$
38
                    3D
 Structure written by MMmdl.
174182  0  0  1  0            999 V2000
  -30.6966  -14.6766   20.4884 C   0  0  0  0  0  0
  -30.4210  -12.4223   19.4859 C   0  0  0  0  0  0
  -29.5165  -12.5179   18.2427 C   0  0  0  0  0  0
  -28.0440  -12.3338   18.6540 C   0  0  0  0  0  0
  -27.6452  -13.2425   19.8524 C   0  0  2  0  0  0
  -28.6856  -13.1862   20.9934 C   0  0  0  0  0  0
  -25.2506  -13.8240   20.5697 C   0  0  0  0  0  0
  -24.1793  -13.0479   20.9228 C   0  0  0  0  0  0
  -24.6404  -11.6964   20.8753 C   0  0  0  0  0  0
  -23.9094  -10.4323   21.0382 C   0  0  0  0  0  0
  -24.3631   -9.4232   21.9157 C   0  0  0  0  0  0
  -23.6307   -8.2259   22.0727 C   0  0  0  0  0  0
  -22.4292   -8.0300   21.3524 C   0  0  0  0  0  0
  -21.9935   -9.0281   20.4644 C   0  0  0  0  0  0
  -22.7263  -10.2156   20.3044 C   0  0  0  0  0  0
  -21.6866   -6.0758   22.5285 C   0  0  0  0  0  0
  -21.4021   -6.5649   23.8230 C   0  0  0  0  0  0
  -21.3667   -5.6786   24.9169 C   0  0  0  0  0  0
  -21.6046   -4.3043   24.7228 C   0  0  0  0  0  0
  -21.8822   -3.8163   23.4342 C   0  0  0  0  0  0
  -21.9186   -4.6974   22.3412 C   0  0  0  0  0  0
  -22.7796  -13.5243   21.1858 C   0  0  0  0  0  0
  -22.1651   -4.2189   21.0973 F   0  0  0  0  0  0
  -21.5616   -3.4508   25.7720 F   0  0  0  0  0  0
  -30.0007  -13.4931   20.4203 N   0  0  0  0  0  0
  -26.2955  -12.9475   20.3275 N   0  0  0  0  0  0
  -25.9341  -11.6618   20.5714 N   0  0  0  0  0  0
  -22.0408  -12.8262   22.0423 N   0  0  0  0  0  0
  -25.4174  -15.1956   20.4059 N   0  0  0  0  0  0
  -31.8732  -14.7144   20.1331 O   0  0  0  0  0  0
  -21.6649   -6.8894   21.4248 O   0  0  0  0  0  0
  -22.3480  -14.5537   20.6664 O   0  0  0  0  0  0
  -24.6192  -31.8621   23.1988 C   0  0  0  0  0  0
  -25.9045  -32.4793   23.8320 C   0  0  1  0  0  0
  -27.2363  -27.3433   20.1295 C   0  0  0  0  0  0
  -25.5890  -33.8598   24.2267 N   0  0  0  0  0  0
  -23.4119  -30.4812   21.5421 C   0  0  2  0  0  0
  -24.8631  -28.9345   20.1049 C   0  0  0  0  0  0
  -22.7436  -29.4634   22.4956 C   0  0  0  0  0  0
  -18.0260  -28.1376   22.8483 C   0  0  0  0  0  0
  -24.1500  -36.7300   23.2650 C   0  0  0  0  0  0
  -25.9453  -30.8036   21.3626 C   0  0  0  0  0  0
  -26.0226  -29.4292   20.7125 C   0  0  0  0  0  0
  -27.2073  -28.6421   20.7165 C   0  0  0  0  0  0
  -26.0591  -26.8882   19.4964 C   0  0  0  0  0  0
  -24.8843  -27.6708   19.4888 C   0  0  0  0  0  0
  -23.6218  -29.8068   20.1584 C   0  0  0  0  0  0
  -25.4120  -36.3098   24.0337 C   0  0  1  0  0  0
  -20.5869  -28.3675   23.1291 C   0  0  2  0  0  0
  -20.6754  -26.9394   22.5441 C   0  0  0  0  0  0
  -19.5747  -26.6384   21.5223 C   0  0  0  0  0  0
  -18.1912  -26.7935   22.1609 C   0  0  0  0  0  0
  -19.1514  -28.8838   23.2895 C   0  0  0  0  0  0
  -18.9456  -30.1446   23.8905 C   0  0  0  0  0  0
  -17.6451  -30.6589   24.0550 C   0  0  0  0  0  0
  -25.9055  -34.9469   23.5112 C   0  0  0  0  0  0
  -16.5341  -29.9087   23.6315 C   0  0  0  0  0  0
  -16.7254  -28.6506   23.0349 C   0  0  0  0  0  0
  -26.4473  -31.6584   25.0669 C   0  0  0  0  0  0
  -25.3713  -31.3685   26.1404 C   0  0  0  0  0  0
  -27.0325  -30.3016   24.6085 C   0  0  0  0  0  0
  -27.6059  -32.4322   25.7407 C   0  0  0  0  0  0
  -27.5584  -37.1787   24.8465 C   0  0  0  0  0  0
  -21.4151  -29.3036   22.3680 N   0  0  0  0  0  0
  -26.4292  -37.3790   23.9411 N   0  0  0  0  0  0
  -24.6770  -31.0664   22.0918 N   0  0  0  0  0  0
  -23.4175  -28.8186   23.3040 O   0  0  0  0  0  0
  -28.3818  -26.5512   20.2382 O   0  0  0  0  0  0
  -26.5669  -34.8932   22.4694 O   0  0  0  0  0  0
  -23.5364  -32.1431   23.7336 O   0  0  0  0  0  0
  -28.4405  -20.2907   21.2111 C   0  0  0  0  0  0
  -28.9178  -18.9574   21.0415 C   0  0  0  0  0  0
  -29.0892  -21.4100   20.6271 C   0  0  0  0  0  0
  -30.1197  -18.6593   20.3434 C   0  0  0  0  0  0
  -30.2024  -21.1217   19.7995 C   0  0  0  0  0  0
  -30.7960  -19.7978   19.7296 C   0  0  0  0  0  0
  -30.7744  -22.3362   19.0664 C   0  0  0  0  0  0
  -35.1035  -23.8217   20.0388 C   0  0  0  0  0  0
  -28.7626  -22.8969   21.0700 C   0  0  0  0  0  0
  -30.7078  -17.1819   20.3113 C   0  0  0  0  0  0
  -27.8863  -23.8983   20.1984 C   0  0  0  0  0  0
  -33.2699  -20.4206   20.0951 C   0  0  0  0  0  0
  -34.0665  -21.6158   19.4999 C   0  0  0  0  0  0
  -28.5283  -25.2341   19.6113 C   0  0  0  0  0  0
  -32.2431  -19.7472   19.1253 C   0  0  1  0  0  0
  -30.0420  -15.8760   20.6987 N   0  0  0  0  0  0
  -32.7318  -18.4614   18.5988 N   0  3  0  0  0  0
  -34.6196  -22.5164   20.5408 N   0  3  0  0  0  0
  -31.4694  -12.5071   19.1937 H   0  0  0  0  0  0
  -30.3241  -11.4456   19.9626 H   0  0  0  0  0  0
  -29.8065  -11.7724   17.5022 H   0  0  0  0  0  0
  -29.6514  -13.4873   17.7600 H   0  0  0  0  0  0
  -27.9082  -11.2875   18.9267 H   0  0  0  0  0  0
  -27.3925  -12.5032   17.7963 H   0  0  0  0  0  0
  -27.6397  -14.2618   19.4668 H   0  0  0  0  0  0
  -28.6971  -12.2031   21.4658 H   0  0  0  0  0  0
  -28.4265  -13.9003   21.7745 H   0  0  0  0  0  0
  -25.2766   -9.5707   22.4723 H   0  0  0  0  0  0
  -24.0028   -7.4660   22.7446 H   0  0  0  0  0  0
  -21.0853   -8.8826   19.8961 H   0  0  0  0  0  0
  -22.3727  -10.9689   19.6150 H   0  0  0  0  0  0
  -21.2011   -7.6154   23.9768 H   0  0  0  0  0  0
  -21.1475   -6.0472   25.9081 H   0  0  0  0  0  0
  -22.0586   -2.7626   23.2816 H   0  0  0  0  0  0
  -22.3984  -11.9981   22.4959 H   0  0  0  0  0  0
  -21.1019  -13.1315   22.2536 H   0  0  0  0  0  0
  -24.6439  -15.8439   20.4966 H   0  0  0  0  0  0
  -26.2586  -15.6385   20.0611 H   0  0  0  0  0  0
  -26.7105  -32.5497   23.1063 H   0  0  0  0  0  0
  -24.9940  -33.9747   25.0351 H   0  0  0  0  0  0
  -22.7018  -31.2972   21.4010 H   0  0  0  0  0  0
  -23.3781  -35.9616   23.3305 H   0  0  0  0  0  0
  -24.3582  -36.8927   22.2063 H   0  0  0  0  0  0
  -23.7229  -37.6485   23.6680 H   0  0  0  0  0  0
  -26.0667  -31.5677   20.5927 H   0  0  0  0  0  0
  -26.8283  -30.8619   21.9856 H   0  0  0  0  0  0
  -28.0973  -29.0198   21.2024 H   0  0  0  0  0  0
  -26.0268  -25.9120   19.0377 H   0  0  0  0  0  0
  -23.9944  -27.2839   19.0127 H   0  0  0  0  0  0
  -23.7140  -30.5800   19.3969 H   0  0  0  0  0  0
  -22.7461  -29.2213   19.8706 H   0  0  0  0  0  0
  -25.1296  -36.1956   25.0830 H   0  0  0  0  0  0
  -20.9972  -28.3307   24.1411 H   0  0  0  0  0  0
  -20.5651  -26.2308   23.3664 H   0  0  0  0  0  0
  -21.6623  -26.7430   22.1241 H   0  0  0  0  0  0
  -19.6907  -25.6300   21.1250 H   0  0  0  0  0  0
  -19.6686  -27.3204   20.6760 H   0  0  0  0  0  0
  -17.4197  -26.6704   21.3990 H   0  0  0  0  0  0
  -18.0269  -26.0069   22.8984 H   0  0  0  0  0  0
  -19.7944  -30.7239   24.2312 H   0  0  0  0  0  0
  -17.5021  -31.6272   24.5153 H   0  0  0  0  0  0
  -15.5349  -30.2978   23.7665 H   0  0  0  0  0  0
  -15.8667  -28.0824   22.7060 H   0  0  0  0  0  0
  -24.5864  -30.7091   25.7670 H   0  0  0  0  0  0
  -24.8943  -32.2853   26.4889 H   0  0  0  0  0  0
  -25.8031  -30.8764   27.0134 H   0  0  0  0  0  0
  -26.2862  -29.6730   24.1215 H   0  0  0  0  0  0
  -27.4166  -29.7298   25.4549 H   0  0  0  0  0  0
  -27.8668  -30.4319   23.9186 H   0  0  0  0  0  0
  -27.2672  -33.3599   26.2032 H   0  0  0  0  0  0
  -28.3795  -32.6932   25.0170 H   0  0  0  0  0  0
  -28.0828  -31.8437   26.5257 H   0  0  0  0  0  0
  -28.2616  -38.0080   24.7522 H   0  0  0  0  0  0
  -28.1072  -36.2610   24.6273 H   0  0  0  0  0  0
  -27.2311  -37.1412   25.8875 H   0  0  0  0  0  0
  -20.9343  -29.8677   21.6803 H   0  0  0  0  0  0
  -26.0199  -38.2872   24.1416 H   0  0  0  0  0  0
  -27.5842  -20.4530   21.8522 H   0  0  0  0  0  0
  -28.3835  -18.1583   21.5365 H   0  0  0  0  0  0
  -29.9609  -22.9575   18.6957 H   0  0  0  0  0  0
  -31.3388  -22.1302   18.1627 H   0  0  0  0  0  0
  -31.3727  -22.9461   19.7405 H   0  0  0  0  0  0
  -35.4772  -24.4352   20.8631 H   0  0  0  0  0  0
  -34.2986  -24.3848   19.5608 H   0  0  0  0  0  0
  -35.9105  -23.7004   19.3150 H   0  0  0  0  0  0
  -29.7087  -23.3878   21.3052 H   0  0  0  0  0  0
  -28.2919  -22.8255   22.0504 H   0  0  0  0  0  0
  -31.6512  -17.2267   20.8584 H   0  0  0  0  0  0
  -30.9218  -16.9923   19.2621 H   0  0  0  0  0  0
  -27.0063  -24.1829   20.7739 H   0  0  0  0  0  0
  -27.4834  -23.3245   19.3655 H   0  0  0  0  0  0
  -32.7212  -20.7807   20.9694 H   0  0  0  0  0  0
  -33.9637  -19.6876   20.5044 H   0  0  0  0  0  0
  -33.4264  -22.2187   18.8614 H   0  0  0  0  0  0
  -34.8731  -21.2575   18.8587 H   0  0  0  0  0  0
  -28.2376  -25.3345   18.5641 H   0  0  0  0  0  0
  -29.6087  -25.0836   19.5701 H   0  0  0  0  0  0
  -32.2278  -20.3091   18.1955 H   0  0  0  0  0  0
  -29.0725  -15.8717   20.9681 H   0  0  0  0  0  0
  -32.8592  -17.7888   19.3341 H   0  0  0  0  0  0
  -33.6108  -18.5771   18.1257 H   0  0  0  0  0  0
  -32.0811  -18.1008   17.9222 H   0  0  0  0  0  0
  -33.9088  -22.7155   21.2270 H   0  0  0  0  0  0
  -35.3785  -22.0542   21.0156 H   0  0  0  0  0  0
  1 25  1  0  0  0
  1 30  2  0  0  0
  1 86  1  0  0  0
  2  3  1  0  0  0
  2 25  1  0  0  0
  2 89  1  0  0  0
  2 90  1  0  0  0
  3  4  1  0  0  0
  3 91  1  0  0  0
  3 92  1  0  0  0
  4  5  1  0  0  0
  4 93  1  0  0  0
  4 94  1  0  0  0
  5  6  1  0  0  0
  5 26  1  0  0  0
  5 95  1  0  0  0
  6 25  1  0  0  0
  6 96  1  0  0  0
  6 97  1  0  0  0
  7  8  2  0  0  0
  7 26  1  0  0  0
  7 29  1  0  0  0
  8  9  1  0  0  0
  8 22  1  0  0  0
  9 10  1  0  0  0
  9 27  2  0  0  0
 10 11  2  0  0  0
 10 15  1  0  0  0
 11 12  1  0  0  0
 11 98  1  0  0  0
 12 13  2  0  0  0
 12 99  1  0  0  0
 13 14  1  0  0  0
 13 31  1  0  0  0
 14 15  2  0  0  0
 14100  1  0  0  0
 15101  1  0  0  0
 16 17  2  0  0  0
 16 21  1  0  0  0
 16 31  1  0  0  0
 17 18  1  0  0  0
 17102  1  0  0  0
 18 19  2  0  0  0
 18103  1  0  0  0
 19 20  1  0  0  0
 19 24  1  0  0  0
 20 21  2  0  0  0
 20104  1  0  0  0
 21 23  1  0  0  0
 22 28  1  0  0  0
 22 32  2  0  0  0
 26 27  1  0  0  0
 28105  1  0  0  0
 28106  1  0  0  0
 29107  1  0  0  0
 29108  1  0  0  0
 33 34  1  0  0  0
 33 66  1  0  0  0
 33 70  2  0  0  0
 34 36  1  0  0  0
 34 59  1  0  0  0
 34109  1  0  0  0
 35 44  2  0  0  0
 35 45  1  0  0  0
 35 68  1  0  0  0
 36 56  1  0  0  0
 36110  1  0  0  0
 37 39  1  0  0  0
 37 47  1  0  0  0
 37 66  1  0  0  0
 37111  1  0  0  0
 38 43  2  0  0  0
 38 46  1  0  0  0
 38 47  1  0  0  0
 39 64  1  0  0  0
 39 67  2  0  0  0
 40 52  1  0  0  0
 40 53  2  0  0  0
 40 58  1  0  0  0
 41112  1  0  0  0
 41113  1  0  0  0
 41114  1  0  0  0
 41 48  1  0  0  0
 42 43  1  0  0  0
 42 66  1  0  0  0
 42115  1  0  0  0
 42116  1  0  0  0
 43 44  1  0  0  0
 44117  1  0  0  0
 45 46  2  0  0  0
 45118  1  0  0  0
 46119  1  0  0  0
 47120  1  0  0  0
 47121  1  0  0  0
 48 56  1  0  0  0
 48 65  1  0  0  0
 48122  1  0  0  0
 49 50  1  0  0  0
 49 53  1  0  0  0
 49 64  1  0  0  0
 49123  1  0  0  0
 50 51  1  0  0  0
 50124  1  0  0  0
 50125  1  0  0  0
 51 52  1  0  0  0
 51126  1  0  0  0
 51127  1  0  0  0
 52128  1  0  0  0
 52129  1  0  0  0
 53 54  1  0  0  0
 54 55  2  0  0  0
 54130  1  0  0  0
 55 57  1  0  0  0
 55131  1  0  0  0
 56 69  2  0  0  0
 57 58  2  0  0  0
 57132  1  0  0  0
 58133  1  0  0  0
 59 60  1  0  0  0
 59 61  1  0  0  0
 59 62  1  0  0  0
 60134  1  0  0  0
 60135  1  0  0  0
 60136  1  0  0  0
 61137  1  0  0  0
 61138  1  0  0  0
 61139  1  0  0  0
 62140  1  0  0  0
 62141  1  0  0  0
 62142  1  0  0  0
 63 65  1  0  0  0
 63143  1  0  0  0
 63144  1  0  0  0
 63145  1  0  0  0
 64146  1  0  0  0
 65147  1  0  0  0
 68 84  1  0  0  0
 71 72  2  0  0  0
 71 73  1  0  0  0
 71148  1  0  0  0
 72 74  1  0  0  0
 72149  1  0  0  0
 73 75  2  0  0  0
 73 79  1  0  0  0
 74 76  2  0  0  0
 74 80  1  0  0  0
 75 76  1  0  0  0
 75 77  1  0  0  0
 76 85  1  0  0  0
 77150  1  0  0  0
 77151  1  0  0  0
 77152  1  0  0  0
 78 88  1  0  0  0
 78153  1  0  0  0
 78154  1  0  0  0
 78155  1  0  0  0
 79 81  1  0  0  0
 79156  1  0  0  0
 79157  1  0  0  0
 80 86  1  0  0  0
 80158  1  0  0  0
 80159  1  0  0  0
 81 84  1  0  0  0
 81160  1  0  0  0
 81161  1  0  0  0
 82 83  1  0  0  0
 82 85  1  0  0  0
 82162  1  0  0  0
 82163  1  0  0  0
 83 88  1  0  0  0
 83164  1  0  0  0
 83165  1  0  0  0
 84166  1  0  0  0
 84167  1  0  0  0
 85 87  1  0  0  0
 85168  1  0  0  0
 86169  1  0  0  0
 87170  1  0  0  0
 87171  1  0  0  0
 87172  1  0  0  0
 88173  1  0  0  0
 88174  1  0  0  0
M  CHG  2  87   1  88   1
M  ISO  4   1 100  68 101  84 101  86 100
M  END
> <chiral flag>
0

> <version>
0

> <s_m_source_file>
/data/baiqing/PycharmProjects/Reinvent-master-3.2/result/LINK_invent/BTK/process_docking_weight1_custom_sum_contain_oxygen_bond_distance_aromatic_linkinvent_7_9_3/rearranged_h_0104.sdf

> <i_m_source_file_index>
39

> <r_mmod_Potential_Energy-OPLS-2005>
-289.767578125

> <r_mmod_Stretch_Energy-OPLS-2005>
100.740791320801

> <r_mmod_Bend_Energy-OPLS-2005>
210.957580566406

> <r_mmod_Torsional_Energy-OPLS-2005>
251.089477539062

> <r_mmod_Improper_Torsional_Energy-OPLS-2005>
8.43786334991455

> <r_mmod_Van_der_Waal_Energy-OPLS-2005>
160.995513916016

> <r_mmod_Electrostatic_Energy-OPLS-2005>
-65.9986419677734

> <r_mmod_Solvation_Energy-OPLS-2005>
-1011.61285400391

> <b_mmod_Minimization_Converged-OPLS-2005>
0

> <r_mmod_RMS_Derivative-OPLS-2005>
5.08281326293945

$$$$
39
                    3D
 Structure written by MMmdl.
147155  0  0  1  0            999 V2000
  -30.2678  -15.8568   20.3242 C   0  0  0  0  0  0
  -30.3927  -13.2570   19.5310 C   0  0  0  0  0  0
  -29.5470  -12.7100   18.3414 C   0  0  0  0  0  0
  -28.1440  -12.3042   18.8051 C   0  0  0  0  0  0
  -27.5837  -13.3338   19.8084 C   0  0  2  0  0  0
  -28.5857  -13.7827   20.9057 C   0  0  0  0  0  0
  -25.2276  -13.8332   20.5854 C   0  0  0  0  0  0
  -24.1688  -13.0444   20.9311 C   0  0  0  0  0  0
  -24.6424  -11.6964   20.8770 C   0  0  0  0  0  0
  -23.9134  -10.4298   21.0390 C   0  0  0  0  0  0
  -24.3663   -9.4210   21.9175 C   0  0  0  0  0  0
  -23.6320   -8.2253   22.0752 C   0  0  0  0  0  0
  -22.4300   -8.0292   21.3544 C   0  0  0  0  0  0
  -21.9950   -9.0268   20.4642 C   0  0  0  0  0  0
  -22.7297  -10.2138   20.3045 C   0  0  0  0  0  0
  -21.6862   -6.0743   22.5277 C   0  0  0  0  0  0
  -21.4021   -6.5643   23.8211 C   0  0  0  0  0  0
  -21.3661   -5.6795   24.9172 C   0  0  0  0  0  0
  -21.6044   -4.3057   24.7222 C   0  0  0  0  0  0
  -21.8818   -3.8150   23.4343 C   0  0  0  0  0  0
  -21.9196   -4.6969   22.3400 C   0  0  0  0  0  0
  -22.7694  -13.5152   21.1931 C   0  0  0  0  0  0
  -22.1662   -4.2154   21.0977 F   0  0  0  0  0  0
  -21.5627   -3.4540   25.7734 F   0  0  0  0  0  0
  -29.7137  -14.4750   20.2175 N   0  0  0  0  0  0
  -26.2747  -12.9709   20.3298 N   0  0  0  0  0  0
  -25.9381  -11.6749   20.5709 N   0  0  0  0  0  0
  -22.0367  -12.8120   22.0481 N   0  0  0  0  0  0
  -25.3854  -15.2078   20.4312 N   0  0  0  0  0  0
  -31.5027  -15.6774   20.2012 O   0  0  0  0  0  0
  -21.6654   -6.8893   21.4242 O   0  0  0  0  0  0
  -22.3362  -14.5446   20.6764 O   0  0  0  0  0  0
  -24.6986  -31.7815   23.1379 C   0  0  0  0  0  0
  -25.9492  -32.4374   23.7985 C   0  0  1  0  0  0
  -27.2302  -26.5427   20.2295 C   0  0  0  0  0  0
  -25.6007  -33.8208   24.1856 N   0  0  0  0  0  0
  -23.5322  -30.3760   21.4953 C   0  0  2  0  0  0
  -24.9911  -28.6836   20.1205 C   0  0  0  0  0  0
  -22.7834  -29.4215   22.4663 C   0  0  0  0  0  0
  -18.0349  -28.1431   22.8448 C   0  0  0  0  0  0
  -24.1493  -36.7109   23.2657 C   0  0  0  0  0  0
  -26.1189  -30.4610   21.4269 C   0  0  0  0  0  0
  -26.1819  -29.0083   20.7797 C   0  0  0  0  0  0
  -27.2778  -27.9702   20.7978 C   0  0  0  0  0  0
  -26.0064  -26.4687   19.5059 C   0  0  0  0  0  0
  -24.9520  -27.4420   19.4588 C   0  0  0  0  0  0
  -23.7950  -29.6585   20.1371 C   0  0  0  0  0  0
  -25.4150  -36.2839   24.0270 C   0  0  1  0  0  0
  -20.5992  -28.3797   23.1112 C   0  0  2  0  0  0
  -20.6805  -26.9440   22.5407 C   0  0  0  0  0  0
  -19.5784  -26.6365   21.5219 C   0  0  0  0  0  0
  -18.1966  -26.7956   22.1618 C   0  0  0  0  0  0
  -19.1620  -28.8941   23.2756 C   0  0  0  0  0  0
  -18.9524  -30.1521   23.8807 C   0  0  0  0  0  0
  -17.6512  -30.6609   24.0547 C   0  0  0  0  0  0
  -25.9142  -34.9235   23.4912 C   0  0  0  0  0  0
  -16.5399  -29.9088   23.6355 C   0  0  0  0  0  0
  -16.7328  -28.6512   23.0371 C   0  0  0  0  0  0
  -26.4620  -31.6479   25.0676 C   0  0  0  0  0  0
  -25.3643  -31.3844   26.1261 C   0  0  0  0  0  0
  -27.0580  -30.2800   24.6695 C   0  0  0  0  0  0
  -27.6037  -32.4380   25.7503 C   0  0  0  0  0  0
  -27.5556  -37.1708   24.8467 C   0  0  0  0  0  0
  -21.4467  -29.3012   22.3413 N   0  0  0  0  0  0
  -26.4260  -37.3619   23.9412 N   0  0  0  0  0  0
  -24.8085  -30.9101   22.0720 N   0  0  0  0  0  0
  -23.4203  -28.7841   23.3082 O   0  0  0  0  0  0
  -28.1711  -25.2519   20.3204 O   0  0  0  0  0  0
  -26.5805  -34.8845   22.4546 O   0  0  0  0  0  0
  -23.5970  -32.0965   23.6232 O   0  0  0  0  0  0
  -29.8879  -20.4661   19.6856 C   0  0  0  0  0  0
  -27.9692  -19.9954   20.5254 C   0  0  0  0  0  0
  -30.4428  -18.7933   20.0452 C   0  0  0  0  0  0
  -28.4776  -18.2898   20.8404 C   0  0  0  0  0  0
  -28.7797  -21.5379   20.4681 C   0  0  0  0  0  0
  -28.0510  -23.4252   20.1041 C   0  0  0  0  0  0
  -29.6840  -17.3757   20.2690 N   0  0  0  0  0  0
  -31.3683  -13.5347   19.1313 H   0  0  0  0  0  0
  -30.6083  -12.4639   20.2492 H   0  0  0  0  0  0
  -30.0486  -11.8644   17.8689 H   0  0  0  0  0  0
  -29.4650  -13.4850   17.5779 H   0  0  0  0  0  0
  -28.2185  -11.3301   19.2900 H   0  0  0  0  0  0
  -27.4736  -12.1783   17.9539 H   0  0  0  0  0  0
  -27.4087  -14.2173   19.1923 H   0  0  0  0  0  0
  -28.9049  -12.9505   21.5351 H   0  0  0  0  0  0
  -28.1065  -14.5000   21.5736 H   0  0  0  0  0  0
  -25.2800   -9.5683   22.4764 H   0  0  0  0  0  0
  -24.0017   -7.4647   22.7481 H   0  0  0  0  0  0
  -21.0878   -8.8799   19.8950 H   0  0  0  0  0  0
  -22.3754  -10.9680   19.6159 H   0  0  0  0  0  0
  -21.2016   -7.6152   23.9716 H   0  0  0  0  0  0
  -21.1483   -6.0524   25.9075 H   0  0  0  0  0  0
  -22.0595   -2.7612   23.2842 H   0  0  0  0  0  0
  -22.4021  -11.9802   22.4877 H   0  0  0  0  0  0
  -21.0969  -13.1102   22.2678 H   0  0  0  0  0  0
  -24.6150  -15.8567   20.5499 H   0  0  0  0  0  0
  -26.2354  -15.6543   20.1123 H   0  0  0  0  0  0
  -26.7589  -32.4804   23.0702 H   0  0  0  0  0  0
  -25.0042  -33.9220   24.9936 H   0  0  0  0  0  0
  -22.8666  -31.2173   21.2917 H   0  0  0  0  0  0
  -23.3781  -35.9410   23.3250 H   0  0  0  0  0  0
  -24.3555  -36.8852   22.2085 H   0  0  0  0  0  0
  -23.7227  -37.6251   23.6794 H   0  0  0  0  0  0
  -26.3387  -31.1750   20.6320 H   0  0  0  0  0  0
  -26.9636  -30.5345   22.0991 H   0  0  0  0  0  0
  -28.1686  -28.2294   21.3525 H   0  0  0  0  0  0
  -25.8133  -25.5381   18.9909 H   0  0  0  0  0  0
  -24.0579  -27.1821   18.9089 H   0  0  0  0  0  0
  -23.9835  -30.4121   19.3716 H   0  0  0  0  0  0
  -22.8965  -29.1332   19.8089 H   0  0  0  0  0  0
  -25.1365  -36.1575   25.0758 H   0  0  0  0  0  0
  -21.0070  -28.3435   24.1241 H   0  0  0  0  0  0
  -20.5654  -26.2425   23.3684 H   0  0  0  0  0  0
  -21.6665  -26.7357   22.1234 H   0  0  0  0  0  0
  -19.6937  -25.6253   21.1306 H   0  0  0  0  0  0
  -19.6732  -27.3127   20.6710 H   0  0  0  0  0  0
  -17.4237  -26.6701   21.4020 H   0  0  0  0  0  0
  -18.0347  -26.0119   22.9033 H   0  0  0  0  0  0
  -19.8000  -30.7359   24.2137 H   0  0  0  0  0  0
  -17.5063  -31.6280   24.5166 H   0  0  0  0  0  0
  -15.5397  -30.2962   23.7733 H   0  0  0  0  0  0
  -15.8729  -28.0801   22.7137 H   0  0  0  0  0  0
  -24.5863  -30.7162   25.7553 H   0  0  0  0  0  0
  -24.8798  -32.3081   26.4435 H   0  0  0  0  0  0
  -25.7779  -30.9168   27.0206 H   0  0  0  0  0  0
  -26.3328  -29.6361   24.1710 H   0  0  0  0  0  0
  -27.3965  -29.7314   25.5495 H   0  0  0  0  0  0
  -27.9323  -30.3888   24.0277 H   0  0  0  0  0  0
  -27.2558  -33.3774   26.1812 H   0  0  0  0  0  0
  -28.3980  -32.6794   25.0428 H   0  0  0  0  0  0
  -28.0561  -31.8695   26.5639 H   0  0  0  0  0  0
  -28.2527  -38.0045   24.7519 H   0  0  0  0  0  0
  -28.1097  -36.2564   24.6286 H   0  0  0  0  0  0
  -27.2272  -37.1329   25.8868 H   0  0  0  0  0  0
  -20.9810  -29.8645   21.6434 H   0  0  0  0  0  0
  -26.0070  -38.2657   24.1440 H   0  0  0  0  0  0
  -29.5696  -20.4340   18.6413 H   0  0  0  0  0  0
  -30.8115  -21.0437   19.6313 H   0  0  0  0  0  0
  -27.1595  -20.1586   21.2374 H   0  0  0  0  0  0
  -27.4334  -19.9361   19.5754 H   0  0  0  0  0  0
  -31.0627  -18.8886   20.9384 H   0  0  0  0  0  0
  -31.1673  -18.5649   19.2626 H   0  0  0  0  0  0
  -27.5875  -17.6844   20.6658 H   0  0  0  0  0  0
  -28.6135  -18.2320   21.9215 H   0  0  0  0  0  0
  -29.1787  -21.6640   21.4749 H   0  0  0  0  0  0
  -27.0604  -23.3092   20.5441 H   0  0  0  0  0  0
  -27.8517  -23.3763   19.0336 H   0  0  0  0  0  0
  1 25  1  0  0  0
  1 30  2  0  0  0
  1 77  1  0  0  0
  2  3  1  0  0  0
  2 25  1  0  0  0
  2 78  1  0  0  0
  2 79  1  0  0  0
  3  4  1  0  0  0
  3 80  1  0  0  0
  3 81  1  0  0  0
  4  5  1  0  0  0
  4 82  1  0  0  0
  4 83  1  0  0  0
  5  6  1  0  0  0
  5 26  1  0  0  0
  5 84  1  0  0  0
  6 25  1  0  0  0
  6 85  1  0  0  0
  6 86  1  0  0  0
  7  8  2  0  0  0
  7 26  1  0  0  0
  7 29  1  0  0  0
  8  9  1  0  0  0
  8 22  1  0  0  0
  9 10  1  0  0  0
  9 27  2  0  0  0
 10 11  2  0  0  0
 10 15  1  0  0  0
 11 12  1  0  0  0
 11 87  1  0  0  0
 12 13  2  0  0  0
 12 88  1  0  0  0
 13 14  1  0  0  0
 13 31  1  0  0  0
 14 15  2  0  0  0
 14 89  1  0  0  0
 15 90  1  0  0  0
 16 17  2  0  0  0
 16 21  1  0  0  0
 16 31  1  0  0  0
 17 18  1  0  0  0
 17 91  1  0  0  0
 18 19  2  0  0  0
 18 92  1  0  0  0
 19 20  1  0  0  0
 19 24  1  0  0  0
 20 21  2  0  0  0
 20 93  1  0  0  0
 21 23  1  0  0  0
 22 28  1  0  0  0
 22 32  2  0  0  0
 26 27  1  0  0  0
 28 94  1  0  0  0
 28 95  1  0  0  0
 29 96  1  0  0  0
 29 97  1  0  0  0
 33 34  1  0  0  0
 33 66  1  0  0  0
 33 70  2  0  0  0
 34 36  1  0  0  0
 34 59  1  0  0  0
 34 98  1  0  0  0
 35 44  2  0  0  0
 35 45  1  0  0  0
 35 68  1  0  0  0
 36 56  1  0  0  0
 36 99  1  0  0  0
 37 39  1  0  0  0
 37 47  1  0  0  0
 37 66  1  0  0  0
 37100  1  0  0  0
 38 43  2  0  0  0
 38 46  1  0  0  0
 38 47  1  0  0  0
 39 64  1  0  0  0
 39 67  2  0  0  0
 40 52  1  0  0  0
 40 53  2  0  0  0
 40 58  1  0  0  0
 41101  1  0  0  0
 41102  1  0  0  0
 41103  1  0  0  0
 41 48  1  0  0  0
 42 43  1  0  0  0
 42 66  1  0  0  0
 42104  1  0  0  0
 42105  1  0  0  0
 43 44  1  0  0  0
 44106  1  0  0  0
 45 46  2  0  0  0
 45107  1  0  0  0
 46108  1  0  0  0
 47109  1  0  0  0
 47110  1  0  0  0
 48 56  1  0  0  0
 48 65  1  0  0  0
 48111  1  0  0  0
 49 50  1  0  0  0
 49 53  1  0  0  0
 49 64  1  0  0  0
 49112  1  0  0  0
 50 51  1  0  0  0
 50113  1  0  0  0
 50114  1  0  0  0
 51 52  1  0  0  0
 51115  1  0  0  0
 51116  1  0  0  0
 52117  1  0  0  0
 52118  1  0  0  0
 53 54  1  0  0  0
 54 55  2  0  0  0
 54119  1  0  0  0
 55 57  1  0  0  0
 55120  1  0  0  0
 56 69  2  0  0  0
 57 58  2  0  0  0
 57121  1  0  0  0
 58122  1  0  0  0
 59 60  1  0  0  0
 59 61  1  0  0  0
 59 62  1  0  0  0
 60123  1  0  0  0
 60124  1  0  0  0
 60125  1  0  0  0
 61126  1  0  0  0
 61127  1  0  0  0
 61128  1  0  0  0
 62129  1  0  0  0
 62130  1  0  0  0
 62131  1  0  0  0
 63 65  1  0  0  0
 63132  1  0  0  0
 63133  1  0  0  0
 63134  1  0  0  0
 64135  1  0  0  0
 65136  1  0  0  0
 68 76  1  0  0  0
 71 73  1  0  0  0
 71 75  1  0  0  0
 71137  1  0  0  0
 71138  1  0  0  0
 72 74  1  0  0  0
 72 75  1  0  0  0
 72139  1  0  0  0
 72140  1  0  0  0
 73 77  1  0  0  0
 73141  1  0  0  0
 73142  1  0  0  0
 74 77  1  0  0  0
 74143  1  0  0  0
 74144  1  0  0  0
 75 76  1  0  0  0
 75145  1  0  0  0
 76146  1  0  0  0
 76147  1  0  0  0
M  ISO  4   1 100  68 101  76 101  77 100
M  END
> <chiral flag>
0

> <version>
0

> <s_m_source_file>
/data/baiqing/PycharmProjects/Reinvent-master-3.2/result/LINK_invent/BTK/process_docking_weight1_custom_sum_contain_oxygen_bond_distance_aromatic_linkinvent_7_9_3/rearranged_h_0104.sdf

> <i_m_source_file_index>
40

> <r_mmod_Potential_Energy-OPLS-2005>
3558.36840820312

> <r_mmod_Stretch_Energy-OPLS-2005>
1375.01708984375

> <r_mmod_Bend_Energy-OPLS-2005>
961.027893066406

> <r_mmod_Torsional_Energy-OPLS-2005>
310.429077148438

> <r_mmod_Improper_Torsional_Energy-OPLS-2005>
10.2289934158325

> <r_mmod_Van_der_Waal_Energy-OPLS-2005>
121.921272277832

> <r_mmod_Electrostatic_Energy-OPLS-2005>
-266.876007080078

> <r_mmod_Solvation_Energy-OPLS-2005>
-210.197875976562

> <b_mmod_Minimization_Converged-OPLS-2005>
0

> <r_mmod_RMS_Derivative-OPLS-2005>
0.203677028417587

$$$$
40
                    3D
 Structure written by MMmdl.
163171  0  0  1  0            999 V2000
  -30.4999  -15.0173   20.4371 C   0  0  0  0  0  0
  -30.4428  -12.6344   19.5319 C   0  0  0  0  0  0
  -29.5389  -12.5737   18.2754 C   0  0  0  0  0  0
  -28.0690  -12.3497   18.6723 C   0  0  0  0  0  0
  -27.6311  -13.2599   19.8478 C   0  0  2  0  0  0
  -28.6632  -13.2908   20.9969 C   0  0  0  0  0  0
  -25.2445  -13.8220   20.5734 C   0  0  0  0  0  0
  -24.1761  -13.0434   20.9208 C   0  0  0  0  0  0
  -24.6387  -11.6912   20.8710 C   0  0  0  0  0  0
  -23.9079  -10.4296   21.0433 C   0  0  0  0  0  0
  -24.3626   -9.4206   21.9191 C   0  0  0  0  0  0
  -23.6292   -8.2251   22.0727 C   0  0  0  0  0  0
  -22.4274   -8.0311   21.3553 C   0  0  0  0  0  0
  -21.9926   -9.0255   20.4638 C   0  0  0  0  0  0
  -22.7252  -10.2130   20.3054 C   0  0  0  0  0  0
  -21.6851   -6.0760   22.5312 C   0  0  0  0  0  0
  -21.4021   -6.5651   23.8245 C   0  0  0  0  0  0
  -21.3654   -5.6779   24.9182 C   0  0  0  0  0  0
  -21.6044   -4.3044   24.7239 C   0  0  0  0  0  0
  -21.8808   -3.8150   23.4343 C   0  0  0  0  0  0
  -21.9184   -4.6974   22.3411 C   0  0  0  0  0  0
  -22.7783  -13.5211   21.1874 C   0  0  0  0  0  0
  -22.1660   -4.2170   21.0979 F   0  0  0  0  0  0
  -21.5605   -3.4515   25.7746 F   0  0  0  0  0  0
  -29.9434  -13.7313   20.4228 N   0  0  0  0  0  0
  -26.2878  -12.9469   20.3232 N   0  0  0  0  0  0
  -25.9327  -11.6586   20.5665 N   0  0  0  0  0  0
  -22.0406  -12.8219   22.0443 N   0  0  0  0  0  0
  -25.4111  -15.1965   20.4307 N   0  0  0  0  0  0
  -31.6749  -15.1053   20.0509 O   0  0  0  0  0  0
  -21.6625   -6.8911   21.4282 O   0  0  0  0  0  0
  -22.3480  -14.5525   20.6725 O   0  0  0  0  0  0
  -24.6487  -31.8377   23.1815 C   0  0  0  0  0  0
  -25.9229  -32.4665   23.8232 C   0  0  1  0  0  0
  -27.2085  -27.0617   20.1567 C   0  0  0  0  0  0
  -25.5949  -33.8471   24.2144 N   0  0  0  0  0  0
  -23.4555  -30.4547   21.5286 C   0  0  2  0  0  0
  -24.9056  -28.8718   20.1003 C   0  0  0  0  0  0
  -22.7590  -29.4504   22.4812 C   0  0  0  0  0  0
  -18.0297  -28.1416   22.8468 C   0  0  0  0  0  0
  -24.1492  -36.7248   23.2642 C   0  0  0  0  0  0
  -26.0137  -30.6868   21.3911 C   0  0  0  0  0  0
  -26.0823  -29.2911   20.7338 C   0  0  0  0  0  0
  -27.2270  -28.4000   20.7487 C   0  0  0  0  0  0
  -26.0084  -26.7620   19.4755 C   0  0  0  0  0  0
  -24.8872  -27.6253   19.4564 C   0  0  0  0  0  0
  -23.6857  -29.7845   20.1464 C   0  0  0  0  0  0
  -25.4119  -36.3012   24.0309 C   0  0  1  0  0  0
  -20.5917  -28.3735   23.1229 C   0  0  2  0  0  0
  -20.6794  -26.9428   22.5410 C   0  0  0  0  0  0
  -19.5767  -26.6382   21.5223 C   0  0  0  0  0  0
  -18.1946  -26.7946   22.1622 C   0  0  0  0  0  0
  -19.1559  -28.8887   23.2843 C   0  0  0  0  0  0
  -18.9480  -30.1478   23.8886 C   0  0  0  0  0  0
  -17.6481  -30.6599   24.0566 C   0  0  0  0  0  0
  -25.9077  -34.9394   23.5045 C   0  0  0  0  0  0
  -16.5364  -29.9101   23.6341 C   0  0  0  0  0  0
  -16.7282  -28.6523   23.0355 C   0  0  0  0  0  0
  -26.4518  -31.6563   25.0708 C   0  0  0  0  0  0
  -25.3673  -31.3778   26.1381 C   0  0  0  0  0  0
  -27.0380  -30.2954   24.6328 C   0  0  0  0  0  0
  -27.6042  -32.4323   25.7501 C   0  0  0  0  0  0
  -27.5572  -37.1761   24.8434 C   0  0  0  0  0  0
  -21.4265  -29.3047   22.3580 N   0  0  0  0  0  0
  -26.4261  -37.3743   23.9417 N   0  0  0  0  0  0
  -24.7263  -31.0164   22.0892 N   0  0  0  0  0  0
  -23.4202  -28.8065   23.2984 O   0  0  0  0  0  0
  -28.2518  -26.0507   20.2959 O   0  0  0  0  0  0
  -26.5680  -34.8903   22.4630 O   0  0  0  0  0  0
  -23.5589  -32.1287   23.7007 O   0  0  0  0  0  0
  -28.6550  -17.9505   19.2569 C   0  0  0  0  0  0
  -29.7810  -18.9408   20.8760 C   0  0  0  0  0  0
  -29.5164  -17.6360   20.3488 C   0  0  0  0  0  0
  -28.4704  -19.3232   19.1325 C   0  0  0  0  0  0
  -27.6873  -20.0240   18.0686 C   0  0  0  0  0  0
  -28.9490  -23.3808   21.9708 C   0  0  0  0  0  0
  -26.9834  -22.5272   20.7553 C   0  0  0  0  0  0
  -29.3804  -21.6629   20.0706 C   0  0  0  0  0  0
  -29.5269  -24.7068   18.7571 C   0  0  0  0  0  0
  -28.3355  -24.5626   19.7329 C   0  0  1  0  0  0
  -28.4297  -23.0292   20.5654 C   0  0  0  0  0  0
  -29.1688  -20.0502   20.1134 N   0  0  0  0  0  0
  -29.7360  -16.1695   20.8288 N   0  0  0  0  0  0
  -29.3451  -25.8195   17.7946 N   0  3  0  0  0  0
  -31.4833  -12.7859   19.2427 H   0  0  0  0  0  0
  -30.4237  -11.6806   20.0597 H   0  0  0  0  0  0
  -29.8707  -11.7869   17.5964 H   0  0  0  0  0  0
  -29.6299  -13.5114   17.7237 H   0  0  0  0  0  0
  -27.9635  -11.3011   18.9507 H   0  0  0  0  0  0
  -27.4194  -12.5075   17.8120 H   0  0  0  0  0  0
  -27.5927  -14.2658   19.4297 H   0  0  0  0  0  0
  -28.7601  -12.3065   21.4578 H   0  0  0  0  0  0
  -28.3352  -13.9670   21.7867 H   0  0  0  0  0  0
  -25.2806   -9.5634   22.4719 H   0  0  0  0  0  0
  -24.0007   -7.4631   22.7421 H   0  0  0  0  0  0
  -21.0844   -8.8767   19.8960 H   0  0  0  0  0  0
  -22.3745  -10.9632   19.6129 H   0  0  0  0  0  0
  -21.2040   -7.6170   23.9751 H   0  0  0  0  0  0
  -21.1480   -6.0513   25.9082 H   0  0  0  0  0  0
  -22.0593   -2.7616   23.2831 H   0  0  0  0  0  0
  -22.4034  -11.9918   22.4895 H   0  0  0  0  0  0
  -21.1007  -13.1226   22.2593 H   0  0  0  0  0  0
  -24.6411  -15.8458   20.5524 H   0  0  0  0  0  0
  -26.2657  -15.6531   20.1401 H   0  0  0  0  0  0
  -26.7305  -32.5248   23.0962 H   0  0  0  0  0  0
  -25.0020  -33.9566   25.0243 H   0  0  0  0  0  0
  -22.7641  -31.2839   21.3731 H   0  0  0  0  0  0
  -23.3774  -35.9554   23.3229 H   0  0  0  0  0  0
  -24.3596  -36.8969   22.2076 H   0  0  0  0  0  0
  -23.7230  -37.6411   23.6740 H   0  0  0  0  0  0
  -26.1738  -31.4370   20.6154 H   0  0  0  0  0  0
  -26.8839  -30.7416   22.0326 H   0  0  0  0  0  0
  -28.1148  -28.7108   21.2836 H   0  0  0  0  0  0
  -25.8774  -25.8091   18.9887 H   0  0  0  0  0  0
  -23.9892  -27.2989   18.9504 H   0  0  0  0  0  0
  -23.8288  -30.5626   19.3958 H   0  0  0  0  0  0
  -22.7957  -29.2380   19.8310 H   0  0  0  0  0  0
  -25.1308  -36.1824   25.0797 H   0  0  0  0  0  0
  -21.0000  -28.3343   24.1355 H   0  0  0  0  0  0
  -20.5702  -26.2341   23.3632 H   0  0  0  0  0  0
  -21.6667  -26.7435   22.1215 H   0  0  0  0  0  0
  -19.6936  -25.6288   21.1275 H   0  0  0  0  0  0
  -19.6724  -27.3177   20.6751 H   0  0  0  0  0  0
  -17.4214  -26.6675   21.4031 H   0  0  0  0  0  0
  -18.0332  -26.0107   22.9031 H   0  0  0  0  0  0
  -19.7950  -30.7288   24.2274 H   0  0  0  0  0  0
  -17.5026  -31.6280   24.5154 H   0  0  0  0  0  0
  -15.5368  -30.3004   23.7664 H   0  0  0  0  0  0
  -15.8674  -28.0829   22.7096 H   0  0  0  0  0  0
  -24.5847  -30.7140   25.7685 H   0  0  0  0  0  0
  -24.8872  -32.2975   26.4738 H   0  0  0  0  0  0
  -25.7923  -30.8983   27.0206 H   0  0  0  0  0  0
  -26.3009  -29.6670   24.1319 H   0  0  0  0  0  0
  -27.3954  -29.7270   25.4924 H   0  0  0  0  0  0
  -27.8933  -30.4180   23.9680 H   0  0  0  0  0  0
  -27.2639  -33.3644   26.2018 H   0  0  0  0  0  0
  -28.3893  -32.6837   25.0360 H   0  0  0  0  0  0
  -28.0654  -31.8481   26.5473 H   0  0  0  0  0  0
  -28.2514  -38.0130   24.7573 H   0  0  0  0  0  0
  -28.1150  -36.2667   24.6141 H   0  0  0  0  0  0
  -27.2302  -37.1265   25.8833 H   0  0  0  0  0  0
  -20.9480  -29.8755   21.6753 H   0  0  0  0  0  0
  -26.0115  -38.2788   24.1496 H   0  0  0  0  0  0
  -28.1944  -17.2251   18.6000 H   0  0  0  0  0  0
  -30.3854  -19.1992   21.7371 H   0  0  0  0  0  0
  -27.2767  -19.3107   17.3524 H   0  0  0  0  0  0
  -28.3134  -20.7202   17.5107 H   0  0  0  0  0  0
  -26.8505  -20.5731   18.4946 H   0  0  0  0  0  0
  -28.9383  -22.5130   22.6326 H   0  0  0  0  0  0
  -28.3385  -24.1562   22.4369 H   0  0  0  0  0  0
  -29.9732  -23.7530   21.9319 H   0  0  0  0  0  0
  -26.9564  -21.5968   21.3270 H   0  0  0  0  0  0
  -26.4995  -22.3421   19.7982 H   0  0  0  0  0  0
  -26.3675  -23.2534   21.2910 H   0  0  0  0  0  0
  -30.3763  -21.8212   20.4839 H   0  0  0  0  0  0
  -29.5532  -21.8453   19.0144 H   0  0  0  0  0  0
  -29.6660  -23.8042   18.1678 H   0  0  0  0  0  0
  -30.4502  -24.8614   19.3167 H   0  0  0  0  0  0
  -27.4740  -24.4381   19.0811 H   0  0  0  0  0  0
  -28.9193  -15.8350   21.3179 H   0  0  0  0  0  0
  -28.5211  -25.6901   17.2322 H   0  0  0  0  0  0
  -30.1317  -25.8870   17.1710 H   0  0  0  0  0  0
  -29.2577  -26.6928   18.2870 H   0  0  0  0  0  0
  1 25  1  0  0  0
  1 30  2  0  0  0
  1 83  1  0  0  0
  2  3  1  0  0  0
  2 25  1  0  0  0
  2 85  1  0  0  0
  2 86  1  0  0  0
  3  4  1  0  0  0
  3 87  1  0  0  0
  3 88  1  0  0  0
  4  5  1  0  0  0
  4 89  1  0  0  0
  4 90  1  0  0  0
  5  6  1  0  0  0
  5 26  1  0  0  0
  5 91  1  0  0  0
  6 25  1  0  0  0
  6 92  1  0  0  0
  6 93  1  0  0  0
  7  8  2  0  0  0
  7 26  1  0  0  0
  7 29  1  0  0  0
  8  9  1  0  0  0
  8 22  1  0  0  0
  9 10  1  0  0  0
  9 27  2  0  0  0
 10 11  2  0  0  0
 10 15  1  0  0  0
 11 12  1  0  0  0
 11 94  1  0  0  0
 12 13  2  0  0  0
 12 95  1  0  0  0
 13 14  1  0  0  0
 13 31  1  0  0  0
 14 15  2  0  0  0
 14 96  1  0  0  0
 15 97  1  0  0  0
 16 17  2  0  0  0
 16 21  1  0  0  0
 16 31  1  0  0  0
 17 18  1  0  0  0
 17 98  1  0  0  0
 18 19  2  0  0  0
 18 99  1  0  0  0
 19 20  1  0  0  0
 19 24  1  0  0  0
 20 21  2  0  0  0
 20100  1  0  0  0
 21 23  1  0  0  0
 22 28  1  0  0  0
 22 32  2  0  0  0
 26 27  1  0  0  0
 28101  1  0  0  0
 28102  1  0  0  0
 29103  1  0  0  0
 29104  1  0  0  0
 33 34  1  0  0  0
 33 66  1  0  0  0
 33 70  2  0  0  0
 34 36  1  0  0  0
 34 59  1  0  0  0
 34105  1  0  0  0
 35 44  2  0  0  0
 35 45  1  0  0  0
 35 68  1  0  0  0
 36 56  1  0  0  0
 36106  1  0  0  0
 37 39  1  0  0  0
 37 47  1  0  0  0
 37 66  1  0  0  0
 37107  1  0  0  0
 38 43  2  0  0  0
 38 46  1  0  0  0
 38 47  1  0  0  0
 39 64  1  0  0  0
 39 67  2  0  0  0
 40 52  1  0  0  0
 40 53  2  0  0  0
 40 58  1  0  0  0
 41108  1  0  0  0
 41109  1  0  0  0
 41110  1  0  0  0
 41 48  1  0  0  0
 42 43  1  0  0  0
 42 66  1  0  0  0
 42111  1  0  0  0
 42112  1  0  0  0
 43 44  1  0  0  0
 44113  1  0  0  0
 45 46  2  0  0  0
 45114  1  0  0  0
 46115  1  0  0  0
 47116  1  0  0  0
 47117  1  0  0  0
 48 56  1  0  0  0
 48 65  1  0  0  0
 48118  1  0  0  0
 49 50  1  0  0  0
 49 53  1  0  0  0
 49 64  1  0  0  0
 49119  1  0  0  0
 50 51  1  0  0  0
 50120  1  0  0  0
 50121  1  0  0  0
 51 52  1  0  0  0
 51122  1  0  0  0
 51123  1  0  0  0
 52124  1  0  0  0
 52125  1  0  0  0
 53 54  1  0  0  0
 54 55  2  0  0  0
 54126  1  0  0  0
 55 57  1  0  0  0
 55127  1  0  0  0
 56 69  2  0  0  0
 57 58  2  0  0  0
 57128  1  0  0  0
 58129  1  0  0  0
 59 60  1  0  0  0
 59 61  1  0  0  0
 59 62  1  0  0  0
 60130  1  0  0  0
 60131  1  0  0  0
 60132  1  0  0  0
 61133  1  0  0  0
 61134  1  0  0  0
 61135  1  0  0  0
 62136  1  0  0  0
 62137  1  0  0  0
 62138  1  0  0  0
 63 65  1  0  0  0
 63139  1  0  0  0
 63140  1  0  0  0
 63141  1  0  0  0
 64142  1  0  0  0
 65143  1  0  0  0
 68 80  1  0  0  0
 71 73  1  0  0  0
 71 74  2  0  0  0
 71144  1  0  0  0
 72 73  2  0  0  0
 72 82  1  0  0  0
 72145  1  0  0  0
 73 83  1  0  0  0
 74 75  1  0  0  0
 74 82  1  0  0  0
 75146  1  0  0  0
 75147  1  0  0  0
 75148  1  0  0  0
 76149  1  0  0  0
 76150  1  0  0  0
 76151  1  0  0  0
 76 81  1  0  0  0
 77 81  1  0  0  0
 77152  1  0  0  0
 77153  1  0  0  0
 77154  1  0  0  0
 78 81  1  0  0  0
 78 82  1  0  0  0
 78155  1  0  0  0
 78156  1  0  0  0
 79 84  1  0  0  0
 79157  1  0  0  0
 79158  1  0  0  0
 79 80  1  0  0  0
 80 81  1  0  0  0
 80159  1  0  0  0
 83160  1  0  0  0
 84161  1  0  0  0
 84162  1  0  0  0
 84163  1  0  0  0
M  CHG  1  84   1
M  ISO  4   1 100  68 101  80 101  83 100
M  END
> <chiral flag>
0

> <version>
0

> <s_m_source_file>
/data/baiqing/PycharmProjects/Reinvent-master-3.2/result/LINK_invent/BTK/process_docking_weight1_custom_sum_contain_oxygen_bond_distance_aromatic_linkinvent_7_9_3/rearranged_h_0104.sdf

> <i_m_source_file_index>
41

> <r_mmod_Potential_Energy-OPLS-2005>
614.1455078125

> <r_mmod_Stretch_Energy-OPLS-2005>
354.33447265625

> <r_mmod_Bend_Energy-OPLS-2005>
368.621917724609

> <r_mmod_Torsional_Energy-OPLS-2005>
293.241088867188

> <r_mmod_Improper_Torsional_Energy-OPLS-2005>
8.14408588409424

> <r_mmod_Van_der_Waal_Energy-OPLS-2005>
104.229988098145

> <r_mmod_Electrostatic_Energy-OPLS-2005>
-284.851135253906

> <r_mmod_Solvation_Energy-OPLS-2005>
-483.250244140625

> <b_mmod_Minimization_Converged-OPLS-2005>
0

> <r_mmod_RMS_Derivative-OPLS-2005>
4.4403190612793

$$$$
41
                    3D
 Structure written by MMmdl.
158165  0  0  1  0            999 V2000
  -30.6190  -14.6762   20.4795 C   0  0  0  0  0  0
  -30.4290  -12.4124   19.4666 C   0  0  0  0  0  0
  -29.5069  -12.5077   18.2297 C   0  0  0  0  0  0
  -28.0310  -12.3401   18.6420 C   0  0  0  0  0  0
  -27.6467  -13.2236   19.8595 C   0  0  2  0  0  0
  -28.6888  -13.1176   20.9960 C   0  0  0  0  0  0
  -25.2514  -13.8174   20.5676 C   0  0  0  0  0  0
  -24.1802  -13.0420   20.9203 C   0  0  0  0  0  0
  -24.6393  -11.6902   20.8762 C   0  0  0  0  0  0
  -23.9080  -10.4281   21.0426 C   0  0  0  0  0  0
  -24.3635   -9.4193   21.9197 C   0  0  0  0  0  0
  -23.6308   -8.2228   22.0757 C   0  0  0  0  0  0
  -22.4293   -8.0276   21.3547 C   0  0  0  0  0  0
  -21.9930   -9.0246   20.4642 C   0  0  0  0  0  0
  -22.7257  -10.2124   20.3067 C   0  0  0  0  0  0
  -21.6838   -6.0744   22.5298 C   0  0  0  0  0  0
  -21.4000   -6.5650   23.8234 C   0  0  0  0  0  0
  -21.3656   -5.6806   24.9192 C   0  0  0  0  0  0
  -21.6044   -4.3072   24.7244 C   0  0  0  0  0  0
  -21.8811   -3.8158   23.4367 C   0  0  0  0  0  0
  -21.9178   -4.6972   22.3424 C   0  0  0  0  0  0
  -22.7828  -13.5200   21.1876 C   0  0  0  0  0  0
  -22.1653   -4.2154   21.1003 F   0  0  0  0  0  0
  -21.5635   -3.4565   25.7763 F   0  0  0  0  0  0
  -29.9971  -13.4555   20.4226 N   0  0  0  0  0  0
  -26.2953  -12.9385   20.3307 N   0  0  0  0  0  0
  -25.9321  -11.6529   20.5768 N   0  0  0  0  0  0
  -22.0474  -12.8182   22.0439 N   0  0  0  0  0  0
  -25.4170  -15.1900   20.4094 N   0  0  0  0  0  0
  -31.7973  -14.7990   20.1331 O   0  0  0  0  0  0
  -21.6634   -6.8891   21.4262 O   0  0  0  0  0  0
  -22.3517  -14.5514   20.6742 O   0  0  0  0  0  0
  -24.6251  -31.8564   23.1967 C   0  0  0  0  0  0
  -25.9100  -32.4740   23.8306 C   0  0  1  0  0  0
  -27.2292  -27.3058   20.1154 C   0  0  0  0  0  0
  -25.5918  -33.8544   24.2237 N   0  0  0  0  0  0
  -23.4191  -30.4743   21.5403 C   0  0  2  0  0  0
  -24.8660  -28.9202   20.1091 C   0  0  0  0  0  0
  -22.7463  -29.4592   22.4936 C   0  0  0  0  0  0
  -18.0280  -28.1377   22.8475 C   0  0  0  0  0  0
  -24.1497  -36.7292   23.2641 C   0  0  0  0  0  0
  -25.9581  -30.7798   21.3708 C   0  0  0  0  0  0
  -26.0311  -29.4044   20.7153 C   0  0  0  0  0  0
  -27.2107  -28.6057   20.7114 C   0  0  0  0  0  0
  -26.0417  -26.8659   19.4934 C   0  0  0  0  0  0
  -24.8733  -27.6564   19.4913 C   0  0  0  0  0  0
  -23.6330  -29.7990   20.1585 C   0  0  0  0  0  0
  -25.4118  -36.3056   24.0319 C   0  0  1  0  0  0
  -20.5873  -28.3674   23.1293 C   0  0  2  0  0  0
  -20.6764  -26.9398   22.5418 C   0  0  0  0  0  0
  -19.5752  -26.6375   21.5206 C   0  0  0  0  0  0
  -18.1928  -26.7919   22.1615 C   0  0  0  0  0  0
  -19.1535  -28.8842   23.2874 C   0  0  0  0  0  0
  -18.9457  -30.1451   23.8888 C   0  0  0  0  0  0
  -17.6460  -30.6582   24.0552 C   0  0  0  0  0  0
  -25.9057  -34.9427   23.5080 C   0  0  0  0  0  0
  -16.5344  -29.9076   23.6334 C   0  0  0  0  0  0
  -16.7266  -28.6493   23.0342 C   0  0  0  0  0  0
  -26.4489  -31.6559   25.0690 C   0  0  0  0  0  0
  -25.3725  -31.3704   26.1422 C   0  0  0  0  0  0
  -27.0341  -30.2978   24.6170 C   0  0  0  0  0  0
  -27.6040  -32.4303   25.7474 C   0  0  0  0  0  0
  -27.5578  -37.1794   24.8457 C   0  0  0  0  0  0
  -21.4176  -29.3027   22.3695 N   0  0  0  0  0  0
  -26.4290  -37.3758   23.9401 N   0  0  0  0  0  0
  -24.6858  -31.0550   22.0924 N   0  0  0  0  0  0
  -23.4184  -28.8160   23.3043 O   0  0  0  0  0  0
  -28.3747  -26.5003   20.1883 O   0  0  0  0  0  0
  -26.5646  -34.8905   22.4662 O   0  0  0  0  0  0
  -23.5422  -32.1378   23.7298 O   0  0  0  0  0  0
  -28.5143  -24.0580   21.9548 C   0  0  0  0  0  0
  -27.1529  -20.7279   20.0704 C   0  0  0  0  0  0
  -29.1320  -18.4093   20.6732 C   0  0  0  0  0  0
  -30.2158  -17.2387   20.4545 C   0  0  0  0  0  0
  -29.5123  -19.9194   20.2302 C   0  0  0  0  0  0
  -28.9485  -22.4562   19.9579 C   0  0  0  0  0  0
  -28.4958  -25.1341   19.6186 C   0  0  0  0  0  0
  -28.2023  -23.8022   20.4697 C   0  0  2  0  0  0
  -29.8371  -15.7890   20.7070 N   0  0  0  0  0  0
  -28.5306  -21.0766   20.4956 N   0  3  1  0  0  0
  -31.4726  -12.5240   19.1708 H   0  0  0  0  0  0
  -30.3535  -11.4256   19.9246 H   0  0  0  0  0  0
  -29.7764  -11.7502   17.4913 H   0  0  0  0  0  0
  -29.6432  -13.4731   17.7402 H   0  0  0  0  0  0
  -27.8734  -11.2879   18.8839 H   0  0  0  0  0  0
  -27.3754  -12.5583   17.7982 H   0  0  0  0  0  0
  -27.6544  -14.2524   19.4998 H   0  0  0  0  0  0
  -28.7093  -12.1102   21.4120 H   0  0  0  0  0  0
  -28.4329  -13.7808   21.8242 H   0  0  0  0  0  0
  -25.2778   -9.5658   22.4769 H   0  0  0  0  0  0
  -24.0007   -7.4617   22.7477 H   0  0  0  0  0  0
  -21.0863   -8.8770   19.8944 H   0  0  0  0  0  0
  -22.3725  -10.9672   19.6185 H   0  0  0  0  0  0
  -21.1989   -7.6153   23.9745 H   0  0  0  0  0  0
  -21.1487   -6.0535   25.9101 H   0  0  0  0  0  0
  -22.0587   -2.7616   23.2871 H   0  0  0  0  0  0
  -22.4111  -11.9851   22.4819 H   0  0  0  0  0  0
  -21.1086  -13.1188   22.2645 H   0  0  0  0  0  0
  -24.6371  -15.8303   20.5127 H   0  0  0  0  0  0
  -26.2546  -15.6396   20.0636 H   0  0  0  0  0  0
  -26.7162  -32.5396   23.1052 H   0  0  0  0  0  0
  -25.0016  -33.9678   25.0346 H   0  0  0  0  0  0
  -22.7137  -31.2941   21.3904 H   0  0  0  0  0  0
  -23.3744  -35.9638   23.3283 H   0  0  0  0  0  0
  -24.3592  -36.8942   22.2060 H   0  0  0  0  0  0
  -23.7267  -37.6490   23.6689 H   0  0  0  0  0  0
  -26.0915  -31.5420   20.6008 H   0  0  0  0  0  0
  -26.8381  -30.8294   21.9998 H   0  0  0  0  0  0
  -28.1057  -28.9701   21.1964 H   0  0  0  0  0  0
  -25.9910  -25.8952   19.0230 H   0  0  0  0  0  0
  -23.9777  -27.2753   19.0206 H   0  0  0  0  0  0
  -23.7478  -30.5677   19.3937 H   0  0  0  0  0  0
  -22.7551  -29.2217   19.8625 H   0  0  0  0  0  0
  -25.1300  -36.1890   25.0812 H   0  0  0  0  0  0
  -20.9951  -28.3236   24.1414 H   0  0  0  0  0  0
  -20.5643  -26.2278   23.3609 H   0  0  0  0  0  0
  -21.6632  -26.7419   22.1219 H   0  0  0  0  0  0
  -19.6908  -25.6284   21.1233 H   0  0  0  0  0  0
  -19.6688  -27.3184   20.6732 H   0  0  0  0  0  0
  -17.4188  -26.6653   21.4015 H   0  0  0  0  0  0
  -18.0333  -26.0060   22.9018 H   0  0  0  0  0  0
  -19.7932  -30.7267   24.2239 H   0  0  0  0  0  0
  -17.5012  -31.6258   24.5160 H   0  0  0  0  0  0
  -15.5347  -30.2973   23.7670 H   0  0  0  0  0  0
  -15.8661  -28.0819   22.7057 H   0  0  0  0  0  0
  -24.5893  -30.7055   25.7754 H   0  0  0  0  0  0
  -24.8923  -32.2872   26.4855 H   0  0  0  0  0  0
  -25.8056  -30.8873   27.0190 H   0  0  0  0  0  0
  -26.2919  -29.6712   24.1209 H   0  0  0  0  0  0
  -27.4039  -29.7254   25.4685 H   0  0  0  0  0  0
  -27.8783  -30.4251   23.9394 H   0  0  0  0  0  0
  -27.2631  -33.3598   26.2056 H   0  0  0  0  0  0
  -28.3853  -32.6873   25.0303 H   0  0  0  0  0  0
  -28.0705  -31.8420   26.5388 H   0  0  0  0  0  0
  -28.2573  -38.0112   24.7513 H   0  0  0  0  0  0
  -28.1098  -36.2638   24.6264 H   0  0  0  0  0  0
  -27.2302  -37.1416   25.8864 H   0  0  0  0  0  0
  -20.9361  -29.8750   21.6899 H   0  0  0  0  0  0
  -26.0158  -38.2827   24.1400 H   0  0  0  0  0  0
  -28.2210  -23.2160   22.5806 H   0  0  0  0  0  0
  -27.9719  -24.9306   22.3223 H   0  0  0  0  0  0
  -29.5769  -24.2405   22.1143 H   0  0  0  0  0  0
  -26.7782  -19.8596   20.6129 H   0  0  0  0  0  0
  -27.1174  -20.5002   19.0035 H   0  0  0  0  0  0
  -26.4502  -21.5358   20.2653 H   0  0  0  0  0  0
  -28.8562  -18.4213   21.7281 H   0  0  0  0  0  0
  -28.2312  -18.1164   20.1355 H   0  0  0  0  0  0
  -31.0942  -17.4602   21.0621 H   0  0  0  0  0  0
  -30.5579  -17.2937   19.4201 H   0  0  0  0  0  0
  -29.7230  -19.9080   19.1605 H   0  0  0  0  0  0
  -30.4579  -20.1794   20.7057 H   0  0  0  0  0  0
  -30.0131  -22.5778   20.1625 H   0  0  0  0  0  0
  -28.8734  -22.4141   18.8699 H   0  0  0  0  0  0
  -27.9810  -25.0792   18.6591 H   0  0  0  0  0  0
  -29.5479  -25.0770   19.3412 H   0  0  0  0  0  0
  -27.1257  -23.6536   20.3973 H   0  0  0  0  0  0
  -28.8806  -15.6038   20.9717 H   0  0  0  0  0  0
  -28.4988  -21.1732   21.4993 H   0  0  0  0  0  0
  1 25  1  0  0  0
  1 30  2  0  0  0
  1 79  1  0  0  0
  2  3  1  0  0  0
  2 25  1  0  0  0
  2 81  1  0  0  0
  2 82  1  0  0  0
  3  4  1  0  0  0
  3 83  1  0  0  0
  3 84  1  0  0  0
  4  5  1  0  0  0
  4 85  1  0  0  0
  4 86  1  0  0  0
  5  6  1  0  0  0
  5 26  1  0  0  0
  5 87  1  0  0  0
  6 25  1  0  0  0
  6 88  1  0  0  0
  6 89  1  0  0  0
  7  8  2  0  0  0
  7 26  1  0  0  0
  7 29  1  0  0  0
  8  9  1  0  0  0
  8 22  1  0  0  0
  9 10  1  0  0  0
  9 27  2  0  0  0
 10 11  2  0  0  0
 10 15  1  0  0  0
 11 12  1  0  0  0
 11 90  1  0  0  0
 12 13  2  0  0  0
 12 91  1  0  0  0
 13 14  1  0  0  0
 13 31  1  0  0  0
 14 15  2  0  0  0
 14 92  1  0  0  0
 15 93  1  0  0  0
 16 17  2  0  0  0
 16 21  1  0  0  0
 16 31  1  0  0  0
 17 18  1  0  0  0
 17 94  1  0  0  0
 18 19  2  0  0  0
 18 95  1  0  0  0
 19 20  1  0  0  0
 19 24  1  0  0  0
 20 21  2  0  0  0
 20 96  1  0  0  0
 21 23  1  0  0  0
 22 28  1  0  0  0
 22 32  2  0  0  0
 26 27  1  0  0  0
 28 97  1  0  0  0
 28 98  1  0  0  0
 29 99  1  0  0  0
 29100  1  0  0  0
 33 34  1  0  0  0
 33 66  1  0  0  0
 33 70  2  0  0  0
 34 36  1  0  0  0
 34 59  1  0  0  0
 34101  1  0  0  0
 35 44  2  0  0  0
 35 45  1  0  0  0
 35 68  1  0  0  0
 36 56  1  0  0  0
 36102  1  0  0  0
 37 39  1  0  0  0
 37 47  1  0  0  0
 37 66  1  0  0  0
 37103  1  0  0  0
 38 43  2  0  0  0
 38 46  1  0  0  0
 38 47  1  0  0  0
 39 64  1  0  0  0
 39 67  2  0  0  0
 40 52  1  0  0  0
 40 53  2  0  0  0
 40 58  1  0  0  0
 41104  1  0  0  0
 41105  1  0  0  0
 41106  1  0  0  0
 41 48  1  0  0  0
 42 43  1  0  0  0
 42 66  1  0  0  0
 42107  1  0  0  0
 42108  1  0  0  0
 43 44  1  0  0  0
 44109  1  0  0  0
 45 46  2  0  0  0
 45110  1  0  0  0
 46111  1  0  0  0
 47112  1  0  0  0
 47113  1  0  0  0
 48 56  1  0  0  0
 48 65  1  0  0  0
 48114  1  0  0  0
 49 50  1  0  0  0
 49 53  1  0  0  0
 49 64  1  0  0  0
 49115  1  0  0  0
 50 51  1  0  0  0
 50116  1  0  0  0
 50117  1  0  0  0
 51 52  1  0  0  0
 51118  1  0  0  0
 51119  1  0  0  0
 52120  1  0  0  0
 52121  1  0  0  0
 53 54  1  0  0  0
 54 55  2  0  0  0
 54122  1  0  0  0
 55 57  1  0  0  0
 55123  1  0  0  0
 56 69  2  0  0  0
 57 58  2  0  0  0
 57124  1  0  0  0
 58125  1  0  0  0
 59 60  1  0  0  0
 59 61  1  0  0  0
 59 62  1  0  0  0
 60126  1  0  0  0
 60127  1  0  0  0
 60128  1  0  0  0
 61129  1  0  0  0
 61130  1  0  0  0
 61131  1  0  0  0
 62132  1  0  0  0
 62133  1  0  0  0
 62134  1  0  0  0
 63 65  1  0  0  0
 63135  1  0  0  0
 63136  1  0  0  0
 63137  1  0  0  0
 64138  1  0  0  0
 65139  1  0  0  0
 68 77  1  0  0  0
 71140  1  0  0  0
 71141  1  0  0  0
 71142  1  0  0  0
 71 78  1  0  0  0
 72143  1  0  0  0
 72144  1  0  0  0
 72145  1  0  0  0
 72 80  1  0  0  0
 73 74  1  0  0  0
 73 75  1  0  0  0
 73146  1  0  0  0
 73147  1  0  0  0
 74 79  1  0  0  0
 74148  1  0  0  0
 74149  1  0  0  0
 75 80  1  0  0  0
 75150  1  0  0  0
 75151  1  0  0  0
 76 78  1  0  0  0
 76 80  1  0  0  0
 76152  1  0  0  0
 76153  1  0  0  0
 77 78  1  0  0  0
 77154  1  0  0  0
 77155  1  0  0  0
 78156  1  0  0  0
 79157  1  0  0  0
 80158  1  0  0  0
M  CHG  1  80   1
M  ISO  4   1 100  68 101  77 101  79 100
M  END
> <chiral flag>
0

> <version>
0

> <s_m_source_file>
/data/baiqing/PycharmProjects/Reinvent-master-3.2/result/LINK_invent/BTK/process_docking_weight1_custom_sum_contain_oxygen_bond_distance_aromatic_linkinvent_7_9_3/rearranged_h_0104.sdf

> <i_m_source_file_index>
42

> <r_mmod_Potential_Energy-OPLS-2005>
-24.8804321289062

> <r_mmod_Stretch_Energy-OPLS-2005>
103.623657226562

> <r_mmod_Bend_Energy-OPLS-2005>
163.001953125

> <r_mmod_Torsional_Energy-OPLS-2005>
215.459625244141

> <r_mmod_Improper_Torsional_Energy-OPLS-2005>
5.33439159393311

> <r_mmod_Van_der_Waal_Energy-OPLS-2005>
116.814056396484

> <r_mmod_Electrostatic_Energy-OPLS-2005>
-225.160415649414

> <r_mmod_Solvation_Energy-OPLS-2005>
-460.953247070312

> <b_mmod_Minimization_Converged-OPLS-2005>
0

> <r_mmod_RMS_Derivative-OPLS-2005>
2.11117672920227

$$$$
42
                    3D
 Structure written by MMmdl.
147155  0  0  1  0            999 V2000
  -30.2080  -15.8793   20.3025 C   0  0  0  0  0  0
  -30.4053  -13.2674   19.5362 C   0  0  0  0  0  0
  -29.5573  -12.7125   18.3482 C   0  0  0  0  0  0
  -28.1528  -12.3014   18.8087 C   0  0  0  0  0  0
  -27.5871  -13.3306   19.8083 C   0  0  2  0  0  0
  -28.5874  -13.7703   20.9095 C   0  0  0  0  0  0
  -25.2285  -13.8317   20.5825 C   0  0  0  0  0  0
  -24.1701  -13.0436   20.9306 C   0  0  0  0  0  0
  -24.6435  -11.6957   20.8770 C   0  0  0  0  0  0
  -23.9141  -10.4295   21.0393 C   0  0  0  0  0  0
  -24.3669   -9.4207   21.9178 C   0  0  0  0  0  0
  -23.6324   -8.2250   22.0753 C   0  0  0  0  0  0
  -22.4303   -8.0295   21.3544 C   0  0  0  0  0  0
  -21.9952   -9.0272   20.4643 C   0  0  0  0  0  0
  -22.7303  -10.2139   20.3048 C   0  0  0  0  0  0
  -21.6860   -6.0748   22.5279 C   0  0  0  0  0  0
  -21.4020   -6.5648   23.8213 C   0  0  0  0  0  0
  -21.3657   -5.6797   24.9174 C   0  0  0  0  0  0
  -21.6043   -4.3060   24.7221 C   0  0  0  0  0  0
  -21.8820   -3.8155   23.4343 C   0  0  0  0  0  0
  -21.9196   -4.6973   22.3400 C   0  0  0  0  0  0
  -22.7706  -13.5149   21.1932 C   0  0  0  0  0  0
  -22.1663   -4.2160   21.0977 F   0  0  0  0  0  0
  -21.5623   -3.4541   25.7732 F   0  0  0  0  0  0
  -29.7181  -14.4699   20.2343 N   0  0  0  0  0  0
  -26.2759  -12.9691   20.3269 N   0  0  0  0  0  0
  -25.9392  -11.6735   20.5700 N   0  0  0  0  0  0
  -22.0378  -12.8119   22.0482 N   0  0  0  0  0  0
  -25.3846  -15.2060   20.4247 N   0  0  0  0  0  0
  -31.4500  -15.7769   20.1799 O   0  0  0  0  0  0
  -21.6653   -6.8899   21.4245 O   0  0  0  0  0  0
  -22.3375  -14.5443   20.6767 O   0  0  0  0  0  0
  -24.6999  -31.7791   23.1350 C   0  0  0  0  0  0
  -25.9497  -32.4361   23.7963 C   0  0  1  0  0  0
  -27.2345  -26.5250   20.2341 C   0  0  0  0  0  0
  -25.6007  -33.8194   24.1841 N   0  0  0  0  0  0
  -23.5334  -30.3727   21.4932 C   0  0  2  0  0  0
  -24.9897  -28.6713   20.1240 C   0  0  0  0  0  0
  -22.7835  -29.4209   22.4660 C   0  0  0  0  0  0
  -18.0351  -28.1438   22.8455 C   0  0  0  0  0  0
  -24.1486  -36.7096   23.2658 C   0  0  0  0  0  0
  -26.1201  -30.4535   21.4240 C   0  0  0  0  0  0
  -26.1816  -28.9981   20.7789 C   0  0  0  0  0  0
  -27.2780  -27.9595   20.7919 C   0  0  0  0  0  0
  -26.0048  -26.4470   19.5192 C   0  0  0  0  0  0
  -24.9504  -27.4241   19.4698 C   0  0  0  0  0  0
  -23.7953  -29.6500   20.1371 C   0  0  0  0  0  0
  -25.4144  -36.2831   24.0275 C   0  0  1  0  0  0
  -20.5993  -28.3800   23.1116 C   0  0  2  0  0  0
  -20.6808  -26.9444   22.5407 C   0  0  0  0  0  0
  -19.5783  -26.6372   21.5224 C   0  0  0  0  0  0
  -18.1967  -26.7966   22.1620 C   0  0  0  0  0  0
  -19.1622  -28.8947   23.2764 C   0  0  0  0  0  0
  -18.9526  -30.1528   23.8814 C   0  0  0  0  0  0
  -17.6514  -30.6616   24.0552 C   0  0  0  0  0  0
  -25.9141  -34.9228   23.4908 C   0  0  0  0  0  0
  -16.5401  -29.9096   23.6361 C   0  0  0  0  0  0
  -16.7330  -28.6519   23.0380 C   0  0  0  0  0  0
  -26.4620  -31.6476   25.0661 C   0  0  0  0  0  0
  -25.3637  -31.3853   26.1246 C   0  0  0  0  0  0
  -27.0578  -30.2793   24.6689 C   0  0  0  0  0  0
  -27.6040  -32.4376   25.7483 C   0  0  0  0  0  0
  -27.5551  -37.1699   24.8472 C   0  0  0  0  0  0
  -21.4466  -29.3009   22.3412 N   0  0  0  0  0  0
  -26.4251  -37.3616   23.9421 N   0  0  0  0  0  0
  -24.8102  -30.9060   22.0695 N   0  0  0  0  0  0
  -23.4202  -28.7848   23.3093 O   0  0  0  0  0  0
  -28.2288  -25.2701   20.3071 O   0  0  0  0  0  0
  -26.5803  -34.8847   22.4540 O   0  0  0  0  0  0
  -23.5983  -32.0946   23.6200 O   0  0  0  0  0  0
  -29.0070  -20.4083   21.4266 C   0  0  0  0  0  0
  -28.8149  -20.3602   19.1958 C   0  0  0  0  0  0
  -28.2095  -22.0310   21.3069 C   0  0  0  0  0  0
  -28.8954  -22.1650   19.1502 C   0  0  0  0  0  0
  -29.4841  -19.1808   20.2792 C   0  0  2  0  0  0
  -28.4463  -23.4132   20.2815 C   0  0  1  0  0  0
  -29.4452  -17.3077   20.3278 N   0  0  0  0  0  0
  -31.3736  -13.5706   19.1367 H   0  0  0  0  0  0
  -30.6372  -12.4748   20.2501 H   0  0  0  0  0  0
  -30.0622  -11.8674   17.8782 H   0  0  0  0  0  0
  -29.4720  -13.4841   17.5817 H   0  0  0  0  0  0
  -28.2294  -11.3287   19.2968 H   0  0  0  0  0  0
  -27.4850  -12.1703   17.9563 H   0  0  0  0  0  0
  -27.4159  -14.2152   19.1929 H   0  0  0  0  0  0
  -28.9065  -12.9318   21.5303 H   0  0  0  0  0  0
  -28.1062  -14.4794   21.5845 H   0  0  0  0  0  0
  -25.2809   -9.5675   22.4765 H   0  0  0  0  0  0
  -24.0019   -7.4643   22.7480 H   0  0  0  0  0  0
  -21.0880   -8.8811   19.8951 H   0  0  0  0  0  0
  -22.3769  -10.9685   19.6161 H   0  0  0  0  0  0
  -21.2017   -7.6157   23.9721 H   0  0  0  0  0  0
  -21.1472   -6.0525   25.9076 H   0  0  0  0  0  0
  -22.0599   -2.7617   23.2840 H   0  0  0  0  0  0
  -22.4025  -11.9796   22.4878 H   0  0  0  0  0  0
  -21.0982  -13.1107   22.2685 H   0  0  0  0  0  0
  -24.6102  -15.8522   20.5322 H   0  0  0  0  0  0
  -26.2250  -15.6482   20.0772 H   0  0  0  0  0  0
  -26.7593  -32.4786   23.0682 H   0  0  0  0  0  0
  -25.0061  -33.9199   24.9934 H   0  0  0  0  0  0
  -22.8689  -31.2144   21.2873 H   0  0  0  0  0  0
  -23.3777  -35.9393   23.3254 H   0  0  0  0  0  0
  -24.3549  -36.8828   22.2085 H   0  0  0  0  0  0
  -23.7212  -37.6238   23.6788 H   0  0  0  0  0  0
  -26.3412  -31.1655   20.6279 H   0  0  0  0  0  0
  -26.9650  -30.5277   22.0962 H   0  0  0  0  0  0
  -28.1750  -28.2272   21.3318 H   0  0  0  0  0  0
  -25.8133  -25.5164   19.0038 H   0  0  0  0  0  0
  -24.0551  -27.1625   18.9233 H   0  0  0  0  0  0
  -23.9847  -30.4004   19.3686 H   0  0  0  0  0  0
  -22.8957  -29.1252   19.8112 H   0  0  0  0  0  0
  -25.1359  -36.1560   25.0763 H   0  0  0  0  0  0
  -21.0078  -28.3435   24.1243 H   0  0  0  0  0  0
  -20.5664  -26.2425   23.3683 H   0  0  0  0  0  0
  -21.6667  -26.7363   22.1231 H   0  0  0  0  0  0
  -19.6933  -25.6262   21.1305 H   0  0  0  0  0  0
  -19.6736  -27.3144   20.6726 H   0  0  0  0  0  0
  -17.4240  -26.6723   21.4019 H   0  0  0  0  0  0
  -18.0338  -26.0130   22.9032 H   0  0  0  0  0  0
  -19.8002  -30.7370   24.2139 H   0  0  0  0  0  0
  -17.5066  -31.6289   24.5172 H   0  0  0  0  0  0
  -15.5400  -30.2975   23.7736 H   0  0  0  0  0  0
  -15.8729  -28.0810   22.7145 H   0  0  0  0  0  0
  -24.5860  -30.7163   25.7546 H   0  0  0  0  0  0
  -24.8788  -32.3095   26.4397 H   0  0  0  0  0  0
  -25.7774  -30.9196   27.0198 H   0  0  0  0  0  0
  -26.3328  -29.6350   24.1706 H   0  0  0  0  0  0
  -27.3967  -29.7313   25.5490 H   0  0  0  0  0  0
  -27.9319  -30.3881   24.0266 H   0  0  0  0  0  0
  -27.2569  -33.3779   26.1775 H   0  0  0  0  0  0
  -28.3992  -32.6769   25.0409 H   0  0  0  0  0  0
  -28.0550  -31.8691   26.5625 H   0  0  0  0  0  0
  -28.2533  -38.0027   24.7528 H   0  0  0  0  0  0
  -28.1080  -36.2550   24.6287 H   0  0  0  0  0  0
  -27.2272  -37.1319   25.8875 H   0  0  0  0  0  0
  -20.9807  -29.8618   21.6415 H   0  0  0  0  0  0
  -26.0058  -38.2647   24.1460 H   0  0  0  0  0  0
  -28.3926  -19.8709   22.1492 H   0  0  0  0  0  0
  -29.9213  -20.6058   21.9877 H   0  0  0  0  0  0
  -29.1587  -20.0483   18.2096 H   0  0  0  0  0  0
  -27.7473  -20.1350   19.1656 H   0  0  0  0  0  0
  -28.2549  -22.4307   22.3202 H   0  0  0  0  0  0
  -27.1511  -21.7970   21.1851 H   0  0  0  0  0  0
  -28.3558  -22.4305   18.2413 H   0  0  0  0  0  0
  -29.9326  -22.3831   18.8922 H   0  0  0  0  0  0
  -30.5599  -19.3206   20.1638 H   0  0  0  0  0  0
  -29.4535  -23.6212   20.6440 H   0  0  0  0  0  0
  -28.4688  -17.0514   20.3771 H   0  0  0  0  0  0
  1 25  1  0  0  0
  1 30  2  0  0  0
  1 77  1  0  0  0
  2  3  1  0  0  0
  2 25  1  0  0  0
  2 78  1  0  0  0
  2 79  1  0  0  0
  3  4  1  0  0  0
  3 80  1  0  0  0
  3 81  1  0  0  0
  4  5  1  0  0  0
  4 82  1  0  0  0
  4 83  1  0  0  0
  5  6  1  0  0  0
  5 26  1  0  0  0
  5 84  1  0  0  0
  6 25  1  0  0  0
  6 85  1  0  0  0
  6 86  1  0  0  0
  7  8  2  0  0  0
  7 26  1  0  0  0
  7 29  1  0  0  0
  8  9  1  0  0  0
  8 22  1  0  0  0
  9 10  1  0  0  0
  9 27  2  0  0  0
 10 11  2  0  0  0
 10 15  1  0  0  0
 11 12  1  0  0  0
 11 87  1  0  0  0
 12 13  2  0  0  0
 12 88  1  0  0  0
 13 14  1  0  0  0
 13 31  1  0  0  0
 14 15  2  0  0  0
 14 89  1  0  0  0
 15 90  1  0  0  0
 16 17  2  0  0  0
 16 21  1  0  0  0
 16 31  1  0  0  0
 17 18  1  0  0  0
 17 91  1  0  0  0
 18 19  2  0  0  0
 18 92  1  0  0  0
 19 20  1  0  0  0
 19 24  1  0  0  0
 20 21  2  0  0  0
 20 93  1  0  0  0
 21 23  1  0  0  0
 22 28  1  0  0  0
 22 32  2  0  0  0
 26 27  1  0  0  0
 28 94  1  0  0  0
 28 95  1  0  0  0
 29 96  1  0  0  0
 29 97  1  0  0  0
 33 34  1  0  0  0
 33 66  1  0  0  0
 33 70  2  0  0  0
 34 36  1  0  0  0
 34 59  1  0  0  0
 34 98  1  0  0  0
 35 44  2  0  0  0
 35 45  1  0  0  0
 35 68  1  0  0  0
 36 56  1  0  0  0
 36 99  1  0  0  0
 37 39  1  0  0  0
 37 47  1  0  0  0
 37 66  1  0  0  0
 37100  1  0  0  0
 38 43  2  0  0  0
 38 46  1  0  0  0
 38 47  1  0  0  0
 39 64  1  0  0  0
 39 67  2  0  0  0
 40 52  1  0  0  0
 40 53  2  0  0  0
 40 58  1  0  0  0
 41101  1  0  0  0
 41102  1  0  0  0
 41103  1  0  0  0
 41 48  1  0  0  0
 42 43  1  0  0  0
 42 66  1  0  0  0
 42104  1  0  0  0
 42105  1  0  0  0
 43 44  1  0  0  0
 44106  1  0  0  0
 45 46  2  0  0  0
 45107  1  0  0  0
 46108  1  0  0  0
 47109  1  0  0  0
 47110  1  0  0  0
 48 56  1  0  0  0
 48 65  1  0  0  0
 48111  1  0  0  0
 49 50  1  0  0  0
 49 53  1  0  0  0
 49 64  1  0  0  0
 49112  1  0  0  0
 50 51  1  0  0  0
 50113  1  0  0  0
 50114  1  0  0  0
 51 52  1  0  0  0
 51115  1  0  0  0
 51116  1  0  0  0
 52117  1  0  0  0
 52118  1  0  0  0
 53 54  1  0  0  0
 54 55  2  0  0  0
 54119  1  0  0  0
 55 57  1  0  0  0
 55120  1  0  0  0
 56 69  2  0  0  0
 57 58  2  0  0  0
 57121  1  0  0  0
 58122  1  0  0  0
 59 60  1  0  0  0
 59 61  1  0  0  0
 59 62  1  0  0  0
 60123  1  0  0  0
 60124  1  0  0  0
 60125  1  0  0  0
 61126  1  0  0  0
 61127  1  0  0  0
 61128  1  0  0  0
 62129  1  0  0  0
 62130  1  0  0  0
 62131  1  0  0  0
 63 65  1  0  0  0
 63132  1  0  0  0
 63133  1  0  0  0
 63134  1  0  0  0
 64135  1  0  0  0
 65136  1  0  0  0
 68 76  1  0  0  0
 71 73  1  0  0  0
 71 75  1  0  0  0
 71137  1  0  0  0
 71138  1  0  0  0
 72 74  1  0  0  0
 72 75  1  0  0  0
 72139  1  0  0  0
 72140  1  0  0  0
 73 76  1  0  0  0
 73141  1  0  0  0
 73142  1  0  0  0
 74 76  1  0  0  0
 74143  1  0  0  0
 74144  1  0  0  0
 75 77  1  0  0  0
 75145  1  0  0  0
 76146  1  0  0  0
 77147  1  0  0  0
M  ISO  4   1 100  68 101  76 101  77 100
M  END
> <chiral flag>
0

> <version>
0

> <s_m_source_file>
/data/baiqing/PycharmProjects/Reinvent-master-3.2/result/LINK_invent/BTK/process_docking_weight1_custom_sum_contain_oxygen_bond_distance_aromatic_linkinvent_7_9_3/rearranged_h_0104.sdf

> <i_m_source_file_index>
43

> <r_mmod_Potential_Energy-OPLS-2005>
3508.3359375

> <r_mmod_Stretch_Energy-OPLS-2005>
1375.18981933594

> <r_mmod_Bend_Energy-OPLS-2005>
1047.43798828125

> <r_mmod_Torsional_Energy-OPLS-2005>
244.690505981445

> <r_mmod_Improper_Torsional_Energy-OPLS-2005>
3.74291706085205

> <r_mmod_Van_der_Waal_Energy-OPLS-2005>
121.230651855469

> <r_mmod_Electrostatic_Energy-OPLS-2005>
-364.220825195312

> <r_mmod_Solvation_Energy-OPLS-2005>
-216.269866943359

> <b_mmod_Minimization_Converged-OPLS-2005>
0

> <r_mmod_RMS_Derivative-OPLS-2005>
0.805095314979553

$$$$
43
                    3D
 Structure written by MMmdl.
160168  0  0  1  0            999 V2000
  -30.6791  -14.5597   20.5175 C   0  0  0  0  0  0
  -30.4367  -12.3504   19.4570 C   0  0  0  0  0  0
  -29.5213  -12.5144   18.2236 C   0  0  0  0  0  0
  -28.0352  -12.3667   18.6160 C   0  0  0  0  0  0
  -27.6598  -13.2257   19.8626 C   0  0  2  0  0  0
  -28.6982  -13.0595   20.9951 C   0  0  0  0  0  0
  -25.2570  -13.8184   20.5698 C   0  0  0  0  0  0
  -24.1841  -13.0435   20.9174 C   0  0  0  0  0  0
  -24.6392  -11.6931   20.8616 C   0  0  0  0  0  0
  -23.9063  -10.4295   21.0280 C   0  0  0  0  0  0
  -24.3623   -9.4233   21.9059 C   0  0  0  0  0  0
  -23.6310   -8.2260   22.0696 C   0  0  0  0  0  0
  -22.4280   -8.0276   21.3539 C   0  0  0  0  0  0
  -21.9894   -9.0233   20.4623 C   0  0  0  0  0  0
  -22.7209  -10.2114   20.2965 C   0  0  0  0  0  0
  -21.6891   -6.0733   22.5263 C   0  0  0  0  0  0
  -21.4029   -6.5630   23.8193 C   0  0  0  0  0  0
  -21.3684   -5.6751   24.9142 C   0  0  0  0  0  0
  -21.6061   -4.3033   24.7182 C   0  0  0  0  0  0
  -21.8832   -3.8127   23.4305 C   0  0  0  0  0  0
  -21.9206   -4.6964   22.3361 C   0  0  0  0  0  0
  -22.7783  -13.5277   21.1762 C   0  0  0  0  0  0
  -22.1651   -4.2151   21.0933 F   0  0  0  0  0  0
  -21.5630   -3.4523   25.7702 F   0  0  0  0  0  0
  -30.0330  -13.3606   20.4494 N   0  0  0  0  0  0
  -26.3013  -12.9394   20.3238 N   0  0  0  0  0  0
  -25.9341  -11.6550   20.5613 N   0  0  0  0  0  0
  -22.0441  -12.8335   22.0361 N   0  0  0  0  0  0
  -25.4265  -15.1879   20.4036 N   0  0  0  0  0  0
  -31.8193  -14.7205   20.0738 O   0  0  0  0  0  0
  -21.6661   -6.8876   21.4228 O   0  0  0  0  0  0
  -22.3518  -14.5584   20.6597 O   0  0  0  0  0  0
  -24.6142  -31.8644   23.2048 C   0  0  0  0  0  0
  -25.9017  -32.4807   23.8378 C   0  0  1  0  0  0
  -27.2509  -27.3979   20.1597 C   0  0  0  0  0  0
  -25.5854  -33.8611   24.2290 N   0  0  0  0  0  0
  -23.4107  -30.4842   21.5344 C   0  0  2  0  0  0
  -24.8714  -28.9355   20.1259 C   0  0  0  0  0  0
  -22.7421  -29.4658   22.4851 C   0  0  0  0  0  0
  -18.0285  -28.1417   22.8470 C   0  0  0  0  0  0
  -24.1472  -36.7312   23.2635 C   0  0  0  0  0  0
  -25.9403  -30.8243   21.3627 C   0  0  0  0  0  0
  -26.0232  -29.4465   20.7327 C   0  0  0  0  0  0
  -27.2187  -28.6860   20.7474 C   0  0  0  0  0  0
  -26.0880  -26.9056   19.5377 C   0  0  0  0  0  0
  -24.8976  -27.6649   19.5208 C   0  0  0  0  0  0
  -23.6330  -29.8069   20.1541 C   0  0  0  0  0  0
  -25.4079  -36.3087   24.0327 C   0  0  1  0  0  0
  -20.5887  -28.3710   23.1265 C   0  0  2  0  0  0
  -20.6754  -26.9425   22.5403 C   0  0  0  0  0  0
  -19.5743  -26.6415   21.5191 C   0  0  0  0  0  0
  -18.1933  -26.7966   22.1605 C   0  0  0  0  0  0
  -19.1539  -28.8872   23.2900 C   0  0  0  0  0  0
  -18.9469  -30.1469   23.8908 C   0  0  0  0  0  0
  -17.6482  -30.6626   24.0565 C   0  0  0  0  0  0
  -25.9010  -34.9462   23.5109 C   0  0  0  0  0  0
  -16.5362  -29.9121   23.6347 C   0  0  0  0  0  0
  -16.7279  -28.6545   23.0349 C   0  0  0  0  0  0
  -26.4497  -31.6609   25.0713 C   0  0  0  0  0  0
  -25.3837  -31.3746   26.1515 C   0  0  0  0  0  0
  -27.0263  -30.3006   24.6106 C   0  0  0  0  0  0
  -27.6016  -32.4392   25.7496 C   0  0  0  0  0  0
  -27.5576  -37.1787   24.8448 C   0  0  0  0  0  0
  -21.4148  -29.3080   22.3629 N   0  0  0  0  0  0
  -26.4247  -37.3776   23.9449 N   0  0  0  0  0  0
  -24.6726  -31.0741   22.0914 N   0  0  0  0  0  0
  -23.4160  -28.8208   23.2928 O   0  0  0  0  0  0
  -28.4109  -26.6534   20.0830 O   0  0  0  0  0  0
  -26.5587  -34.8907   22.4681 O   0  0  0  0  0  0
  -23.5335  -32.1389   23.7434 O   0  0  0  0  0  0
  -31.1899  -18.9798   20.8673 C   0  0  0  0  0  0
  -28.9837  -19.1816   20.7817 C   0  0  0  0  0  0
  -29.9864  -18.2638   20.5850 C   0  0  0  0  0  0
  -30.8915  -20.2996   21.1340 C   0  0  0  0  0  0
  -31.8687  -21.3974   21.4190 C   0  0  0  0  0  0
  -26.7747  -24.1415   21.7697 C   0  0  0  0  0  0
  -29.8243  -16.8365   20.0166 C   0  0  0  0  0  0
  -29.1634  -23.1109   21.3037 C   0  0  0  0  0  0
  -28.5990  -21.6509   21.1451 C   0  0  0  0  0  0
  -28.7072  -25.7050   21.1380 C   0  0  0  0  0  0
  -28.1124  -24.2601   20.9751 C   0  0  2  0  0  0
  -29.5002  -20.4568   21.0360 N   0  0  0  0  0  0
  -29.9211  -15.6251   20.8687 N   0  0  0  0  0  0
  -31.4842  -12.4519   19.1611 H   0  0  0  0  0  0
  -30.3411  -11.3509   19.8859 H   0  0  0  0  0  0
  -29.7884  -11.7801   17.4610 H   0  0  0  0  0  0
  -29.6761  -13.5004   17.7749 H   0  0  0  0  0  0
  -27.8452  -11.3099   18.8130 H   0  0  0  0  0  0
  -27.3998  -12.6323   17.7723 H   0  0  0  0  0  0
  -27.6902  -14.2678   19.5475 H   0  0  0  0  0  0
  -28.6719  -12.0465   21.3982 H   0  0  0  0  0  0
  -28.4471  -13.7097   21.8350 H   0  0  0  0  0  0
  -25.2735   -9.5809   22.4622 H   0  0  0  0  0  0
  -24.0069   -7.4711   22.7427 H   0  0  0  0  0  0
  -21.0846   -8.8765   19.8949 H   0  0  0  0  0  0
  -22.3618  -10.9655   19.6114 H   0  0  0  0  0  0
  -21.2014   -7.6132   23.9751 H   0  0  0  0  0  0
  -21.1490   -6.0431   25.9082 H   0  0  0  0  0  0
  -22.0594   -2.7620   23.2761 H   0  0  0  0  0  0
  -22.4126  -12.0132   22.4934 H   0  0  0  0  0  0
  -21.1021  -13.1343   22.2471 H   0  0  0  0  0  0
  -24.6449  -15.8276   20.5066 H   0  0  0  0  0  0
  -26.2683  -15.6437   20.0732 H   0  0  0  0  0  0
  -26.7089  -32.5541   23.1149 H   0  0  0  0  0  0
  -24.9994  -33.9783   25.0422 H   0  0  0  0  0  0
  -22.7017  -31.3003   21.3849 H   0  0  0  0  0  0
  -23.3724  -35.9660   23.3283 H   0  0  0  0  0  0
  -24.3561  -36.8957   22.2057 H   0  0  0  0  0  0
  -23.7254  -37.6508   23.6686 H   0  0  0  0  0  0
  -26.0539  -31.5778   20.5812 H   0  0  0  0  0  0
  -26.8236  -30.8878   21.9847 H   0  0  0  0  0  0
  -28.1129  -29.0867   21.2032 H   0  0  0  0  0  0
  -26.1108  -25.9344   19.0633 H   0  0  0  0  0  0
  -24.0159  -27.2608   19.0466 H   0  0  0  0  0  0
  -23.7548  -30.5749   19.3889 H   0  0  0  0  0  0
  -22.7613  -29.2247   19.8543 H   0  0  0  0  0  0
  -25.1278  -36.1903   25.0811 H   0  0  0  0  0  0
  -21.0043  -28.3315   24.1362 H   0  0  0  0  0  0
  -20.5611  -26.2346   23.3619 H   0  0  0  0  0  0
  -21.6620  -26.7422   22.1251 H   0  0  0  0  0  0
  -19.6890  -25.6336   21.1224 H   0  0  0  0  0  0
  -19.6693  -27.3206   20.6707 H   0  0  0  0  0  0
  -17.4206  -26.6742   21.3998 H   0  0  0  0  0  0
  -18.0304  -26.0104   22.9005 H   0  0  0  0  0  0
  -19.7947  -30.7270   24.2270 H   0  0  0  0  0  0
  -17.5044  -31.6274   24.5221 H   0  0  0  0  0  0
  -15.5379  -30.3030   23.7645 H   0  0  0  0  0  0
  -15.8681  -28.0863   22.7045 H   0  0  0  0  0  0
  -24.5954  -30.7110   25.7960 H   0  0  0  0  0  0
  -24.9102  -32.2911   26.5027 H   0  0  0  0  0  0
  -25.8269  -30.8934   27.0236 H   0  0  0  0  0  0
  -26.2736  -29.6805   24.1194 H   0  0  0  0  0  0
  -27.4000  -29.7220   25.4573 H   0  0  0  0  0  0
  -27.8634  -30.4245   23.9223 H   0  0  0  0  0  0
  -27.2509  -33.3627   26.2115 H   0  0  0  0  0  0
  -28.3791  -32.7090   25.0348 H   0  0  0  0  0  0
  -28.0721  -31.8537   26.5402 H   0  0  0  0  0  0
  -28.2560  -38.0120   24.7517 H   0  0  0  0  0  0
  -28.1102  -36.2645   24.6214 H   0  0  0  0  0  0
  -27.2319  -37.1377   25.8854 H   0  0  0  0  0  0
  -20.9278  -29.8810   21.6872 H   0  0  0  0  0  0
  -26.0126  -38.2834   24.1501 H   0  0  0  0  0  0
  -32.1984  -18.5950   20.8118 H   0  0  0  0  0  0
  -27.9118  -19.0526   20.6776 H   0  0  0  0  0  0
  -32.8727  -20.9940   21.5822 H   0  0  0  0  0  0
  -31.5906  -21.9448   22.3189 H   0  0  0  0  0  0
  -31.9502  -22.0875   20.5779 H   0  0  0  0  0  0
  -26.2434  -23.2084   21.5735 H   0  0  0  0  0  0
  -26.0761  -24.9400   21.5034 H   0  0  0  0  0  0
  -26.9176  -24.2094   22.8523 H   0  0  0  0  0  0
  -30.4722  -16.7512   19.1412 H   0  0  0  0  0  0
  -28.8232  -16.7923   19.5909 H   0  0  0  0  0  0
  -30.0181  -23.2668   20.6401 H   0  0  0  0  0  0
  -29.5642  -23.2308   22.3176 H   0  0  0  0  0  0
  -27.9531  -21.6369   20.2591 H   0  0  0  0  0  0
  -27.9323  -21.4634   21.9887 H   0  0  0  0  0  0
  -29.7938  -25.6290   21.1260 H   0  0  0  0  0  0
  -28.4743  -26.1209   22.1222 H   0  0  0  0  0  0
  -27.8756  -24.1436   19.9116 H   0  0  0  0  0  0
  -29.0712  -15.3710   21.3501 H   0  0  0  0  0  0
  1 25  1  0  0  0
  1 30  2  0  0  0
  1 83  1  0  0  0
  2  3  1  0  0  0
  2 25  1  0  0  0
  2 84  1  0  0  0
  2 85  1  0  0  0
  3  4  1  0  0  0
  3 86  1  0  0  0
  3 87  1  0  0  0
  4  5  1  0  0  0
  4 88  1  0  0  0
  4 89  1  0  0  0
  5  6  1  0  0  0
  5 26  1  0  0  0
  5 90  1  0  0  0
  6 25  1  0  0  0
  6 91  1  0  0  0
  6 92  1  0  0  0
  7  8  2  0  0  0
  7 26  1  0  0  0
  7 29  1  0  0  0
  8  9  1  0  0  0
  8 22  1  0  0  0
  9 10  1  0  0  0
  9 27  2  0  0  0
 10 11  2  0  0  0
 10 15  1  0  0  0
 11 12  1  0  0  0
 11 93  1  0  0  0
 12 13  2  0  0  0
 12 94  1  0  0  0
 13 14  1  0  0  0
 13 31  1  0  0  0
 14 15  2  0  0  0
 14 95  1  0  0  0
 15 96  1  0  0  0
 16 17  2  0  0  0
 16 21  1  0  0  0
 16 31  1  0  0  0
 17 18  1  0  0  0
 17 97  1  0  0  0
 18 19  2  0  0  0
 18 98  1  0  0  0
 19 20  1  0  0  0
 19 24  1  0  0  0
 20 21  2  0  0  0
 20 99  1  0  0  0
 21 23  1  0  0  0
 22 28  1  0  0  0
 22 32  2  0  0  0
 26 27  1  0  0  0
 28100  1  0  0  0
 28101  1  0  0  0
 29102  1  0  0  0
 29103  1  0  0  0
 33 34  1  0  0  0
 33 66  1  0  0  0
 33 70  2  0  0  0
 34 36  1  0  0  0
 34 59  1  0  0  0
 34104  1  0  0  0
 35 44  2  0  0  0
 35 45  1  0  0  0
 35 68  1  0  0  0
 36 56  1  0  0  0
 36105  1  0  0  0
 37 39  1  0  0  0
 37 47  1  0  0  0
 37 66  1  0  0  0
 37106  1  0  0  0
 38 43  2  0  0  0
 38 46  1  0  0  0
 38 47  1  0  0  0
 39 64  1  0  0  0
 39 67  2  0  0  0
 40 52  1  0  0  0
 40 53  2  0  0  0
 40 58  1  0  0  0
 41107  1  0  0  0
 41108  1  0  0  0
 41109  1  0  0  0
 41 48  1  0  0  0
 42 43  1  0  0  0
 42 66  1  0  0  0
 42110  1  0  0  0
 42111  1  0  0  0
 43 44  1  0  0  0
 44112  1  0  0  0
 45 46  2  0  0  0
 45113  1  0  0  0
 46114  1  0  0  0
 47115  1  0  0  0
 47116  1  0  0  0
 48 56  1  0  0  0
 48 65  1  0  0  0
 48117  1  0  0  0
 49 50  1  0  0  0
 49 53  1  0  0  0
 49 64  1  0  0  0
 49118  1  0  0  0
 50 51  1  0  0  0
 50119  1  0  0  0
 50120  1  0  0  0
 51 52  1  0  0  0
 51121  1  0  0  0
 51122  1  0  0  0
 52123  1  0  0  0
 52124  1  0  0  0
 53 54  1  0  0  0
 54 55  2  0  0  0
 54125  1  0  0  0
 55 57  1  0  0  0
 55126  1  0  0  0
 56 69  2  0  0  0
 57 58  2  0  0  0
 57127  1  0  0  0
 58128  1  0  0  0
 59 60  1  0  0  0
 59 61  1  0  0  0
 59 62  1  0  0  0
 60129  1  0  0  0
 60130  1  0  0  0
 60131  1  0  0  0
 61132  1  0  0  0
 61133  1  0  0  0
 61134  1  0  0  0
 62135  1  0  0  0
 62136  1  0  0  0
 62137  1  0  0  0
 63 65  1  0  0  0
 63138  1  0  0  0
 63139  1  0  0  0
 63140  1  0  0  0
 64141  1  0  0  0
 65142  1  0  0  0
 68 80  1  0  0  0
 71 73  1  0  0  0
 71 74  2  0  0  0
 71143  1  0  0  0
 72 73  2  0  0  0
 72 82  1  0  0  0
 72144  1  0  0  0
 73 77  1  0  0  0
 74 75  1  0  0  0
 74 82  1  0  0  0
 75145  1  0  0  0
 75146  1  0  0  0
 75147  1  0  0  0
 76148  1  0  0  0
 76149  1  0  0  0
 76150  1  0  0  0
 76 81  1  0  0  0
 77 83  1  0  0  0
 77151  1  0  0  0
 77152  1  0  0  0
 78 79  1  0  0  0
 78 81  1  0  0  0
 78153  1  0  0  0
 78154  1  0  0  0
 79 82  1  0  0  0
 79155  1  0  0  0
 79156  1  0  0  0
 80 81  1  0  0  0
 80157  1  0  0  0
 80158  1  0  0  0
 81159  1  0  0  0
 83160  1  0  0  0
M  ISO  4   1 100  68 101  80 101  83 100
M  END
> <chiral flag>
0

> <version>
0

> <s_m_source_file>
/data/baiqing/PycharmProjects/Reinvent-master-3.2/result/LINK_invent/BTK/process_docking_weight1_custom_sum_contain_oxygen_bond_distance_aromatic_linkinvent_7_9_3/rearranged_h_0104.sdf

> <i_m_source_file_index>
44

> <r_mmod_Potential_Energy-OPLS-2005>
-6.18160438537598

> <r_mmod_Stretch_Energy-OPLS-2005>
55.5709266662598

> <r_mmod_Bend_Energy-OPLS-2005>
138.617797851562

> <r_mmod_Torsional_Energy-OPLS-2005>
280.150451660156

> <r_mmod_Improper_Torsional_Energy-OPLS-2005>
9.98408794403076

> <r_mmod_Van_der_Waal_Energy-OPLS-2005>
113.650848388672

> <r_mmod_Electrostatic_Energy-OPLS-2005>
-411.805969238281

> <r_mmod_Solvation_Energy-OPLS-2005>
-215.776962280273

> <b_mmod_Minimization_Converged-OPLS-2005>
0

> <r_mmod_RMS_Derivative-OPLS-2005>
10.2370586395264

$$$$
44
                    3D
 Structure written by MMmdl.
167174  0  0  1  0            999 V2000
  -30.6732  -14.6077   20.4747 C   0  0  0  0  0  0
  -30.4190  -12.3655   19.4340 C   0  0  0  0  0  0
  -29.4920  -12.4892   18.2063 C   0  0  0  0  0  0
  -28.0132  -12.3442   18.6203 C   0  0  0  0  0  0
  -27.6466  -13.2174   19.8498 C   0  0  2  0  0  0
  -28.6979  -13.0945   20.9745 C   0  0  0  0  0  0
  -25.2555  -13.8154   20.5709 C   0  0  0  0  0  0
  -24.1845  -13.0423   20.9216 C   0  0  0  0  0  0
  -24.6402  -11.6901   20.8763 C   0  0  0  0  0  0
  -23.9065  -10.4297   21.0368 C   0  0  0  0  0  0
  -24.3607   -9.4208   21.9154 C   0  0  0  0  0  0
  -23.6274   -8.2264   22.0739 C   0  0  0  0  0  0
  -22.4256   -8.0306   21.3544 C   0  0  0  0  0  0
  -21.9904   -9.0258   20.4643 C   0  0  0  0  0  0
  -22.7238  -10.2125   20.3011 C   0  0  0  0  0  0
  -21.6892   -6.0744   22.5257 C   0  0  0  0  0  0
  -21.4076   -6.5658   23.8203 C   0  0  0  0  0  0
  -21.3625   -5.6779   24.9159 C   0  0  0  0  0  0
  -21.6007   -4.3034   24.7180 C   0  0  0  0  0  0
  -21.8858   -3.8152   23.4308 C   0  0  0  0  0  0
  -21.9223   -4.6975   22.3376 C   0  0  0  0  0  0
  -22.7871  -13.5209   21.1847 C   0  0  0  0  0  0
  -22.1680   -4.2168   21.0948 F   0  0  0  0  0  0
  -21.5561   -3.4518   25.7678 F   0  0  0  0  0  0
  -30.0030  -13.4150   20.3893 N   0  0  0  0  0  0
  -26.2988  -12.9355   20.3310 N   0  0  0  0  0  0
  -25.9317  -11.6492   20.5765 N   0  0  0  0  0  0
  -22.0515  -12.8190   22.0393 N   0  0  0  0  0  0
  -25.4208  -15.1902   20.4156 N   0  0  0  0  0  0
  -31.8851  -14.6506   20.2385 O   0  0  0  0  0  0
  -21.6647   -6.8886   21.4217 O   0  0  0  0  0  0
  -22.3551  -14.5518   20.6693 O   0  0  0  0  0  0
  -24.6233  -31.8638   23.2141 C   0  0  0  0  0  0
  -25.9110  -32.4803   23.8463 C   0  0  1  0  0  0
  -27.2209  -27.3625   20.1489 C   0  0  0  0  0  0
  -25.5992  -33.8587   24.2366 N   0  0  0  0  0  0
  -23.4132  -30.4943   21.5486 C   0  0  2  0  0  0
  -24.8617  -28.9427   20.1319 C   0  0  0  0  0  0
  -22.7462  -29.4670   22.4933 C   0  0  0  0  0  0
  -18.0360  -28.1367   22.8487 C   0  0  0  0  0  0
  -24.1479  -36.7326   23.2644 C   0  0  0  0  0  0
  -25.9522  -30.8155   21.3716 C   0  0  0  0  0  0
  -26.0275  -29.4364   20.7306 C   0  0  0  0  0  0
  -27.2077  -28.6535   20.7427 C   0  0  0  0  0  0
  -26.0521  -26.9285   19.4925 C   0  0  0  0  0  0
  -24.8636  -27.6779   19.5207 C   0  0  0  0  0  0
  -23.6346  -29.8219   20.1651 C   0  0  0  0  0  0
  -25.4085  -36.3087   24.0363 C   0  0  1  0  0  0
  -20.5944  -28.3682   23.1300 C   0  0  2  0  0  0
  -20.6828  -26.9407   22.5428 C   0  0  0  0  0  0
  -19.5822  -26.6400   21.5195 C   0  0  0  0  0  0
  -18.2009  -26.7919   22.1613 C   0  0  0  0  0  0
  -19.1603  -28.8827   23.2909 C   0  0  0  0  0  0
  -18.9544  -30.1417   23.8925 C   0  0  0  0  0  0
  -17.6548  -30.6569   24.0572 C   0  0  0  0  0  0
  -25.9031  -34.9453   23.5127 C   0  0  0  0  0  0
  -16.5422  -29.9065   23.6327 C   0  0  0  0  0  0
  -16.7351  -28.6471   23.0345 C   0  0  0  0  0  0
  -26.4510  -31.6587   25.0816 C   0  0  0  0  0  0
  -25.3851  -31.3697   26.1646 C   0  0  0  0  0  0
  -27.0386  -30.3043   24.6224 C   0  0  0  0  0  0
  -27.6076  -32.4337   25.7588 C   0  0  0  0  0  0
  -27.5545  -37.1836   24.8468 C   0  0  0  0  0  0
  -21.4179  -29.3142   22.3758 N   0  0  0  0  0  0
  -26.4255  -37.3783   23.9426 N   0  0  0  0  0  0
  -24.6838  -31.0716   22.1043 N   0  0  0  0  0  0
  -23.4218  -28.8068   23.2890 O   0  0  0  0  0  0
  -28.3370  -26.5374   20.1708 O   0  0  0  0  0  0
  -26.5545  -34.8901   22.4638 O   0  0  0  0  0  0
  -23.5414  -32.1391   23.7485 O   0  0  0  0  0  0
  -27.3478  -21.4058   22.4074 C   0  0  0  0  0  0
  -26.0810  -24.0105   21.2039 C   0  0  0  0  0  0
  -30.2452  -16.4470   18.9193 C   0  0  0  0  0  0
  -30.8757  -19.7919   20.8565 C   0  0  0  0  0  0
  -28.1079  -22.6472   20.2154 C   0  0  0  0  0  0
  -28.9891  -16.5073   21.0355 C   0  0  0  0  0  0
  -29.4650  -17.8925   21.6448 C   0  0  0  0  0  0
  -28.3945  -20.0125   20.5546 C   0  0  0  0  0  0
  -28.2899  -25.3261   21.0015 C   0  0  0  0  0  0
  -28.3628  -21.4563   21.2520 C   0  0  2  0  0  0
  -27.4509  -24.0765   20.4977 C   0  0  2  0  0  0
  -29.9400  -15.7366   20.1739 N   0  0  0  0  0  0
  -29.5815  -19.0838   20.7196 N   0  3  1  0  0  0
  -31.4647  -12.4638   19.1327 H   0  0  0  0  0  0
  -30.3236  -11.3745   19.8783 H   0  0  0  0  0  0
  -29.7361  -11.7260   17.4672 H   0  0  0  0  0  0
  -29.6438  -13.4528   17.7168 H   0  0  0  0  0  0
  -27.8392  -11.2921   18.8458 H   0  0  0  0  0  0
  -27.3552  -12.5804   17.7807 H   0  0  0  0  0  0
  -27.6558  -14.2475   19.4891 H   0  0  0  0  0  0
  -28.7096  -12.0876   21.3932 H   0  0  0  0  0  0
  -28.4625  -13.7524   21.8089 H   0  0  0  0  0  0
  -25.2743   -9.5714   22.4733 H   0  0  0  0  0  0
  -24.0003   -7.4676   22.7447 H   0  0  0  0  0  0
  -21.0861   -8.8750   19.8954 H   0  0  0  0  0  0
  -22.3674  -10.9647   19.6129 H   0  0  0  0  0  0
  -21.2158   -7.6162   23.9721 H   0  0  0  0  0  0
  -21.1367   -6.0493   25.9055 H   0  0  0  0  0  0
  -22.0671   -2.7608   23.2781 H   0  0  0  0  0  0
  -22.4187  -11.9833   22.4704 H   0  0  0  0  0  0
  -21.1145  -13.1201   22.2579 H   0  0  0  0  0  0
  -24.6398  -15.8303   20.5227 H   0  0  0  0  0  0
  -26.2557  -15.6310   20.0546 H   0  0  0  0  0  0
  -26.7171  -32.5452   23.1246 H   0  0  0  0  0  0
  -25.0173  -33.9712   25.0554 H   0  0  0  0  0  0
  -22.7148  -31.3209   21.3920 H   0  0  0  0  0  0
  -23.3701  -35.9703   23.3308 H   0  0  0  0  0  0
  -24.3607  -36.8926   22.2074 H   0  0  0  0  0  0
  -23.7275  -37.6572   23.6633 H   0  0  0  0  0  0
  -26.0676  -31.5657   20.5895 H   0  0  0  0  0  0
  -26.8439  -30.8843   21.9841 H   0  0  0  0  0  0
  -28.0974  -29.0207   21.2353 H   0  0  0  0  0  0
  -26.0447  -25.9894   18.9654 H   0  0  0  0  0  0
  -23.9679  -27.2796   19.0664 H   0  0  0  0  0  0
  -23.7765  -30.5926   19.4108 H   0  0  0  0  0  0
  -22.7651  -29.2534   19.8318 H   0  0  0  0  0  0
  -25.1223  -36.1966   25.0862 H   0  0  0  0  0  0
  -21.0056  -28.3288   24.1411 H   0  0  0  0  0  0
  -20.5688  -26.2327   23.3652 H   0  0  0  0  0  0
  -21.6717  -26.7396   22.1243 H   0  0  0  0  0  0
  -19.7024  -25.6320   21.1232 H   0  0  0  0  0  0
  -19.6807  -27.3216   20.6732 H   0  0  0  0  0  0
  -17.4277  -26.6659   21.4033 H   0  0  0  0  0  0
  -18.0478  -26.0045   22.9030 H   0  0  0  0  0  0
  -19.8052  -30.7196   24.2324 H   0  0  0  0  0  0
  -17.5175  -31.6262   24.5194 H   0  0  0  0  0  0
  -15.5445  -30.3005   23.7674 H   0  0  0  0  0  0
  -15.8758  -28.0785   22.7021 H   0  0  0  0  0  0
  -24.5991  -30.7016   25.8052 H   0  0  0  0  0  0
  -24.9108  -32.2867   26.5172 H   0  0  0  0  0  0
  -25.8353  -30.8868   27.0331 H   0  0  0  0  0  0
  -26.2946  -29.6817   24.1249 H   0  0  0  0  0  0
  -27.4115  -29.7278   25.4690 H   0  0  0  0  0  0
  -27.8796  -30.4348   23.9401 H   0  0  0  0  0  0
  -27.2644  -33.3583   26.2234 H   0  0  0  0  0  0
  -28.3901  -32.7000   25.0456 H   0  0  0  0  0  0
  -28.0741  -31.8454   26.5501 H   0  0  0  0  0  0
  -28.2570  -38.0120   24.7421 H   0  0  0  0  0  0
  -28.1020  -36.2644   24.6335 H   0  0  0  0  0  0
  -27.2288  -37.1554   25.8882 H   0  0  0  0  0  0
  -20.9342  -29.9213   21.7270 H   0  0  0  0  0  0
  -26.0136  -38.2864   24.1379 H   0  0  0  0  0  0
  -26.3250  -21.2859   22.0422 H   0  0  0  0  0  0
  -27.3991  -22.2954   23.0361 H   0  0  0  0  0  0
  -27.5258  -20.5537   23.0609 H   0  0  0  0  0  0
  -26.1828  -23.8940   22.2808 H   0  0  0  0  0  0
  -25.4720  -23.1901   20.8290 H   0  0  0  0  0  0
  -25.5025  -24.9200   21.0602 H   0  0  0  0  0  0
  -30.7857  -15.8238   18.2059 H   0  0  0  0  0  0
  -30.8652  -17.3257   19.0918 H   0  0  0  0  0  0
  -29.3319  -16.7595   18.4159 H   0  0  0  0  0  0
  -31.7092  -19.1051   20.7220 H   0  0  0  0  0  0
  -30.9997  -20.2326   21.8465 H   0  0  0  0  0  0
  -30.9696  -20.5847   20.1095 H   0  0  0  0  0  0
  -27.4390  -22.2156   19.4703 H   0  0  0  0  0  0
  -29.0387  -22.8237   19.6684 H   0  0  0  0  0  0
  -28.0659  -16.6687   20.4790 H   0  0  0  0  0  0
  -28.7046  -15.8765   21.8720 H   0  0  0  0  0  0
  -30.4326  -17.7072   22.1171 H   0  0  0  0  0  0
  -28.8095  -18.1566   22.4778 H   0  0  0  0  0  0
  -28.3902  -20.1746   19.4791 H   0  0  0  0  0  0
  -27.4631  -19.4702   20.7487 H   0  0  0  0  0  0
  -29.3221  -25.0194   21.1729 H   0  0  0  0  0  0
  -27.9330  -25.6285   21.9916 H   0  0  0  0  0  0
  -29.3180  -21.6573   21.7273 H   0  0  0  0  0  0
  -27.2257  -24.3486   19.4686 H   0  0  0  0  0  0
  -29.6717  -18.6477   19.8151 H   0  0  0  0  0  0
  1 25  1  0  0  0
  1 30  2  0  0  0
  1 82  1  0  0  0
  2  3  1  0  0  0
  2 25  1  0  0  0
  2 84  1  0  0  0
  2 85  1  0  0  0
  3  4  1  0  0  0
  3 86  1  0  0  0
  3 87  1  0  0  0
  4  5  1  0  0  0
  4 88  1  0  0  0
  4 89  1  0  0  0
  5  6  1  0  0  0
  5 26  1  0  0  0
  5 90  1  0  0  0
  6 25  1  0  0  0
  6 91  1  0  0  0
  6 92  1  0  0  0
  7  8  2  0  0  0
  7 26  1  0  0  0
  7 29  1  0  0  0
  8  9  1  0  0  0
  8 22  1  0  0  0
  9 10  1  0  0  0
  9 27  2  0  0  0
 10 11  2  0  0  0
 10 15  1  0  0  0
 11 12  1  0  0  0
 11 93  1  0  0  0
 12 13  2  0  0  0
 12 94  1  0  0  0
 13 14  1  0  0  0
 13 31  1  0  0  0
 14 15  2  0  0  0
 14 95  1  0  0  0
 15 96  1  0  0  0
 16 17  2  0  0  0
 16 21  1  0  0  0
 16 31  1  0  0  0
 17 18  1  0  0  0
 17 97  1  0  0  0
 18 19  2  0  0  0
 18 98  1  0  0  0
 19 20  1  0  0  0
 19 24  1  0  0  0
 20 21  2  0  0  0
 20 99  1  0  0  0
 21 23  1  0  0  0
 22 28  1  0  0  0
 22 32  2  0  0  0
 26 27  1  0  0  0
 28100  1  0  0  0
 28101  1  0  0  0
 29102  1  0  0  0
 29103  1  0  0  0
 33 34  1  0  0  0
 33 66  1  0  0  0
 33 70  2  0  0  0
 34 36  1  0  0  0
 34 59  1  0  0  0
 34104  1  0  0  0
 35 44  2  0  0  0
 35 45  1  0  0  0
 35 68  1  0  0  0
 36 56  1  0  0  0
 36105  1  0  0  0
 37 39  1  0  0  0
 37 47  1  0  0  0
 37 66  1  0  0  0
 37106  1  0  0  0
 38 43  2  0  0  0
 38 46  1  0  0  0
 38 47  1  0  0  0
 39 64  1  0  0  0
 39 67  2  0  0  0
 40 52  1  0  0  0
 40 53  2  0  0  0
 40 58  1  0  0  0
 41107  1  0  0  0
 41108  1  0  0  0
 41109  1  0  0  0
 41 48  1  0  0  0
 42 43  1  0  0  0
 42 66  1  0  0  0
 42110  1  0  0  0
 42111  1  0  0  0
 43 44  1  0  0  0
 44112  1  0  0  0
 45 46  2  0  0  0
 45113  1  0  0  0
 46114  1  0  0  0
 47115  1  0  0  0
 47116  1  0  0  0
 48 56  1  0  0  0
 48 65  1  0  0  0
 48117  1  0  0  0
 49 50  1  0  0  0
 49 53  1  0  0  0
 49 64  1  0  0  0
 49118  1  0  0  0
 50 51  1  0  0  0
 50119  1  0  0  0
 50120  1  0  0  0
 51 52  1  0  0  0
 51121  1  0  0  0
 51122  1  0  0  0
 52123  1  0  0  0
 52124  1  0  0  0
 53 54  1  0  0  0
 54 55  2  0  0  0
 54125  1  0  0  0
 55 57  1  0  0  0
 55126  1  0  0  0
 56 69  2  0  0  0
 57 58  2  0  0  0
 57127  1  0  0  0
 58128  1  0  0  0
 59 60  1  0  0  0
 59 61  1  0  0  0
 59 62  1  0  0  0
 60129  1  0  0  0
 60130  1  0  0  0
 60131  1  0  0  0
 61132  1  0  0  0
 61133  1  0  0  0
 61134  1  0  0  0
 62135  1  0  0  0
 62136  1  0  0  0
 62137  1  0  0  0
 63 65  1  0  0  0
 63138  1  0  0  0
 63139  1  0  0  0
 63140  1  0  0  0
 64141  1  0  0  0
 65142  1  0  0  0
 68 79  1  0  0  0
 71143  1  0  0  0
 71144  1  0  0  0
 71145  1  0  0  0
 71 80  1  0  0  0
 72146  1  0  0  0
 72147  1  0  0  0
 72148  1  0  0  0
 72 81  1  0  0  0
 73 82  1  0  0  0
 73149  1  0  0  0
 73150  1  0  0  0
 73151  1  0  0  0
 74152  1  0  0  0
 74153  1  0  0  0
 74154  1  0  0  0
 74 83  1  0  0  0
 75 80  1  0  0  0
 75 81  1  0  0  0
 75155  1  0  0  0
 75156  1  0  0  0
 76 77  1  0  0  0
 76 82  1  0  0  0
 76157  1  0  0  0
 76158  1  0  0  0
 77 83  1  0  0  0
 77159  1  0  0  0
 77160  1  0  0  0
 78 80  1  0  0  0
 78 83  1  0  0  0
 78161  1  0  0  0
 78162  1  0  0  0
 79 81  1  0  0  0
 79163  1  0  0  0
 79164  1  0  0  0
 80165  1  0  0  0
 81166  1  0  0  0
 83167  1  0  0  0
M  CHG  1  83   1
M  ISO  4   1 100  68 101  79 101  82 100
M  END
> <chiral flag>
0

> <version>
0

> <s_m_source_file>
/data/baiqing/PycharmProjects/Reinvent-master-3.2/result/LINK_invent/BTK/process_docking_weight1_custom_sum_contain_oxygen_bond_distance_aromatic_linkinvent_7_9_3/rearranged_h_0104.sdf

> <i_m_source_file_index>
45

> <r_mmod_Potential_Energy-OPLS-2005>
268.051086425781

> <r_mmod_Stretch_Energy-OPLS-2005>
77.6332015991211

> <r_mmod_Bend_Energy-OPLS-2005>
192.903930664062

> <r_mmod_Torsional_Energy-OPLS-2005>
404.053771972656

> <r_mmod_Improper_Torsional_Energy-OPLS-2005>
23.9039630889893

> <r_mmod_Van_der_Waal_Energy-OPLS-2005>
124.174247741699

> <r_mmod_Electrostatic_Energy-OPLS-2005>
-169.892684936523

> <r_mmod_Solvation_Energy-OPLS-2005>
-427.024566650391

> <b_mmod_Minimization_Converged-OPLS-2005>
0

> <r_mmod_RMS_Derivative-OPLS-2005>
7.96814393997192

$$$$
45
                    3D
 Structure written by MMmdl.
163170  0  0  1  0            999 V2000
  -30.5027  -14.9912   20.3830 C   0  0  0  0  0  0
  -30.4433  -12.6150   19.4763 C   0  0  0  0  0  0
  -29.5101  -12.5175   18.2476 C   0  0  0  0  0  0
  -28.0470  -12.3012   18.6795 C   0  0  0  0  0  0
  -27.6246  -13.2438   19.8345 C   0  0  2  0  0  0
  -28.6748  -13.2971   20.9631 C   0  0  0  0  0  0
  -25.2458  -13.8222   20.5738 C   0  0  0  0  0  0
  -24.1750  -13.0460   20.9250 C   0  0  0  0  0  0
  -24.6357  -11.6942   20.8784 C   0  0  0  0  0  0
  -23.9034  -10.4310   21.0429 C   0  0  0  0  0  0
  -24.3593   -9.4219   21.9201 C   0  0  0  0  0  0
  -23.6289   -8.2245   22.0756 C   0  0  0  0  0  0
  -22.4274   -8.0265   21.3547 C   0  0  0  0  0  0
  -21.9904   -9.0245   20.4645 C   0  0  0  0  0  0
  -22.7218  -10.2133   20.3066 C   0  0  0  0  0  0
  -21.6854   -6.0708   22.5254 C   0  0  0  0  0  0
  -21.4027   -6.5620   23.8179 C   0  0  0  0  0  0
  -21.3663   -5.6776   24.9149 C   0  0  0  0  0  0
  -21.6056   -4.3042   24.7214 C   0  0  0  0  0  0
  -21.8819   -3.8122   23.4341 C   0  0  0  0  0  0
  -21.9210   -4.6938   22.3385 C   0  0  0  0  0  0
  -22.7779  -13.5226   21.1920 C   0  0  0  0  0  0
  -22.1663   -4.2105   21.0977 F   0  0  0  0  0  0
  -21.5645   -3.4538   25.7741 F   0  0  0  0  0  0
  -29.9327  -13.7182   20.3359 N   0  0  0  0  0  0
  -26.2861  -12.9428   20.3284 N   0  0  0  0  0  0
  -25.9294  -11.6569   20.5812 N   0  0  0  0  0  0
  -22.0448  -12.8188   22.0467 N   0  0  0  0  0  0
  -25.4206  -15.1938   20.4094 N   0  0  0  0  0  0
  -31.7229  -15.0687   20.2179 O   0  0  0  0  0  0
  -21.6652   -6.8858   21.4213 O   0  0  0  0  0  0
  -22.3470  -14.5561   20.6788 O   0  0  0  0  0  0
  -24.6438  -31.8435   23.1865 C   0  0  0  0  0  0
  -25.9198  -32.4724   23.8254 C   0  0  1  0  0  0
  -27.2376  -27.1512   20.1318 C   0  0  0  0  0  0
  -25.5943  -33.8526   24.2181 N   0  0  0  0  0  0
  -23.4494  -30.4632   21.5270 C   0  0  2  0  0  0
  -24.8988  -28.8776   20.1246 C   0  0  0  0  0  0
  -22.7568  -29.4568   22.4805 C   0  0  0  0  0  0
  -18.0338  -28.1418   22.8486 C   0  0  0  0  0  0
  -24.1502  -36.7257   23.2655 C   0  0  0  0  0  0
  -26.0070  -30.7193   21.3816 C   0  0  0  0  0  0
  -26.0785  -29.3300   20.7254 C   0  0  0  0  0  0
  -27.2535  -28.4892   20.6971 C   0  0  0  0  0  0
  -26.0167  -26.7780   19.5358 C   0  0  0  0  0  0
  -24.8788  -27.6115   19.5209 C   0  0  0  0  0  0
  -23.6775  -29.7817   20.1523 C   0  0  0  0  0  0
  -25.4134  -36.3054   24.0332 C   0  0  1  0  0  0
  -20.5956  -28.3746   23.1220 C   0  0  2  0  0  0
  -20.6837  -26.9437   22.5402 C   0  0  0  0  0  0
  -19.5799  -26.6390   21.5233 C   0  0  0  0  0  0
  -18.1971  -26.7979   22.1621 C   0  0  0  0  0  0
  -19.1598  -28.8890   23.2863 C   0  0  0  0  0  0
  -18.9525  -30.1485   23.8901 C   0  0  0  0  0  0
  -17.6517  -30.6617   24.0566 C   0  0  0  0  0  0
  -25.9067  -34.9430   23.5062 C   0  0  0  0  0  0
  -16.5412  -29.9123   23.6332 C   0  0  0  0  0  0
  -16.7317  -28.6519   23.0360 C   0  0  0  0  0  0
  -26.4496  -31.6606   25.0691 C   0  0  0  0  0  0
  -25.3678  -31.3793   26.1383 C   0  0  0  0  0  0
  -27.0365  -30.3017   24.6252 C   0  0  0  0  0  0
  -27.6031  -32.4367   25.7465 C   0  0  0  0  0  0
  -27.5583  -37.1799   24.8468 C   0  0  0  0  0  0
  -21.4268  -29.3089   22.3582 N   0  0  0  0  0  0
  -26.4291  -37.3755   23.9414 N   0  0  0  0  0  0
  -24.7198  -31.0301   22.0868 N   0  0  0  0  0  0
  -23.4210  -28.8077   23.2936 O   0  0  0  0  0  0
  -28.3636  -26.2691   19.9942 O   0  0  0  0  0  0
  -26.5657  -34.8931   22.4648 O   0  0  0  0  0  0
  -23.5544  -32.1278   23.7066 O   0  0  0  0  0  0
  -27.8007  -23.4995   18.2893 C   0  0  0  0  0  0
  -27.2438  -21.6059   23.6851 C   0  0  0  0  0  0
  -26.5966  -19.6394   22.5332 C   0  0  0  0  0  0
  -29.4179  -19.0935   19.8735 C   0  0  0  0  0  0
  -29.8105  -17.6980   20.7751 C   0  0  0  0  0  0
  -28.6787  -20.6691   21.9682 C   0  0  0  0  0  0
  -28.5500  -24.7931   20.4580 C   0  0  0  0  0  0
  -28.1854  -23.2893   19.7695 C   0  0  2  0  0  0
  -28.7540  -20.5764   20.4212 C   0  0  1  0  0  0
  -29.6657  -16.1516   20.4016 N   0  0  0  0  0  0
  -27.2975  -20.9155   22.3995 N   0  0  0  0  0  0
  -29.1484  -22.0116   19.8629 N   0  3  0  0  0  0
  -31.4628  -12.8058   19.1389 H   0  0  0  0  0  0
  -30.4754  -11.6728   20.0267 H   0  0  0  0  0  0
  -29.8288  -11.7077   17.5880 H   0  0  0  0  0  0
  -29.5805  -13.4347   17.6615 H   0  0  0  0  0  0
  -27.9490  -11.2636   18.9995 H   0  0  0  0  0  0
  -27.3751  -12.4217   17.8286 H   0  0  0  0  0  0
  -27.5780  -14.2376   19.3888 H   0  0  0  0  0  0
  -28.7850  -12.3312   21.4583 H   0  0  0  0  0  0
  -28.3738  -14.0148   21.7297 H   0  0  0  0  0  0
  -25.2717   -9.5704   22.4802 H   0  0  0  0  0  0
  -23.9982   -7.4637   22.7481 H   0  0  0  0  0  0
  -21.0830   -8.8745   19.8970 H   0  0  0  0  0  0
  -22.3639  -10.9670   19.6186 H   0  0  0  0  0  0
  -21.1999   -7.6126   23.9663 H   0  0  0  0  0  0
  -21.1501   -6.0522   25.9048 H   0  0  0  0  0  0
  -22.0612   -2.7585   23.2852 H   0  0  0  0  0  0
  -22.4037  -11.9749   22.4669 H   0  0  0  0  0  0
  -21.1123  -13.1259   22.2849 H   0  0  0  0  0  0
  -24.6637  -15.8609   20.5096 H   0  0  0  0  0  0
  -26.2626  -15.6125   20.0376 H   0  0  0  0  0  0
  -26.7243  -32.5315   23.0952 H   0  0  0  0  0  0
  -25.0119  -33.9669   25.0346 H   0  0  0  0  0  0
  -22.7593  -31.2928   21.3619 H   0  0  0  0  0  0
  -23.3796  -35.9561   23.3301 H   0  0  0  0  0  0
  -24.3570  -36.8881   22.2065 H   0  0  0  0  0  0
  -23.7236  -37.6445   23.6680 H   0  0  0  0  0  0
  -26.1753  -31.4763   20.6146 H   0  0  0  0  0  0
  -26.8747  -30.7571   22.0268 H   0  0  0  0  0  0
  -28.1752  -28.8573   21.1274 H   0  0  0  0  0  0
  -25.9287  -25.8185   19.0557 H   0  0  0  0  0  0
  -23.9739  -27.2567   19.0455 H   0  0  0  0  0  0
  -23.8268  -30.5518   19.3959 H   0  0  0  0  0  0
  -22.7935  -29.2251   19.8319 H   0  0  0  0  0  0
  -25.1318  -36.1883   25.0824 H   0  0  0  0  0  0
  -21.0090  -28.3370   24.1314 H   0  0  0  0  0  0
  -20.5809  -26.2327   23.3614 H   0  0  0  0  0  0
  -21.6690  -26.7487   22.1135 H   0  0  0  0  0  0
  -19.6959  -25.6289   21.1273 H   0  0  0  0  0  0
  -19.6780  -27.3207   20.6780 H   0  0  0  0  0  0
  -17.4263  -26.6778   21.4004 H   0  0  0  0  0  0
  -18.0314  -26.0128   22.9008 H   0  0  0  0  0  0
  -19.8001  -30.7291   24.2279 H   0  0  0  0  0  0
  -17.5085  -31.6306   24.5169 H   0  0  0  0  0  0
  -15.5408  -30.3027   23.7669 H   0  0  0  0  0  0
  -15.8722  -28.0850   22.7083 H   0  0  0  0  0  0
  -24.5881  -30.7105   25.7703 H   0  0  0  0  0  0
  -24.8829  -32.2963   26.4750 H   0  0  0  0  0  0
  -25.7957  -30.9018   27.0215 H   0  0  0  0  0  0
  -26.2961  -29.6748   24.1266 H   0  0  0  0  0  0
  -27.4014  -29.7292   25.4799 H   0  0  0  0  0  0
  -27.8842  -30.4268   23.9514 H   0  0  0  0  0  0
  -27.2643  -33.3707   26.1958 H   0  0  0  0  0  0
  -28.3876  -32.6894   25.0314 H   0  0  0  0  0  0
  -28.0649  -31.8551   26.5444 H   0  0  0  0  0  0
  -28.2600  -38.0100   24.7523 H   0  0  0  0  0  0
  -28.1091  -36.2641   24.6292 H   0  0  0  0  0  0
  -27.2286  -37.1400   25.8864 H   0  0  0  0  0  0
  -20.9462  -29.8810   21.6769 H   0  0  0  0  0  0
  -26.0180  -38.2833   24.1442 H   0  0  0  0  0  0
  -27.0276  -24.2560   18.1820 H   0  0  0  0  0  0
  -27.3955  -22.5917   17.8399 H   0  0  0  0  0  0
  -28.6489  -23.8219   17.6859 H   0  0  0  0  0  0
  -26.2076  -21.7829   23.9809 H   0  0  0  0  0  0
  -27.7309  -22.5824   23.6299 H   0  0  0  0  0  0
  -27.7232  -21.0279   24.4763 H   0  0  0  0  0  0
  -25.5364  -19.7918   22.7446 H   0  0  0  0  0  0
  -27.0134  -19.0384   23.3430 H   0  0  0  0  0  0
  -26.6616  -19.0483   21.6185 H   0  0  0  0  0  0
  -28.7333  -18.7607   19.0914 H   0  0  0  0  0  0
  -30.3146  -19.3580   19.3137 H   0  0  0  0  0  0
  -29.2001  -17.7633   21.6740 H   0  0  0  0  0  0
  -30.8292  -17.8348   21.1399 H   0  0  0  0  0  0
  -29.3217  -21.4879   22.2939 H   0  0  0  0  0  0
  -29.0805  -19.7834   22.4590 H   0  0  0  0  0  0
  -29.6369  -24.7663   20.5455 H   0  0  0  0  0  0
  -28.2224  -24.7695   21.4982 H   0  0  0  0  0  0
  -27.2638  -22.9798   20.2644 H   0  0  0  0  0  0
  -27.7273  -20.4976   20.0601 H   0  0  0  0  0  0
  -28.6976  -15.8709   20.3647 H   0  0  0  0  0  0
  -30.0023  -22.2897   20.3212 H   0  0  0  0  0  0
  -29.4267  -21.8380   18.9103 H   0  0  0  0  0  0
  1 25  1  0  0  0
  1 30  2  0  0  0
  1 80  1  0  0  0
  2  3  1  0  0  0
  2 25  1  0  0  0
  2 83  1  0  0  0
  2 84  1  0  0  0
  3  4  1  0  0  0
  3 85  1  0  0  0
  3 86  1  0  0  0
  4  5  1  0  0  0
  4 87  1  0  0  0
  4 88  1  0  0  0
  5  6  1  0  0  0
  5 26  1  0  0  0
  5 89  1  0  0  0
  6 25  1  0  0  0
  6 90  1  0  0  0
  6 91  1  0  0  0
  7  8  2  0  0  0
  7 26  1  0  0  0
  7 29  1  0  0  0
  8  9  1  0  0  0
  8 22  1  0  0  0
  9 10  1  0  0  0
  9 27  2  0  0  0
 10 11  2  0  0  0
 10 15  1  0  0  0
 11 12  1  0  0  0
 11 92  1  0  0  0
 12 13  2  0  0  0
 12 93  1  0  0  0
 13 14  1  0  0  0
 13 31  1  0  0  0
 14 15  2  0  0  0
 14 94  1  0  0  0
 15 95  1  0  0  0
 16 17  2  0  0  0
 16 21  1  0  0  0
 16 31  1  0  0  0
 17 18  1  0  0  0
 17 96  1  0  0  0
 18 19  2  0  0  0
 18 97  1  0  0  0
 19 20  1  0  0  0
 19 24  1  0  0  0
 20 21  2  0  0  0
 20 98  1  0  0  0
 21 23  1  0  0  0
 22 28  1  0  0  0
 22 32  2  0  0  0
 26 27  1  0  0  0
 28 99  1  0  0  0
 28100  1  0  0  0
 29101  1  0  0  0
 29102  1  0  0  0
 33 34  1  0  0  0
 33 66  1  0  0  0
 33 70  2  0  0  0
 34 36  1  0  0  0
 34 59  1  0  0  0
 34103  1  0  0  0
 35 44  2  0  0  0
 35 45  1  0  0  0
 35 68  1  0  0  0
 36 56  1  0  0  0
 36104  1  0  0  0
 37 39  1  0  0  0
 37 47  1  0  0  0
 37 66  1  0  0  0
 37105  1  0  0  0
 38 43  2  0  0  0
 38 46  1  0  0  0
 38 47  1  0  0  0
 39 64  1  0  0  0
 39 67  2  0  0  0
 40 52  1  0  0  0
 40 53  2  0  0  0
 40 58  1  0  0  0
 41106  1  0  0  0
 41107  1  0  0  0
 41108  1  0  0  0
 41 48  1  0  0  0
 42 43  1  0  0  0
 42 66  1  0  0  0
 42109  1  0  0  0
 42110  1  0  0  0
 43 44  1  0  0  0
 44111  1  0  0  0
 45 46  2  0  0  0
 45112  1  0  0  0
 46113  1  0  0  0
 47114  1  0  0  0
 47115  1  0  0  0
 48 56  1  0  0  0
 48 65  1  0  0  0
 48116  1  0  0  0
 49 50  1  0  0  0
 49 53  1  0  0  0
 49 64  1  0  0  0
 49117  1  0  0  0
 50 51  1  0  0  0
 50118  1  0  0  0
 50119  1  0  0  0
 51 52  1  0  0  0
 51120  1  0  0  0
 51121  1  0  0  0
 52122  1  0  0  0
 52123  1  0  0  0
 53 54  1  0  0  0
 54 55  2  0  0  0
 54124  1  0  0  0
 55 57  1  0  0  0
 55125  1  0  0  0
 56 69  2  0  0  0
 57 58  2  0  0  0
 57126  1  0  0  0
 58127  1  0  0  0
 59 60  1  0  0  0
 59 61  1  0  0  0
 59 62  1  0  0  0
 60128  1  0  0  0
 60129  1  0  0  0
 60130  1  0  0  0
 61131  1  0  0  0
 61132  1  0  0  0
 61133  1  0  0  0
 62134  1  0  0  0
 62135  1  0  0  0
 62136  1  0  0  0
 63 65  1  0  0  0
 63137  1  0  0  0
 63138  1  0  0  0
 63139  1  0  0  0
 64140  1  0  0  0
 65141  1  0  0  0
 68 77  1  0  0  0
 71142  1  0  0  0
 71143  1  0  0  0
 71144  1  0  0  0
 71 78  1  0  0  0
 72 81  1  0  0  0
 72145  1  0  0  0
 72146  1  0  0  0
 72147  1  0  0  0
 73 81  1  0  0  0
 73148  1  0  0  0
 73149  1  0  0  0
 73150  1  0  0  0
 74 75  1  0  0  0
 74151  1  0  0  0
 74152  1  0  0  0
 74 79  1  0  0  0
 75 80  1  0  0  0
 75153  1  0  0  0
 75154  1  0  0  0
 76 79  1  0  0  0
 76 81  1  0  0  0
 76155  1  0  0  0
 76156  1  0  0  0
 77 78  1  0  0  0
 77157  1  0  0  0
 77158  1  0  0  0
 78 82  1  0  0  0
 78159  1  0  0  0
 79 82  1  0  0  0
 79160  1  0  0  0
 80161  1  0  0  0
 82162  1  0  0  0
 82163  1  0  0  0
M  CHG  1  82   1
M  ISO  4   1 100  68 101  77 101  80 100
M  END
> <chiral flag>
0

> <version>
0

> <s_m_source_file>
/data/baiqing/PycharmProjects/Reinvent-master-3.2/result/LINK_invent/BTK/process_docking_weight1_custom_sum_contain_oxygen_bond_distance_aromatic_linkinvent_7_9_3/rearranged_h_0104.sdf

> <i_m_source_file_index>
46

> <r_mmod_Potential_Energy-OPLS-2005>
598.248168945312

> <r_mmod_Stretch_Energy-OPLS-2005>
293.798278808594

> <r_mmod_Bend_Energy-OPLS-2005>
346.083770751953

> <r_mmod_Torsional_Energy-OPLS-2005>
285.370758056641

> <r_mmod_Improper_Torsional_Energy-OPLS-2005>
5.71806049346924

> <r_mmod_Van_der_Waal_Energy-OPLS-2005>
109.964775085449

> <r_mmod_Electrostatic_Energy-OPLS-2005>
-187.965744018555

> <r_mmod_Solvation_Energy-OPLS-2005>
-450.897338867188

> <b_mmod_Minimization_Converged-OPLS-2005>
0

> <r_mmod_RMS_Derivative-OPLS-2005>
4.53079748153687

$$$$
46
                    3D
 Structure written by MMmdl.
159167  0  0  1  0            999 V2000
  -30.3409  -15.5472   20.3071 C   0  0  0  0  0  0
  -30.4459  -13.0101   19.5148 C   0  0  0  0  0  0
  -29.5390  -12.6176   18.3119 C   0  0  0  0  0  0
  -28.1020  -12.2999   18.7554 C   0  0  0  0  0  0
  -27.6063  -13.3033   19.8209 C   0  0  2  0  0  0
  -28.6423  -13.5915   20.9373 C   0  0  0  0  0  0
  -25.2373  -13.8360   20.5867 C   0  0  0  0  0  0
  -24.1699  -13.0521   20.9327 C   0  0  0  0  0  0
  -24.6384  -11.7017   20.8842 C   0  0  0  0  0  0
  -23.9102  -10.4339   21.0424 C   0  0  0  0  0  0
  -24.3649   -9.4247   21.9207 C   0  0  0  0  0  0
  -23.6329   -8.2274   22.0742 C   0  0  0  0  0  0
  -22.4303   -8.0318   21.3542 C   0  0  0  0  0  0
  -21.9960   -9.0298   20.4622 C   0  0  0  0  0  0
  -22.7277  -10.2180   20.3071 C   0  0  0  0  0  0
  -21.6871   -6.0767   22.5268 C   0  0  0  0  0  0
  -21.4042   -6.5660   23.8205 C   0  0  0  0  0  0
  -21.3640   -5.6794   24.9165 C   0  0  0  0  0  0
  -21.6060   -4.3063   24.7204 C   0  0  0  0  0  0
  -21.8808   -3.8156   23.4318 C   0  0  0  0  0  0
  -21.9220   -4.6993   22.3389 C   0  0  0  0  0  0
  -22.7712  -13.5210   21.1942 C   0  0  0  0  0  0
  -22.1684   -4.2175   21.0970 F   0  0  0  0  0  0
  -21.5617   -3.4549   25.7715 F   0  0  0  0  0  0
  -29.8314  -14.1821   20.2857 N   0  0  0  0  0  0
  -26.2809  -12.9668   20.3338 N   0  0  0  0  0  0
  -25.9331  -11.6734   20.5868 N   0  0  0  0  0  0
  -22.0382  -12.8169   22.0453 N   0  0  0  0  0  0
  -25.4041  -15.2064   20.4142 N   0  0  0  0  0  0
  -31.5592  -15.5250   20.0840 O   0  0  0  0  0  0
  -21.6673   -6.8922   21.4217 O   0  0  0  0  0  0
  -22.3376  -14.5505   20.6768 O   0  0  0  0  0  0
  -24.6848  -31.8125   23.1607 C   0  0  0  0  0  0
  -25.9452  -32.4540   23.8063 C   0  0  1  0  0  0
  -27.2312  -26.7682   20.1972 C   0  0  0  0  0  0
  -25.6063  -33.8347   24.2006 N   0  0  0  0  0  0
  -23.4963  -30.4172   21.5185 C   0  0  2  0  0  0
  -24.9483  -28.7671   20.1175 C   0  0  0  0  0  0
  -22.7760  -29.4396   22.4837 C   0  0  0  0  0  0
  -18.0415  -28.1369   22.8469 C   0  0  0  0  0  0
  -24.1496  -36.7198   23.2647 C   0  0  0  0  0  0
  -26.0764  -30.5568   21.4135 C   0  0  0  0  0  0
  -26.1386  -29.1285   20.7598 C   0  0  0  0  0  0
  -27.2705  -28.1624   20.7592 C   0  0  0  0  0  0
  -25.9971  -26.5905   19.5155 C   0  0  0  0  0  0
  -24.9167  -27.5203   19.4701 C   0  0  0  0  0  0
  -23.7410  -29.7117   20.1544 C   0  0  0  0  0  0
  -25.4136  -36.2956   24.0302 C   0  0  1  0  0  0
  -20.6021  -28.3873   23.1249 C   0  0  2  0  0  0
  -20.7114  -26.9503   22.5534 C   0  0  0  0  0  0
  -19.6107  -26.6332   21.5418 C   0  0  0  0  0  0
  -18.2223  -26.7851   22.1706 C   0  0  0  0  0  0
  -19.1598  -28.8970   23.2791 C   0  0  0  0  0  0
  -18.9389  -30.1649   23.8644 C   0  0  0  0  0  0
  -17.6374  -30.6712   24.0293 C   0  0  0  0  0  0
  -25.9120  -34.9337   23.4989 C   0  0  0  0  0  0
  -16.5293  -29.9068   23.6186 C   0  0  0  0  0  0
  -16.7339  -28.6423   23.0325 C   0  0  0  0  0  0
  -26.4562  -31.6529   25.0678 C   0  0  0  0  0  0
  -25.3608  -31.3838   26.1299 C   0  0  0  0  0  0
  -27.0466  -30.2869   24.6546 C   0  0  0  0  0  0
  -27.6029  -32.4378   25.7483 C   0  0  0  0  0  0
  -27.5577  -37.1739   24.8438 C   0  0  0  0  0  0
  -21.4421  -29.3113   22.3555 N   0  0  0  0  0  0
  -26.4286  -37.3710   23.9391 N   0  0  0  0  0  0
  -24.7739  -30.9609   22.0835 N   0  0  0  0  0  0
  -23.4242  -28.8068   23.3253 O   0  0  0  0  0  0
  -28.2314  -25.5925   20.2338 O   0  0  0  0  0  0
  -26.5757  -34.8931   22.4602 O   0  0  0  0  0  0
  -23.5907  -32.1252   23.6616 O   0  0  0  0  0  0
  -27.7523  -18.4687   19.6124 C   0  0  0  0  0  0
  -26.7632  -19.5371   20.1582 C   0  0  0  0  0  0
  -28.3305  -20.3920   21.9178 C   0  0  0  0  0  0
  -29.2333  -20.4151   20.6792 C   0  0  1  0  0  0
  -29.2439  -18.5811   20.0746 C   0  0  1  0  0  0
  -30.4319  -22.8762   20.8020 C   0  0  0  0  0  0
  -25.9166  -20.7720   22.1421 C   0  0  0  0  0  0
  -28.0785  -23.8591   20.2692 C   0  0  0  0  0  0
  -29.1616  -22.2807   20.1395 C   0  0  2  0  0  0
  -29.5258  -16.8541   20.4078 N   0  0  0  0  0  0
  -26.9691  -19.8804   21.5978 N   0  3  1  0  0  0
  -31.4284  -13.2755   19.1261 H   0  0  0  0  0  0
  -30.6192  -12.1626   20.1826 H   0  0  0  0  0  0
  -29.9458  -11.7663   17.7645 H   0  0  0  0  0  0
  -29.4998  -13.4506   17.6058 H   0  0  0  0  0  0
  -28.0823  -11.2919   19.1741 H   0  0  0  0  0  0
  -27.4203  -12.2904   17.9030 H   0  0  0  0  0  0
  -27.4896  -14.2369   19.2664 H   0  0  0  0  0  0
  -28.2501  -14.3236   21.6479 H   0  0  0  0  0  0
  -28.8850  -12.6918   21.5067 H   0  0  0  0  0  0
  -25.2807   -9.5736   22.4766 H   0  0  0  0  0  0
  -24.0058   -7.4674   22.7456 H   0  0  0  0  0  0
  -21.0914   -8.8771   19.8935 H   0  0  0  0  0  0
  -22.3720  -10.9700   19.6154 H   0  0  0  0  0  0
  -21.2028   -7.6167   23.9705 H   0  0  0  0  0  0
  -21.1474   -6.0540   25.9067 H   0  0  0  0  0  0
  -22.0606   -2.7622   23.2802 H   0  0  0  0  0  0
  -22.4080  -11.9789   22.4727 H   0  0  0  0  0  0
  -21.0994  -13.1076   22.2775 H   0  0  0  0  0  0
  -24.6185  -15.8450   20.4645 H   0  0  0  0  0  0
  -26.1789  -15.5668   19.8722 H   0  0  0  0  0  0
  -26.7596  -32.5087   23.0833 H   0  0  0  0  0  0
  -24.9952  -33.9320   24.9970 H   0  0  0  0  0  0
  -22.8089  -31.2459   21.3339 H   0  0  0  0  0  0
  -23.3815  -35.9475   23.3228 H   0  0  0  0  0  0
  -24.3549  -36.8943   22.2074 H   0  0  0  0  0  0
  -23.7213  -37.6346   23.6772 H   0  0  0  0  0  0
  -26.2850  -31.2818   20.6217 H   0  0  0  0  0  0
  -26.9293  -30.6218   22.0778 H   0  0  0  0  0  0
  -28.1733  -28.4569   21.2763 H   0  0  0  0  0  0
  -25.8228  -25.6378   19.0385 H   0  0  0  0  0  0
  -24.0113  -27.2290   18.9584 H   0  0  0  0  0  0
  -23.9059  -30.4782   19.3966 H   0  0  0  0  0  0
  -22.8440  -29.1742   19.8416 H   0  0  0  0  0  0
  -25.1347  -36.1718   25.0808 H   0  0  0  0  0  0
  -21.0151  -28.3574   24.1368 H   0  0  0  0  0  0
  -20.6161  -26.2299   23.3685 H   0  0  0  0  0  0
  -21.7108  -26.7664   22.1321 H   0  0  0  0  0  0
  -19.7461  -25.6348   21.1274 H   0  0  0  0  0  0
  -19.6890  -27.3216   20.7017 H   0  0  0  0  0  0
  -17.4635  -26.6329   21.4026 H   0  0  0  0  0  0
  -18.0690  -26.0098   22.9175 H   0  0  0  0  0  0
  -19.7776  -30.7671   24.1967 H   0  0  0  0  0  0
  -17.4909  -31.6445   24.4887 H   0  0  0  0  0  0
  -15.5280  -30.2935   23.7522 H   0  0  0  0  0  0
  -15.8745  -28.0721   22.7011 H   0  0  0  0  0  0
  -24.5863  -30.7074   25.7644 H   0  0  0  0  0  0
  -24.8657  -32.3042   26.4425 H   0  0  0  0  0  0
  -25.7821  -30.9230   27.0227 H   0  0  0  0  0  0
  -26.3152  -29.6512   24.1552 H   0  0  0  0  0  0
  -27.3916  -29.7372   25.5278 H   0  0  0  0  0  0
  -27.9142  -30.3999   24.0057 H   0  0  0  0  0  0
  -27.2596  -33.3798   26.1777 H   0  0  0  0  0  0
  -28.3960  -32.6740   25.0371 H   0  0  0  0  0  0
  -28.0537  -31.8640   26.5593 H   0  0  0  0  0  0
  -28.2546  -38.0072   24.7505 H   0  0  0  0  0  0
  -28.1149  -36.2601   24.6264 H   0  0  0  0  0  0
  -27.2263  -37.1335   25.8828 H   0  0  0  0  0  0
  -20.9723  -29.8772   21.6695 H   0  0  0  0  0  0
  -26.0150  -38.2789   24.1375 H   0  0  0  0  0  0
  -27.6994  -18.4569   18.5252 H   0  0  0  0  0  0
  -27.3133  -17.5076   19.9091 H   0  0  0  0  0  0
  -26.8318  -20.4249   19.5309 H   0  0  0  0  0  0
  -25.7530  -19.1477   20.0375 H   0  0  0  0  0  0
  -28.3292  -21.3911   22.3558 H   0  0  0  0  0  0
  -28.7520  -19.7759   22.7068 H   0  0  0  0  0  0
  -30.2570  -20.4215   21.0578 H   0  0  0  0  0  0
  -29.3555  -18.4259   21.1426 H   0  0  0  0  0  0
  -31.3550  -22.3430   20.5621 H   0  0  0  0  0  0
  -30.3222  -22.9190   21.8946 H   0  0  0  0  0  0
  -30.5952  -23.9125   20.4883 H   0  0  0  0  0  0
  -24.9160  -20.4550   21.8475 H   0  0  0  0  0  0
  -26.0709  -21.7911   21.7901 H   0  0  0  0  0  0
  -25.9558  -20.7743   23.2327 H   0  0  0  0  0  0
  -27.5495  -23.7029   21.2069 H   0  0  0  0  0  0
  -27.3220  -23.6924   19.5022 H   0  0  0  0  0  0
  -29.3924  -22.2354   19.0721 H   0  0  0  0  0  0
  -28.6237  -16.5004   20.6639 H   0  0  0  0  0  0
  -26.8683  -19.0083   22.1031 H   0  0  0  0  0  0
  1 25  1  0  0  0
  1 30  2  0  0  0
  1 80  1  0  0  0
  2  3  1  0  0  0
  2 25  1  0  0  0
  2 82  1  0  0  0
  2 83  1  0  0  0
  3  4  1  0  0  0
  3 84  1  0  0  0
  3 85  1  0  0  0
  4  5  1  0  0  0
  4 86  1  0  0  0
  4 87  1  0  0  0
  5  6  1  0  0  0
  5 26  1  0  0  0
  5 88  1  0  0  0
  6 25  1  0  0  0
  6 89  1  0  0  0
  6 90  1  0  0  0
  7  8  2  0  0  0
  7 26  1  0  0  0
  7 29  1  0  0  0
  8  9  1  0  0  0
  8 22  1  0  0  0
  9 10  1  0  0  0
  9 27  2  0  0  0
 10 11  2  0  0  0
 10 15  1  0  0  0
 11 12  1  0  0  0
 11 91  1  0  0  0
 12 13  2  0  0  0
 12 92  1  0  0  0
 13 14  1  0  0  0
 13 31  1  0  0  0
 14 15  2  0  0  0
 14 93  1  0  0  0
 15 94  1  0  0  0
 16 17  2  0  0  0
 16 21  1  0  0  0
 16 31  1  0  0  0
 17 18  1  0  0  0
 17 95  1  0  0  0
 18 19  2  0  0  0
 18 96  1  0  0  0
 19 20  1  0  0  0
 19 24  1  0  0  0
 20 21  2  0  0  0
 20 97  1  0  0  0
 21 23  1  0  0  0
 22 28  1  0  0  0
 22 32  2  0  0  0
 26 27  1  0  0  0
 28 98  1  0  0  0
 28 99  1  0  0  0
 29100  1  0  0  0
 29101  1  0  0  0
 33 34  1  0  0  0
 33 66  1  0  0  0
 33 70  2  0  0  0
 34 36  1  0  0  0
 34 59  1  0  0  0
 34102  1  0  0  0
 35 44  2  0  0  0
 35 45  1  0  0  0
 35 68  1  0  0  0
 36 56  1  0  0  0
 36103  1  0  0  0
 37 39  1  0  0  0
 37 47  1  0  0  0
 37 66  1  0  0  0
 37104  1  0  0  0
 38 43  2  0  0  0
 38 46  1  0  0  0
 38 47  1  0  0  0
 39 64  1  0  0  0
 39 67  2  0  0  0
 40 52  1  0  0  0
 40 53  2  0  0  0
 40 58  1  0  0  0
 41105  1  0  0  0
 41106  1  0  0  0
 41107  1  0  0  0
 41 48  1  0  0  0
 42 43  1  0  0  0
 42 66  1  0  0  0
 42108  1  0  0  0
 42109  1  0  0  0
 43 44  1  0  0  0
 44110  1  0  0  0
 45 46  2  0  0  0
 45111  1  0  0  0
 46112  1  0  0  0
 47113  1  0  0  0
 47114  1  0  0  0
 48 56  1  0  0  0
 48 65  1  0  0  0
 48115  1  0  0  0
 49 50  1  0  0  0
 49 53  1  0  0  0
 49 64  1  0  0  0
 49116  1  0  0  0
 50 51  1  0  0  0
 50117  1  0  0  0
 50118  1  0  0  0
 51 52  1  0  0  0
 51119  1  0  0  0
 51120  1  0  0  0
 52121  1  0  0  0
 52122  1  0  0  0
 53 54  1  0  0  0
 54 55  2  0  0  0
 54123  1  0  0  0
 55 57  1  0  0  0
 55124  1  0  0  0
 56 69  2  0  0  0
 57 58  2  0  0  0
 57125  1  0  0  0
 58126  1  0  0  0
 59 60  1  0  0  0
 59 61  1  0  0  0
 59 62  1  0  0  0
 60127  1  0  0  0
 60128  1  0  0  0
 60129  1  0  0  0
 61130  1  0  0  0
 61131  1  0  0  0
 61132  1  0  0  0
 62133  1  0  0  0
 62134  1  0  0  0
 62135  1  0  0  0
 63 65  1  0  0  0
 63136  1  0  0  0
 63137  1  0  0  0
 63138  1  0  0  0
 64139  1  0  0  0
 65140  1  0  0  0
 68 78  1  0  0  0
 71 72  1  0  0  0
 71 75  1  0  0  0
 71141  1  0  0  0
 71142  1  0  0  0
 72 81  1  0  0  0
 72143  1  0  0  0
 72144  1  0  0  0
 73 81  1  0  0  0
 73145  1  0  0  0
 73146  1  0  0  0
 73 74  1  0  0  0
 74 75  1  0  0  0
 74 79  1  0  0  0
 74147  1  0  0  0
 75 80  1  0  0  0
 75148  1  0  0  0
 76149  1  0  0  0
 76150  1  0  0  0
 76151  1  0  0  0
 76 79  1  0  0  0
 77152  1  0  0  0
 77153  1  0  0  0
 77154  1  0  0  0
 77 81  1  0  0  0
 78 79  1  0  0  0
 78155  1  0  0  0
 78156  1  0  0  0
 79157  1  0  0  0
 80158  1  0  0  0
 81159  1  0  0  0
M  CHG  1  81   1
M  ISO  4   1 100  68 101  78 101  80 100
M  END
> <chiral flag>
0

> <version>
0

> <s_m_source_file>
/data/baiqing/PycharmProjects/Reinvent-master-3.2/result/LINK_invent/BTK/process_docking_weight1_custom_sum_contain_oxygen_bond_distance_aromatic_linkinvent_7_9_3/rearranged_h_0104.sdf

> <i_m_source_file_index>
47

> <r_mmod_Potential_Energy-OPLS-2005>
2535.36669921875

> <r_mmod_Stretch_Energy-OPLS-2005>
1123.02319335938

> <r_mmod_Bend_Energy-OPLS-2005>
898.605651855469

> <r_mmod_Torsional_Energy-OPLS-2005>
298.258331298828

> <r_mmod_Improper_Torsional_Energy-OPLS-2005>
5.55489873886108

> <r_mmod_Van_der_Waal_Energy-OPLS-2005>
126.87589263916

> <r_mmod_Electrostatic_Energy-OPLS-2005>
-200.350280761719

> <r_mmod_Solvation_Energy-OPLS-2005>
-482.099273681641

> <b_mmod_Minimization_Converged-OPLS-2005>
0

> <r_mmod_RMS_Derivative-OPLS-2005>
13.5369291305542

$$$$
47
                    3D
 Structure written by MMmdl.
163171  0  0  1  0            999 V2000
  -30.6117  -14.7592   20.4653 C   0  0  0  0  0  0
  -30.4399  -12.4681   19.4610 C   0  0  0  0  0  0
  -29.5081  -12.5076   18.2294 C   0  0  0  0  0  0
  -28.0365  -12.3247   18.6489 C   0  0  0  0  0  0
  -27.6410  -13.2311   19.8432 C   0  0  2  0  0  0
  -28.6892  -13.1688   20.9760 C   0  0  0  0  0  0
  -25.2481  -13.8167   20.5671 C   0  0  0  0  0  0
  -24.1799  -13.0429   20.9207 C   0  0  0  0  0  0
  -24.6388  -11.6897   20.8741 C   0  0  0  0  0  0
  -23.9069  -10.4282   21.0398 C   0  0  0  0  0  0
  -24.3615   -9.4197   21.9178 C   0  0  0  0  0  0
  -23.6289   -8.2236   22.0756 C   0  0  0  0  0  0
  -22.4273   -8.0271   21.3545 C   0  0  0  0  0  0
  -21.9905   -9.0242   20.4644 C   0  0  0  0  0  0
  -22.7239  -10.2125   20.3046 C   0  0  0  0  0  0
  -21.6850   -6.0725   22.5271 C   0  0  0  0  0  0
  -21.4015   -6.5631   23.8209 C   0  0  0  0  0  0
  -21.3663   -5.6791   24.9172 C   0  0  0  0  0  0
  -21.6045   -4.3057   24.7232 C   0  0  0  0  0  0
  -21.8811   -3.8142   23.4351 C   0  0  0  0  0  0
  -21.9191   -4.6945   22.3404 C   0  0  0  0  0  0
  -22.7806  -13.5179   21.1883 C   0  0  0  0  0  0
  -22.1656   -4.2135   21.0981 F   0  0  0  0  0  0
  -21.5635   -3.4538   25.7743 F   0  0  0  0  0  0
  -29.9911  -13.5286   20.3923 N   0  0  0  0  0  0
  -26.2937  -12.9401   20.3239 N   0  0  0  0  0  0
  -25.9324  -11.6549   20.5728 N   0  0  0  0  0  0
  -22.0474  -12.8174   22.0443 N   0  0  0  0  0  0
  -25.4099  -15.1910   20.4054 N   0  0  0  0  0  0
  -31.8033  -14.8689   20.1675 O   0  0  0  0  0  0
  -21.6645   -6.8867   21.4235 O   0  0  0  0  0  0
  -22.3495  -14.5498   20.6728 O   0  0  0  0  0  0
  -24.6244  -31.8657   23.1986 C   0  0  0  0  0  0
  -25.9100  -32.4803   23.8318 C   0  0  1  0  0  0
  -27.2431  -27.3046   20.1071 C   0  0  0  0  0  0
  -25.5888  -33.8592   24.2258 N   0  0  0  0  0  0
  -23.4203  -30.4843   21.5458 C   0  0  2  0  0  0
  -24.8777  -28.9481   20.0985 C   0  0  0  0  0  0
  -22.7460  -29.4637   22.4928 C   0  0  0  0  0  0
  -18.0301  -28.1341   22.8521 C   0  0  0  0  0  0
  -24.1519  -36.7261   23.2645 C   0  0  0  0  0  0
  -25.9625  -30.7898   21.3794 C   0  0  0  0  0  0
  -26.0455  -29.4185   20.7115 C   0  0  0  0  0  0
  -27.2279  -28.6096   20.7068 C   0  0  0  0  0  0
  -26.0524  -26.9089   19.4505 C   0  0  0  0  0  0
  -24.8875  -27.7021   19.4519 C   0  0  0  0  0  0
  -23.6351  -29.8177   20.1608 C   0  0  0  0  0  0
  -25.4147  -36.3076   24.0327 C   0  0  1  0  0  0
  -20.5902  -28.3672   23.1279 C   0  0  2  0  0  0
  -20.6791  -26.9385   22.5410 C   0  0  0  0  0  0
  -19.5758  -26.6361   21.5214 C   0  0  0  0  0  0
  -18.1947  -26.7897   22.1643 C   0  0  0  0  0  0
  -19.1555  -28.8818   23.2913 C   0  0  0  0  0  0
  -18.9481  -30.1435   23.8914 C   0  0  0  0  0  0
  -17.6467  -30.6565   24.0548 C   0  0  0  0  0  0
  -25.9078  -34.9465   23.5105 C   0  0  0  0  0  0
  -16.5369  -29.9046   23.6326 C   0  0  0  0  0  0
  -16.7293  -28.6457   23.0367 C   0  0  0  0  0  0
  -26.4497  -31.6558   25.0654 C   0  0  0  0  0  0
  -25.3666  -31.3649   26.1311 C   0  0  0  0  0  0
  -27.0354  -30.2981   24.6094 C   0  0  0  0  0  0
  -27.6098  -32.4245   25.7374 C   0  0  0  0  0  0
  -27.5612  -37.1763   24.8453 C   0  0  0  0  0  0
  -21.4171  -29.3028   22.3638 N   0  0  0  0  0  0
  -26.4334  -37.3753   23.9389 N   0  0  0  0  0  0
  -24.6882  -31.0594   22.1001 N   0  0  0  0  0  0
  -23.4180  -28.8195   23.3030 O   0  0  0  0  0  0
  -28.3527  -26.4240   20.1791 O   0  0  0  0  0  0
  -26.5674  -34.8934   22.4687 O   0  0  0  0  0  0
  -23.5394  -32.1526   23.7261 O   0  0  0  0  0  0
  -29.6547  -21.1460   20.3870 C   0  0  0  0  0  0
  -29.1260  -19.9367   19.9193 C   0  0  0  0  0  0
  -27.8448  -20.3446   19.4047 C   0  0  0  0  0  0
  -27.7679  -21.7269   19.3605 C   0  0  0  0  0  0
  -26.7263  -22.5635   18.6679 C   0  0  0  0  0  0
  -26.7893  -19.2329   17.3818 C   0  0  0  0  0  0
  -25.3764  -19.7142   19.4648 C   0  0  0  0  0  0
  -29.7132  -18.4381   19.7420 C   0  0  0  0  0  0
  -29.1634  -23.7689   20.3297 C   0  0  0  0  0  0
  -30.0840  -17.3746   20.8986 C   0  0  0  0  0  0
  -28.1500  -24.9649   19.8936 C   0  0  0  0  0  0
  -26.7728  -19.3828   18.9109 C   0  0  0  0  0  0
  -28.8541  -22.2803   20.0446 N   0  0  0  0  0  0
  -29.8145  -15.8728   20.6867 N   0  0  0  0  0  0
  -31.4759  -12.6077   19.1505 H   0  0  0  0  0  0
  -30.4037  -11.4923   19.9485 H   0  0  0  0  0  0
  -29.7933  -11.7314   17.5175 H   0  0  0  0  0  0
  -29.6278  -13.4593   17.7106 H   0  0  0  0  0  0
  -27.9021  -11.2763   18.9200 H   0  0  0  0  0  0
  -27.3773  -12.5049   17.7992 H   0  0  0  0  0  0
  -27.6315  -14.2501   19.4560 H   0  0  0  0  0  0
  -28.7252  -12.1714   21.4178 H   0  0  0  0  0  0
  -28.4177  -13.8505   21.7845 H   0  0  0  0  0  0
  -25.2747   -9.5680   22.4762 H   0  0  0  0  0  0
  -23.9990   -7.4630   22.7473 H   0  0  0  0  0  0
  -21.0836   -8.8751   19.8948 H   0  0  0  0  0  0
  -22.3675  -10.9661   19.6164 H   0  0  0  0  0  0
  -21.2008   -7.6144   23.9698 H   0  0  0  0  0  0
  -21.1497   -6.0532   25.9074 H   0  0  0  0  0  0
  -22.0590   -2.7599   23.2859 H   0  0  0  0  0  0
  -22.4119  -11.9852   22.4848 H   0  0  0  0  0  0
  -21.1071  -13.1163   22.2633 H   0  0  0  0  0  0
  -24.6234  -15.8243   20.4965 H   0  0  0  0  0  0
  -26.2370  -15.6395   20.0380 H   0  0  0  0  0  0
  -26.7171  -32.5547   23.1072 H   0  0  0  0  0  0
  -24.9809  -33.9708   25.0243 H   0  0  0  0  0  0
  -22.7162  -31.3081   21.4047 H   0  0  0  0  0  0
  -23.3814  -35.9563   23.3290 H   0  0  0  0  0  0
  -24.3607  -36.8913   22.2062 H   0  0  0  0  0  0
  -23.7261  -37.6443   23.6702 H   0  0  0  0  0  0
  -26.0914  -31.5676   20.6252 H   0  0  0  0  0  0
  -26.8391  -30.8354   22.0125 H   0  0  0  0  0  0
  -28.1189  -28.9703   21.2051 H   0  0  0  0  0  0
  -25.9968  -25.9678   18.9277 H   0  0  0  0  0  0
  -23.9949  -27.3492   18.9532 H   0  0  0  0  0  0
  -23.7084  -30.5962   19.3995 H   0  0  0  0  0  0
  -22.7646  -29.2222   19.8840 H   0  0  0  0  0  0
  -25.1340  -36.1912   25.0824 H   0  0  0  0  0  0
  -21.0061  -28.3267   24.1372 H   0  0  0  0  0  0
  -20.5679  -26.2264   23.3617 H   0  0  0  0  0  0
  -21.6659  -26.7384   22.1213 H   0  0  0  0  0  0
  -19.6907  -25.6271   21.1232 H   0  0  0  0  0  0
  -19.6690  -27.3194   20.6765 H   0  0  0  0  0  0
  -17.4212  -26.6679   21.4043 H   0  0  0  0  0  0
  -18.0326  -26.0009   22.9005 H   0  0  0  0  0  0
  -19.7951  -30.7243   24.2285 H   0  0  0  0  0  0
  -17.5024  -31.6253   24.5118 H   0  0  0  0  0  0
  -15.5366  -30.2935   23.7633 H   0  0  0  0  0  0
  -15.8707  -28.0768   22.7059 H   0  0  0  0  0  0
  -24.5884  -30.7018   25.7497 H   0  0  0  0  0  0
  -24.8787  -32.2788   26.4706 H   0  0  0  0  0  0
  -25.7906  -30.8756   27.0082 H   0  0  0  0  0  0
  -26.2938  -29.6651   24.1213 H   0  0  0  0  0  0
  -27.4164  -29.7302   25.4584 H   0  0  0  0  0  0
  -27.8751  -30.4245   23.9262 H   0  0  0  0  0  0
  -27.2838  -33.3621   26.1876 H   0  0  0  0  0  0
  -28.3918  -32.6656   25.0154 H   0  0  0  0  0  0
  -28.0745  -31.8369   26.5293 H   0  0  0  0  0  0
  -28.2589  -38.0103   24.7584 H   0  0  0  0  0  0
  -28.1171  -36.2632   24.6229 H   0  0  0  0  0  0
  -27.2297  -37.1315   25.8845 H   0  0  0  0  0  0
  -20.9312  -29.8720   21.6851 H   0  0  0  0  0  0
  -26.0230  -38.2826   24.1406 H   0  0  0  0  0  0
  -30.5954  -21.3157   20.8981 H   0  0  0  0  0  0
  -27.1765  -23.2355   17.9398 H   0  0  0  0  0  0
  -26.1003  -23.1167   19.3675 H   0  0  0  0  0  0
  -26.0660  -21.9655   18.0480 H   0  0  0  0  0  0
  -27.7529  -18.8643   17.0308 H   0  0  0  0  0  0
  -26.6052  -20.1743   16.8660 H   0  0  0  0  0  0
  -26.0264  -18.5255   17.0574 H   0  0  0  0  0  0
  -25.4315  -19.9977   20.5184 H   0  0  0  0  0  0
  -24.7228  -18.8470   19.3871 H   0  0  0  0  0  0
  -24.8754  -20.5187   18.9340 H   0  0  0  0  0  0
  -30.6004  -18.5418   19.1147 H   0  0  0  0  0  0
  -29.0303  -17.9185   19.0757 H   0  0  0  0  0  0
  -29.2991  -23.8533   21.4084 H   0  0  0  0  0  0
  -30.1526  -23.9711   19.9120 H   0  0  0  0  0  0
  -29.5187  -17.6501   21.7882 H   0  0  0  0  0  0
  -31.1299  -17.5123   21.1760 H   0  0  0  0  0  0
  -27.2019  -24.7042   20.3584 H   0  0  0  0  0  0
  -28.0328  -24.9322   18.8128 H   0  0  0  0  0  0
  -26.9985  -18.4081   19.3370 H   0  0  0  0  0  0
  -28.8545  -15.6182   20.8581 H   0  0  0  0  0  0
  1 25  1  0  0  0
  1 30  2  0  0  0
  1 84  1  0  0  0
  2  3  1  0  0  0
  2 25  1  0  0  0
  2 85  1  0  0  0
  2 86  1  0  0  0
  3  4  1  0  0  0
  3 87  1  0  0  0
  3 88  1  0  0  0
  4  5  1  0  0  0
  4 89  1  0  0  0
  4 90  1  0  0  0
  5  6  1  0  0  0
  5 26  1  0  0  0
  5 91  1  0  0  0
  6 25  1  0  0  0
  6 92  1  0  0  0
  6 93  1  0  0  0
  7  8  2  0  0  0
  7 26  1  0  0  0
  7 29  1  0  0  0
  8  9  1  0  0  0
  8 22  1  0  0  0
  9 10  1  0  0  0
  9 27  2  0  0  0
 10 11  2  0  0  0
 10 15  1  0  0  0
 11 12  1  0  0  0
 11 94  1  0  0  0
 12 13  2  0  0  0
 12 95  1  0  0  0
 13 14  1  0  0  0
 13 31  1  0  0  0
 14 15  2  0  0  0
 14 96  1  0  0  0
 15 97  1  0  0  0
 16 17  2  0  0  0
 16 21  1  0  0  0
 16 31  1  0  0  0
 17 18  1  0  0  0
 17 98  1  0  0  0
 18 19  2  0  0  0
 18 99  1  0  0  0
 19 20  1  0  0  0
 19 24  1  0  0  0
 20 21  2  0  0  0
 20100  1  0  0  0
 21 23  1  0  0  0
 22 28  1  0  0  0
 22 32  2  0  0  0
 26 27  1  0  0  0
 28101  1  0  0  0
 28102  1  0  0  0
 29103  1  0  0  0
 29104  1  0  0  0
 33 34  1  0  0  0
 33 66  1  0  0  0
 33 70  2  0  0  0
 34 36  1  0  0  0
 34 59  1  0  0  0
 34105  1  0  0  0
 35 44  2  0  0  0
 35 45  1  0  0  0
 35 68  1  0  0  0
 36 56  1  0  0  0
 36106  1  0  0  0
 37 39  1  0  0  0
 37 47  1  0  0  0
 37 66  1  0  0  0
 37107  1  0  0  0
 38 43  2  0  0  0
 38 46  1  0  0  0
 38 47  1  0  0  0
 39 64  1  0  0  0
 39 67  2  0  0  0
 40 52  1  0  0  0
 40 53  2  0  0  0
 40 58  1  0  0  0
 41108  1  0  0  0
 41109  1  0  0  0
 41110  1  0  0  0
 41 48  1  0  0  0
 42 43  1  0  0  0
 42 66  1  0  0  0
 42111  1  0  0  0
 42112  1  0  0  0
 43 44  1  0  0  0
 44113  1  0  0  0
 45 46  2  0  0  0
 45114  1  0  0  0
 46115  1  0  0  0
 47116  1  0  0  0
 47117  1  0  0  0
 48 56  1  0  0  0
 48 65  1  0  0  0
 48118  1  0  0  0
 49 50  1  0  0  0
 49 53  1  0  0  0
 49 64  1  0  0  0
 49119  1  0  0  0
 50 51  1  0  0  0
 50120  1  0  0  0
 50121  1  0  0  0
 51 52  1  0  0  0
 51122  1  0  0  0
 51123  1  0  0  0
 52124  1  0  0  0
 52125  1  0  0  0
 53 54  1  0  0  0
 54 55  2  0  0  0
 54126  1  0  0  0
 55 57  1  0  0  0
 55127  1  0  0  0
 56 69  2  0  0  0
 57 58  2  0  0  0
 57128  1  0  0  0
 58129  1  0  0  0
 59 60  1  0  0  0
 59 61  1  0  0  0
 59 62  1  0  0  0
 60130  1  0  0  0
 60131  1  0  0  0
 60132  1  0  0  0
 61133  1  0  0  0
 61134  1  0  0  0
 61135  1  0  0  0
 62136  1  0  0  0
 62137  1  0  0  0
 62138  1  0  0  0
 63 65  1  0  0  0
 63139  1  0  0  0
 63140  1  0  0  0
 63141  1  0  0  0
 64142  1  0  0  0
 65143  1  0  0  0
 68 81  1  0  0  0
 71 72  2  0  0  0
 71 83  1  0  0  0
 71144  1  0  0  0
 72 73  1  0  0  0
 72 78  1  0  0  0
 73 74  2  0  0  0
 73 82  1  0  0  0
 74 75  1  0  0  0
 74 83  1  0  0  0
 75145  1  0  0  0
 75146  1  0  0  0
 75147  1  0  0  0
 76148  1  0  0  0
 76149  1  0  0  0
 76150  1  0  0  0
 76 82  1  0  0  0
 77 82  1  0  0  0
 77151  1  0  0  0
 77152  1  0  0  0
 77153  1  0  0  0
 78 80  1  0  0  0
 78154  1  0  0  0
 78155  1  0  0  0
 79 81  1  0  0  0
 79 83  1  0  0  0
 79156  1  0  0  0
 79157  1  0  0  0
 80 84  1  0  0  0
 80158  1  0  0  0
 80159  1  0  0  0
 81160  1  0  0  0
 81161  1  0  0  0
 82162  1  0  0  0
 84163  1  0  0  0
M  ISO  4   1 100  68 101  81 101  84 100
M  END
> <chiral flag>
0

> <version>
0

> <s_m_source_file>
/data/baiqing/PycharmProjects/Reinvent-master-3.2/result/LINK_invent/BTK/process_docking_weight1_custom_sum_contain_oxygen_bond_distance_aromatic_linkinvent_7_9_3/rearranged_h_0104.sdf

> <i_m_source_file_index>
48

> <r_mmod_Potential_Energy-OPLS-2005>
166.069412231445

> <r_mmod_Stretch_Energy-OPLS-2005>
131.535736083984

> <r_mmod_Bend_Energy-OPLS-2005>
204.176696777344

> <r_mmod_Torsional_Energy-OPLS-2005>
239.73664855957

> <r_mmod_Improper_Torsional_Energy-OPLS-2005>
5.64231634140015

> <r_mmod_Van_der_Waal_Energy-OPLS-2005>
129.511642456055

> <r_mmod_Electrostatic_Energy-OPLS-2005>
-411.123474121094

> <r_mmod_Solvation_Energy-OPLS-2005>
-212.746276855469

> <b_mmod_Minimization_Converged-OPLS-2005>
0

> <r_mmod_RMS_Derivative-OPLS-2005>
5.16145420074463

$$$$
48
                    3D
 Structure written by MMmdl.
161169  0  0  1  0            999 V2000
  -30.5195  -15.0033   20.4015 C   0  0  0  0  0  0
  -30.4453  -12.6162   19.5243 C   0  0  0  0  0  0
  -29.5402  -12.5549   18.2719 C   0  0  0  0  0  0
  -28.0666  -12.3442   18.6668 C   0  0  0  0  0  0
  -27.6344  -13.2610   19.8419 C   0  0  2  0  0  0
  -28.6728  -13.2958   20.9858 C   0  0  0  0  0  0
  -25.2483  -13.8253   20.5664 C   0  0  0  0  0  0
  -24.1806  -13.0472   20.9196 C   0  0  0  0  0  0
  -24.6414  -11.6953   20.8691 C   0  0  0  0  0  0
  -23.9082  -10.4328   21.0382 C   0  0  0  0  0  0
  -24.3649   -9.4257   21.9163 C   0  0  0  0  0  0
  -23.6324   -8.2285   22.0746 C   0  0  0  0  0  0
  -22.4298   -8.0316   21.3553 C   0  0  0  0  0  0
  -21.9931   -9.0275   20.4643 C   0  0  0  0  0  0
  -22.7246  -10.2158   20.3025 C   0  0  0  0  0  0
  -21.6875   -6.0739   22.5249 C   0  0  0  0  0  0
  -21.4016   -6.5635   23.8184 C   0  0  0  0  0  0
  -21.3673   -5.6799   24.9149 C   0  0  0  0  0  0
  -21.6063   -4.3054   24.7208 C   0  0  0  0  0  0
  -21.8836   -3.8146   23.4328 C   0  0  0  0  0  0
  -21.9197   -4.6961   22.3385 C   0  0  0  0  0  0
  -22.7835  -13.5238   21.1872 C   0  0  0  0  0  0
  -22.1693   -4.2156   21.0965 F   0  0  0  0  0  0
  -21.5641   -3.4535   25.7725 F   0  0  0  0  0  0
  -29.9489  -13.7225   20.3976 N   0  0  0  0  0  0
  -26.2921  -12.9494   20.3233 N   0  0  0  0  0  0
  -25.9358  -11.6614   20.5681 N   0  0  0  0  0  0
  -22.0503  -12.8191   22.0415 N   0  0  0  0  0  0
  -25.4134  -15.1973   20.4085 N   0  0  0  0  0  0
  -31.7049  -15.0800   20.0645 O   0  0  0  0  0  0
  -21.6688   -6.8886   21.4224 O   0  0  0  0  0  0
  -22.3500  -14.5533   20.6731 O   0  0  0  0  0  0
  -24.6398  -31.8391   23.1819 C   0  0  0  0  0  0
  -25.9182  -32.4651   23.8199 C   0  0  1  0  0  0
  -27.2404  -27.1140   20.1618 C   0  0  0  0  0  0
  -25.5939  -33.8462   24.2120 N   0  0  0  0  0  0
  -23.4463  -30.4524   21.5244 C   0  0  2  0  0  0
  -24.9059  -28.8719   20.0955 C   0  0  0  0  0  0
  -22.7551  -29.4516   22.4822 C   0  0  0  0  0  0
  -18.0298  -28.1400   22.8467 C   0  0  0  0  0  0
  -24.1502  -36.7228   23.2646 C   0  0  0  0  0  0
  -25.9989  -30.7044   21.3885 C   0  0  0  0  0  0
  -26.0730  -29.3133   20.7301 C   0  0  0  0  0  0
  -27.2284  -28.4439   20.7564 C   0  0  0  0  0  0
  -26.0537  -26.7748   19.4774 C   0  0  0  0  0  0
  -24.9122  -27.6184   19.4538 C   0  0  0  0  0  0
  -23.6734  -29.7697   20.1455 C   0  0  0  0  0  0
  -25.4141  -36.3000   24.0297 C   0  0  1  0  0  0
  -20.5914  -28.3720   23.1233 C   0  0  2  0  0  0
  -20.6786  -26.9425   22.5417 C   0  0  0  0  0  0
  -19.5767  -26.6377   21.5224 C   0  0  0  0  0  0
  -18.1941  -26.7929   22.1622 C   0  0  0  0  0  0
  -19.1556  -28.8880   23.2836 C   0  0  0  0  0  0
  -18.9479  -30.1479   23.8854 C   0  0  0  0  0  0
  -17.6477  -30.6593   24.0565 C   0  0  0  0  0  0
  -25.9085  -34.9384   23.5029 C   0  0  0  0  0  0
  -16.5369  -29.9083   23.6351 C   0  0  0  0  0  0
  -16.7289  -28.6512   23.0356 C   0  0  0  0  0  0
  -26.4518  -31.6533   25.0657 C   0  0  0  0  0  0
  -25.3680  -31.3749   26.1330 C   0  0  0  0  0  0
  -27.0424  -30.2922   24.6308 C   0  0  0  0  0  0
  -27.6027  -32.4317   25.7450 C   0  0  0  0  0  0
  -27.5576  -37.1769   24.8461 C   0  0  0  0  0  0
  -21.4243  -29.3028   22.3572 N   0  0  0  0  0  0
  -26.4299  -37.3721   23.9392 N   0  0  0  0  0  0
  -24.7134  -31.0225   22.0858 N   0  0  0  0  0  0
  -23.4180  -28.8107   23.3011 O   0  0  0  0  0  0
  -28.2991  -26.1435   20.3499 O   0  0  0  0  0  0
  -26.5707  -34.8894   22.4624 O   0  0  0  0  0  0
  -23.5517  -32.1296   23.7032 O   0  0  0  0  0  0
  -27.6235  -20.4260   19.6299 C   0  0  0  0  0  0
  -28.8708  -20.5845   20.2670 C   0  0  0  0  0  0
  -29.2233  -22.0518   20.3771 C   0  0  0  0  0  0
  -26.8237  -21.5199   19.2337 C   0  0  0  0  0  0
  -28.3311  -23.1872   19.9408 C   0  0  0  0  0  0
  -30.5836  -22.4378   20.9398 C   0  0  0  0  0  0
  -25.4945  -21.2598   18.5508 C   0  0  0  0  0  0
  -28.6146  -18.7638   22.0608 C   0  0  0  0  0  0
  -30.9193  -19.3895   21.5025 C   0  0  0  0  0  0
  -28.6323  -24.8060   19.6068 C   0  0  0  0  0  0
  -29.7323  -17.6850   20.0173 C   0  0  0  0  0  0
  -29.5335  -19.1464   20.8846 C   0  0  0  0  0  0
  -27.1477  -22.8220   19.3990 N   0  0  0  0  0  0
  -29.7242  -16.1799   20.5836 N   0  0  0  0  0  0
  -31.4844  -12.7636   19.2293 H   0  0  0  0  0  0
  -30.4281  -11.6663   20.0600 H   0  0  0  0  0  0
  -29.8747  -11.7635   17.6022 H   0  0  0  0  0  0
  -29.6391  -13.4857   17.7110 H   0  0  0  0  0  0
  -27.9437  -11.2983   18.9454 H   0  0  0  0  0  0
  -27.4214  -12.5076   17.8023 H   0  0  0  0  0  0
  -27.5919  -14.2636   19.4162 H   0  0  0  0  0  0
  -28.7643  -12.3164   21.4613 H   0  0  0  0  0  0
  -28.3602  -13.9941   21.7644 H   0  0  0  0  0  0
  -25.2809   -9.5774   22.4719 H   0  0  0  0  0  0
  -24.0085   -7.4683   22.7447 H   0  0  0  0  0  0
  -21.0884   -8.8764   19.8919 H   0  0  0  0  0  0
  -22.3704  -10.9698   19.6131 H   0  0  0  0  0  0
  -21.2001   -7.6143   23.9686 H   0  0  0  0  0  0
  -21.1489   -6.0521   25.9056 H   0  0  0  0  0  0
  -22.0592   -2.7600   23.2817 H   0  0  0  0  0  0
  -22.4171  -11.9902   22.4845 H   0  0  0  0  0  0
  -21.1060  -13.1116   22.2510 H   0  0  0  0  0  0
  -24.6425  -15.8485   20.5120 H   0  0  0  0  0  0
  -26.2550  -15.6380   20.0610 H   0  0  0  0  0  0
  -26.7240  -32.5255   23.0907 H   0  0  0  0  0  0
  -24.9992  -33.9558   25.0209 H   0  0  0  0  0  0
  -22.7476  -31.2769   21.3668 H   0  0  0  0  0  0
  -23.3770  -35.9553   23.3296 H   0  0  0  0  0  0
  -24.3579  -36.8885   22.2063 H   0  0  0  0  0  0
  -23.7262  -37.6413   23.6710 H   0  0  0  0  0  0
  -26.1611  -31.4628   20.6203 H   0  0  0  0  0  0
  -26.8623  -30.7488   22.0411 H   0  0  0  0  0  0
  -28.1030  -28.7687   21.3035 H   0  0  0  0  0  0
  -25.9745  -25.8006   19.0148 H   0  0  0  0  0  0
  -24.0206  -27.2755   18.9475 H   0  0  0  0  0  0
  -23.7852  -30.5379   19.3792 H   0  0  0  0  0  0
  -22.7907  -29.1986   19.8515 H   0  0  0  0  0  0
  -25.1347  -36.1797   25.0794 H   0  0  0  0  0  0
  -21.0006  -28.3339   24.1357 H   0  0  0  0  0  0
  -20.5689  -26.2349   23.3643 H   0  0  0  0  0  0
  -21.6652  -26.7434   22.1219 H   0  0  0  0  0  0
  -19.6935  -25.6283   21.1266 H   0  0  0  0  0  0
  -19.6705  -27.3179   20.6746 H   0  0  0  0  0  0
  -17.4220  -26.6676   21.4019 H   0  0  0  0  0  0
  -18.0336  -26.0077   22.9025 H   0  0  0  0  0  0
  -19.7969  -30.7317   24.2180 H   0  0  0  0  0  0
  -17.5042  -31.6273   24.5177 H   0  0  0  0  0  0
  -15.5370  -30.2982   23.7704 H   0  0  0  0  0  0
  -15.8687  -28.0833   22.7072 H   0  0  0  0  0  0
  -24.5838  -30.7145   25.7605 H   0  0  0  0  0  0
  -24.8907  -32.2961   26.4681 H   0  0  0  0  0  0
  -25.7908  -30.8919   27.0147 H   0  0  0  0  0  0
  -26.3084  -29.6582   24.1328 H   0  0  0  0  0  0
  -27.4028  -29.7271   25.4912 H   0  0  0  0  0  0
  -27.8974  -30.4126   23.9653 H   0  0  0  0  0  0
  -27.2593  -33.3620   26.1981 H   0  0  0  0  0  0
  -28.3862  -32.6876   25.0305 H   0  0  0  0  0  0
  -28.0681  -31.8489   26.5408 H   0  0  0  0  0  0
  -28.2581  -38.0076   24.7515 H   0  0  0  0  0  0
  -28.1087  -36.2605   24.6293 H   0  0  0  0  0  0
  -27.2286  -37.1410   25.8862 H   0  0  0  0  0  0
  -20.9450  -29.8686   21.6702 H   0  0  0  0  0  0
  -26.0148  -38.2778   24.1400 H   0  0  0  0  0  0
  -27.2389  -19.4267   19.4789 H   0  0  0  0  0  0
  -31.3802  -21.9425   20.3840 H   0  0  0  0  0  0
  -30.6632  -22.1818   21.9952 H   0  0  0  0  0  0
  -30.7686  -23.5070   20.8830 H   0  0  0  0  0  0
  -25.6515  -20.7312   17.6106 H   0  0  0  0  0  0
  -24.9588  -22.1836   18.3283 H   0  0  0  0  0  0
  -24.8581  -20.6440   19.1855 H   0  0  0  0  0  0
  -28.5246  -19.5801   22.7761 H   0  0  0  0  0  0
  -29.0003  -17.9049   22.6094 H   0  0  0  0  0  0
  -27.6088  -18.5133   21.7226 H   0  0  0  0  0  0
  -30.8775  -20.0911   22.3333 H   0  0  0  0  0  0
  -31.6221  -19.7568   20.7556 H   0  0  0  0  0  0
  -31.3333  -18.4705   21.9198 H   0  0  0  0  0  0
  -28.2593  -24.9684   18.5959 H   0  0  0  0  0  0
  -29.7119  -24.8558   19.4665 H   0  0  0  0  0  0
  -30.6185  -17.7921   19.3892 H   0  0  0  0  0  0
  -28.9098  -17.6763   19.3019 H   0  0  0  0  0  0
  -28.8232  -15.9361   20.9645 H   0  0  0  0  0  0
  1 25  1  0  0  0
  1 30  2  0  0  0
  1 84  1  0  0  0
  2  3  1  0  0  0
  2 25  1  0  0  0
  2 85  1  0  0  0
  2 86  1  0  0  0
  3  4  1  0  0  0
  3 87  1  0  0  0
  3 88  1  0  0  0
  4  5  1  0  0  0
  4 89  1  0  0  0
  4 90  1  0  0  0
  5  6  1  0  0  0
  5 26  1  0  0  0
  5 91  1  0  0  0
  6 25  1  0  0  0
  6 92  1  0  0  0
  6 93  1  0  0  0
  7  8  2  0  0  0
  7 26  1  0  0  0
  7 29  1  0  0  0
  8  9  1  0  0  0
  8 22  1  0  0  0
  9 10  1  0  0  0
  9 27  2  0  0  0
 10 11  2  0  0  0
 10 15  1  0  0  0
 11 12  1  0  0  0
 11 94  1  0  0  0
 12 13  2  0  0  0
 12 95  1  0  0  0
 13 14  1  0  0  0
 13 31  1  0  0  0
 14 15  2  0  0  0
 14 96  1  0  0  0
 15 97  1  0  0  0
 16 17  2  0  0  0
 16 21  1  0  0  0
 16 31  1  0  0  0
 17 18  1  0  0  0
 17 98  1  0  0  0
 18 19  2  0  0  0
 18 99  1  0  0  0
 19 20  1  0  0  0
 19 24  1  0  0  0
 20 21  2  0  0  0
 20100  1  0  0  0
 21 23  1  0  0  0
 22 28  1  0  0  0
 22 32  2  0  0  0
 26 27  1  0  0  0
 28101  1  0  0  0
 28102  1  0  0  0
 29103  1  0  0  0
 29104  1  0  0  0
 33 34  1  0  0  0
 33 66  1  0  0  0
 33 70  2  0  0  0
 34 36  1  0  0  0
 34 59  1  0  0  0
 34105  1  0  0  0
 35 44  2  0  0  0
 35 45  1  0  0  0
 35 68  1  0  0  0
 36 56  1  0  0  0
 36106  1  0  0  0
 37 39  1  0  0  0
 37 47  1  0  0  0
 37 66  1  0  0  0
 37107  1  0  0  0
 38 43  2  0  0  0
 38 46  1  0  0  0
 38 47  1  0  0  0
 39 64  1  0  0  0
 39 67  2  0  0  0
 40 52  1  0  0  0
 40 53  2  0  0  0
 40 58  1  0  0  0
 41108  1  0  0  0
 41109  1  0  0  0
 41110  1  0  0  0
 41 48  1  0  0  0
 42 43  1  0  0  0
 42 66  1  0  0  0
 42111  1  0  0  0
 42112  1  0  0  0
 43 44  1  0  0  0
 44113  1  0  0  0
 45 46  2  0  0  0
 45114  1  0  0  0
 46115  1  0  0  0
 47116  1  0  0  0
 47117  1  0  0  0
 48 56  1  0  0  0
 48 65  1  0  0  0
 48118  1  0  0  0
 49 50  1  0  0  0
 49 53  1  0  0  0
 49 64  1  0  0  0
 49119  1  0  0  0
 50 51  1  0  0  0
 50120  1  0  0  0
 50121  1  0  0  0
 51 52  1  0  0  0
 51122  1  0  0  0
 51123  1  0  0  0
 52124  1  0  0  0
 52125  1  0  0  0
 53 54  1  0  0  0
 54 55  2  0  0  0
 54126  1  0  0  0
 55 57  1  0  0  0
 55127  1  0  0  0
 56 69  2  0  0  0
 57 58  2  0  0  0
 57128  1  0  0  0
 58129  1  0  0  0
 59 60  1  0  0  0
 59 61  1  0  0  0
 59 62  1  0  0  0
 60130  1  0  0  0
 60131  1  0  0  0
 60132  1  0  0  0
 61133  1  0  0  0
 61134  1  0  0  0
 61135  1  0  0  0
 62136  1  0  0  0
 62137  1  0  0  0
 62138  1  0  0  0
 63 65  1  0  0  0
 63139  1  0  0  0
 63140  1  0  0  0
 63141  1  0  0  0
 64142  1  0  0  0
 65143  1  0  0  0
 68 80  1  0  0  0
 71 72  2  0  0  0
 71 74  1  0  0  0
 71144  1  0  0  0
 72 73  1  0  0  0
 72 82  1  0  0  0
 73 75  2  0  0  0
 73 76  1  0  0  0
 74 77  1  0  0  0
 74 83  2  0  0  0
 75 80  1  0  0  0
 75 83  1  0  0  0
 76145  1  0  0  0
 76146  1  0  0  0
 76147  1  0  0  0
 77148  1  0  0  0
 77149  1  0  0  0
 77150  1  0  0  0
 78151  1  0  0  0
 78152  1  0  0  0
 78153  1  0  0  0
 78 82  1  0  0  0
 79 82  1  0  0  0
 79154  1  0  0  0
 79155  1  0  0  0
 79156  1  0  0  0
 80157  1  0  0  0
 80158  1  0  0  0
 81 82  1  0  0  0
 81 84  1  0  0  0
 81159  1  0  0  0
 81160  1  0  0  0
 84161  1  0  0  0
M  ISO  4   1 100  68 101  80 101  84 100
M  END
> <chiral flag>
0

> <version>
0

> <s_m_source_file>
/data/baiqing/PycharmProjects/Reinvent-master-3.2/result/LINK_invent/BTK/process_docking_weight1_custom_sum_contain_oxygen_bond_distance_aromatic_linkinvent_7_9_3/rearranged_h_0104.sdf

> <i_m_source_file_index>
49

> <r_mmod_Potential_Energy-OPLS-2005>
514.956176757812

> <r_mmod_Stretch_Energy-OPLS-2005>
328.167541503906

> <r_mmod_Bend_Energy-OPLS-2005>
353.404663085938

> <r_mmod_Torsional_Energy-OPLS-2005>
246.458297729492

> <r_mmod_Improper_Torsional_Energy-OPLS-2005>
8.73683929443359

> <r_mmod_Van_der_Waal_Energy-OPLS-2005>
130.389877319336

> <r_mmod_Electrostatic_Energy-OPLS-2005>
-555.818786621094

> <r_mmod_Solvation_Energy-OPLS-2005>
-223.139938354492

> <b_mmod_Minimization_Converged-OPLS-2005>
0

> <r_mmod_RMS_Derivative-OPLS-2005>
3.59864068031311

$$$$
49
                    3D
 Structure written by MMmdl.
164173  0  0  1  0            999 V2000
  -30.3816  -15.4149   20.3618 C   0  0  0  0  0  0
  -30.4347  -12.9257   19.5242 C   0  0  0  0  0  0
  -29.5408  -12.6101   18.2961 C   0  0  0  0  0  0
  -28.0983  -12.3015   18.7305 C   0  0  0  0  0  0
  -27.6014  -13.2901   19.8122 C   0  0  2  0  0  0
  -28.6295  -13.5314   20.9386 C   0  0  0  0  0  0
  -25.2336  -13.8246   20.5744 C   0  0  0  0  0  0
  -24.1721  -13.0430   20.9298 C   0  0  0  0  0  0
  -24.6400  -11.6933   20.8794 C   0  0  0  0  0  0
  -23.9092  -10.4287   21.0425 C   0  0  0  0  0  0
  -24.3637   -9.4195   21.9191 C   0  0  0  0  0  0
  -23.6302   -8.2234   22.0758 C   0  0  0  0  0  0
  -22.4286   -8.0275   21.3544 C   0  0  0  0  0  0
  -21.9930   -9.0256   20.4649 C   0  0  0  0  0  0
  -22.7273  -10.2127   20.3060 C   0  0  0  0  0  0
  -21.6850   -6.0730   22.5282 C   0  0  0  0  0  0
  -21.4007   -6.5630   23.8218 C   0  0  0  0  0  0
  -21.3653   -5.6788   24.9181 C   0  0  0  0  0  0
  -21.6048   -4.3052   24.7232 C   0  0  0  0  0  0
  -21.8819   -3.8141   23.4356 C   0  0  0  0  0  0
  -21.9193   -4.6954   22.3409 C   0  0  0  0  0  0
  -22.7730  -13.5179   21.1934 C   0  0  0  0  0  0
  -22.1657   -4.2139   21.0985 F   0  0  0  0  0  0
  -21.5635   -3.4536   25.7745 F   0  0  0  0  0  0
  -29.8353  -14.0861   20.2962 N   0  0  0  0  0  0
  -26.2780  -12.9557   20.3197 N   0  0  0  0  0  0
  -25.9336  -11.6649   20.5715 N   0  0  0  0  0  0
  -22.0371  -12.8155   22.0464 N   0  0  0  0  0  0
  -25.3911  -15.1977   20.4113 N   0  0  0  0  0  0
  -31.6144  -15.3881   20.2119 O   0  0  0  0  0  0
  -21.6642   -6.8882   21.4247 O   0  0  0  0  0  0
  -22.3421  -14.5491   20.6773 O   0  0  0  0  0  0
  -24.6722  -31.8151   23.1660 C   0  0  0  0  0  0
  -25.9362  -32.4557   23.8148 C   0  0  1  0  0  0
  -27.2162  -26.8438   20.2031 C   0  0  0  0  0  0
  -25.6001  -33.8369   24.2053 N   0  0  0  0  0  0
  -23.4901  -30.4261   21.5173 C   0  0  2  0  0  0
  -24.9416  -28.7940   20.1243 C   0  0  0  0  0  0
  -22.7710  -29.4404   22.4761 C   0  0  0  0  0  0
  -18.0328  -28.1411   22.8465 C   0  0  0  0  0  0
  -24.1479  -36.7170   23.2645 C   0  0  0  0  0  0
  -26.0655  -30.5970   21.4056 C   0  0  0  0  0  0
  -26.1320  -29.1756   20.7566 C   0  0  0  0  0  0
  -27.2647  -28.2271   20.7624 C   0  0  0  0  0  0
  -25.9912  -26.6357   19.5268 C   0  0  0  0  0  0
  -24.9017  -27.5445   19.4871 C   0  0  0  0  0  0
  -23.7358  -29.7351   20.1482 C   0  0  0  0  0  0
  -25.4124  -36.2942   24.0300 C   0  0  1  0  0  0
  -20.5959  -28.3760   23.1168 C   0  0  2  0  0  0
  -20.6796  -26.9432   22.5398 C   0  0  0  0  0  0
  -19.5766  -26.6376   21.5210 C   0  0  0  0  0  0
  -18.1950  -26.7943   22.1620 C   0  0  0  0  0  0
  -19.1593  -28.8903   23.2804 C   0  0  0  0  0  0
  -18.9500  -30.1488   23.8845 C   0  0  0  0  0  0
  -17.6488  -30.6597   24.0546 C   0  0  0  0  0  0
  -25.9103  -34.9332   23.5001 C   0  0  0  0  0  0
  -16.5377  -29.9078   23.6350 C   0  0  0  0  0  0
  -16.7309  -28.6500   23.0374 C   0  0  0  0  0  0
  -26.4594  -31.6528   25.0704 C   0  0  0  0  0  0
  -25.3709  -31.3792   26.1351 C   0  0  0  0  0  0
  -27.0492  -30.2886   24.6477 C   0  0  0  0  0  0
  -27.6090  -32.4343   25.7501 C   0  0  0  0  0  0
  -27.5564  -37.1732   24.8460 C   0  0  0  0  0  0
  -21.4366  -29.3041   22.3514 N   0  0  0  0  0  0
  -26.4252  -37.3700   23.9434 N   0  0  0  0  0  0
  -24.7651  -30.9755   22.0827 N   0  0  0  0  0  0
  -23.4213  -28.7975   23.3040 O   0  0  0  0  0  0
  -28.2111  -25.7000   20.1894 O   0  0  0  0  0  0
  -26.5709  -34.8884   22.4594 O   0  0  0  0  0  0
  -23.5777  -32.1129   23.6726 O   0  0  0  0  0  0
  -29.0508  -21.3661   20.8268 C   0  0  0  0  0  0
  -29.1363  -20.0318   20.1951 C   0  0  0  0  0  0
  -28.4700  -20.4686   18.9782 C   0  0  0  0  0  0
  -28.2382  -21.8737   18.8960 C   0  0  0  0  0  0
  -27.5515  -24.0149   17.3587 C   0  0  0  0  0  0
  -26.3422  -23.1211   17.5338 C   0  0  0  0  0  0
  -27.7325  -22.5420   17.6308 C   0  0  0  0  0  0
  -29.2369  -18.7506   17.2585 C   0  0  0  0  0  0
  -29.8738  -18.4049   20.6044 C   0  0  0  0  0  0
  -26.9735  -18.5012   18.4288 C   0  0  0  0  0  0
  -27.8944  -24.1337   20.6176 C   0  0  0  0  0  0
  -28.0437  -19.4783   17.8940 C   0  0  1  0  0  0
  -28.4637  -22.5751   20.1130 N   0  0  0  0  0  0
  -29.6144  -16.7205   20.4098 N   0  0  0  0  0  0
  -25.7788  -19.2139   18.9122 N   0  3  0  0  0  0
  -31.4427  -13.1617   19.1795 H   0  0  0  0  0  0
  -30.5445  -12.0475   20.1615 H   0  0  0  0  0  0
  -29.9539  -11.7758   17.7292 H   0  0  0  0  0  0
  -29.5412  -13.4681   17.6226 H   0  0  0  0  0  0
  -28.0838  -11.2881   19.1312 H   0  0  0  0  0  0
  -27.4290  -12.3025   17.8696 H   0  0  0  0  0  0
  -27.4923  -14.2376   19.2821 H   0  0  0  0  0  0
  -28.8380  -12.6181   21.4969 H   0  0  0  0  0  0
  -28.2393  -14.2534   21.6578 H   0  0  0  0  0  0
  -25.2773   -9.5664   22.4784 H   0  0  0  0  0  0
  -24.0008   -7.4615   22.7467 H   0  0  0  0  0  0
  -21.0868   -8.8774   19.8946 H   0  0  0  0  0  0
  -22.3733  -10.9666   19.6169 H   0  0  0  0  0  0
  -21.1983   -7.6137   23.9714 H   0  0  0  0  0  0
  -21.1475   -6.0519   25.9085 H   0  0  0  0  0  0
  -22.0601   -2.7602   23.2862 H   0  0  0  0  0  0
  -22.3981  -11.9816   22.4862 H   0  0  0  0  0  0
  -21.0967  -13.1144   22.2635 H   0  0  0  0  0  0
  -24.6073  -15.8321   20.5143 H   0  0  0  0  0  0
  -26.2188  -15.6259   20.0250 H   0  0  0  0  0  0
  -26.7435  -32.5078   23.0862 H   0  0  0  0  0  0
  -25.0140  -33.9433   25.0201 H   0  0  0  0  0  0
  -22.8082  -31.2611   21.3404 H   0  0  0  0  0  0
  -23.3782  -35.9457   23.3236 H   0  0  0  0  0  0
  -24.3570  -36.8885   22.2073 H   0  0  0  0  0  0
  -23.7177  -37.6314   23.6742 H   0  0  0  0  0  0
  -26.2503  -31.3284   20.6179 H   0  0  0  0  0  0
  -26.9248  -30.6630   22.0621 H   0  0  0  0  0  0
  -28.1712  -28.5283   21.2677 H   0  0  0  0  0  0
  -25.8431  -25.6902   19.0279 H   0  0  0  0  0  0
  -24.0016  -27.2466   18.9661 H   0  0  0  0  0  0
  -23.9032  -30.4982   19.3869 H   0  0  0  0  0  0
  -22.8427  -29.1966   19.8271 H   0  0  0  0  0  0
  -25.1321  -36.1718   25.0789 H   0  0  0  0  0  0
  -21.0047  -28.3359   24.1291 H   0  0  0  0  0  0
  -20.5650  -26.2385   23.3645 H   0  0  0  0  0  0
  -21.6659  -26.7383   22.1219 H   0  0  0  0  0  0
  -19.6911  -25.6271   21.1276 H   0  0  0  0  0  0
  -19.6701  -27.3155   20.6710 H   0  0  0  0  0  0
  -17.4222  -26.6700   21.4018 H   0  0  0  0  0  0
  -18.0332  -26.0092   22.9022 H   0  0  0  0  0  0
  -19.7969  -30.7324   24.2193 H   0  0  0  0  0  0
  -17.5040  -31.6272   24.5154 H   0  0  0  0  0  0
  -15.5373  -30.2965   23.7698 H   0  0  0  0  0  0
  -15.8712  -28.0793   22.7129 H   0  0  0  0  0  0
  -24.5929  -30.7094   25.7673 H   0  0  0  0  0  0
  -24.8852  -32.2990   26.4605 H   0  0  0  0  0  0
  -25.7933  -30.9084   27.0234 H   0  0  0  0  0  0
  -26.3172  -29.6565   24.1437 H   0  0  0  0  0  0
  -27.3954  -29.7253   25.5155 H   0  0  0  0  0  0
  -27.9146  -30.4062   23.9952 H   0  0  0  0  0  0
  -27.2677  -33.3719   26.1895 H   0  0  0  0  0  0
  -28.3987  -32.6767   25.0379 H   0  0  0  0  0  0
  -28.0659  -31.8575   26.5549 H   0  0  0  0  0  0
  -28.2530  -38.0081   24.7582 H   0  0  0  0  0  0
  -28.1108  -36.2612   24.6186 H   0  0  0  0  0  0
  -27.2304  -37.1260   25.8868 H   0  0  0  0  0  0
  -20.9632  -29.8732   21.6631 H   0  0  0  0  0  0
  -26.0081  -38.2738   24.1510 H   0  0  0  0  0  0
  -29.3694  -21.5793   21.8388 H   0  0  0  0  0  0
  -27.7764  -24.7380   18.1232 H   0  0  0  0  0  0
  -27.7607  -24.3616   16.3489 H   0  0  0  0  0  0
  -25.7627  -22.8758   16.6453 H   0  0  0  0  0  0
  -25.7669  -23.2279   18.4490 H   0  0  0  0  0  0
  -28.1402  -22.0333   16.7614 H   0  0  0  0  0  0
  -29.9453  -19.4594   16.8300 H   0  0  0  0  0  0
  -28.9023  -18.0945   16.4539 H   0  0  0  0  0  0
  -29.7750  -18.1335   17.9746 H   0  0  0  0  0  0
  -30.0347  -18.4911   21.6798 H   0  0  0  0  0  0
  -30.8781  -18.5163   20.1937 H   0  0  0  0  0  0
  -27.3762  -17.9103   19.2497 H   0  0  0  0  0  0
  -26.6737  -17.7949   17.6541 H   0  0  0  0  0  0
  -28.0936  -24.1422   21.6892 H   0  0  0  0  0  0
  -26.8104  -24.0537   20.5481 H   0  0  0  0  0  0
  -27.5585  -20.0131   17.0797 H   0  0  0  0  0  0
  -28.6306  -16.5085   20.4655 H   0  0  0  0  0  0
  -26.0548  -19.9238   19.5685 H   0  0  0  0  0  0
  -25.1479  -18.5802   19.3691 H   0  0  0  0  0  0
  -25.2922  -19.6492   18.1489 H   0  0  0  0  0  0
  1 25  1  0  0  0
  1 30  2  0  0  0
  1 84  1  0  0  0
  2  3  1  0  0  0
  2 25  1  0  0  0
  2 86  1  0  0  0
  2 87  1  0  0  0
  3  4  1  0  0  0
  3 88  1  0  0  0
  3 89  1  0  0  0
  4  5  1  0  0  0
  4 90  1  0  0  0
  4 91  1  0  0  0
  5  6  1  0  0  0
  5 26  1  0  0  0
  5 92  1  0  0  0
  6 25  1  0  0  0
  6 93  1  0  0  0
  6 94  1  0  0  0
  7  8  2  0  0  0
  7 26  1  0  0  0
  7 29  1  0  0  0
  8  9  1  0  0  0
  8 22  1  0  0  0
  9 10  1  0  0  0
  9 27  2  0  0  0
 10 11  2  0  0  0
 10 15  1  0  0  0
 11 12  1  0  0  0
 11 95  1  0  0  0
 12 13  2  0  0  0
 12 96  1  0  0  0
 13 14  1  0  0  0
 13 31  1  0  0  0
 14 15  2  0  0  0
 14 97  1  0  0  0
 15 98  1  0  0  0
 16 17  2  0  0  0
 16 21  1  0  0  0
 16 31  1  0  0  0
 17 18  1  0  0  0
 17 99  1  0  0  0
 18 19  2  0  0  0
 18100  1  0  0  0
 19 20  1  0  0  0
 19 24  1  0  0  0
 20 21  2  0  0  0
 20101  1  0  0  0
 21 23  1  0  0  0
 22 28  1  0  0  0
 22 32  2  0  0  0
 26 27  1  0  0  0
 28102  1  0  0  0
 28103  1  0  0  0
 29104  1  0  0  0
 29105  1  0  0  0
 33 34  1  0  0  0
 33 66  1  0  0  0
 33 70  2  0  0  0
 34 36  1  0  0  0
 34 59  1  0  0  0
 34106  1  0  0  0
 35 44  2  0  0  0
 35 45  1  0  0  0
 35 68  1  0  0  0
 36 56  1  0  0  0
 36107  1  0  0  0
 37 39  1  0  0  0
 37 47  1  0  0  0
 37 66  1  0  0  0
 37108  1  0  0  0
 38 43  2  0  0  0
 38 46  1  0  0  0
 38 47  1  0  0  0
 39 64  1  0  0  0
 39 67  2  0  0  0
 40 52  1  0  0  0
 40 53  2  0  0  0
 40 58  1  0  0  0
 41109  1  0  0  0
 41110  1  0  0  0
 41111  1  0  0  0
 41 48  1  0  0  0
 42 43  1  0  0  0
 42 66  1  0  0  0
 42112  1  0  0  0
 42113  1  0  0  0
 43 44  1  0  0  0
 44114  1  0  0  0
 45 46  2  0  0  0
 45115  1  0  0  0
 46116  1  0  0  0
 47117  1  0  0  0
 47118  1  0  0  0
 48 56  1  0  0  0
 48 65  1  0  0  0
 48119  1  0  0  0
 49 50  1  0  0  0
 49 53  1  0  0  0
 49 64  1  0  0  0
 49120  1  0  0  0
 50 51  1  0  0  0
 50121  1  0  0  0
 50122  1  0  0  0
 51 52  1  0  0  0
 51123  1  0  0  0
 51124  1  0  0  0
 52125  1  0  0  0
 52126  1  0  0  0
 53 54  1  0  0  0
 54 55  2  0  0  0
 54127  1  0  0  0
 55 57  1  0  0  0
 55128  1  0  0  0
 56 69  2  0  0  0
 57 58  2  0  0  0
 57129  1  0  0  0
 58130  1  0  0  0
 59 60  1  0  0  0
 59 61  1  0  0  0
 59 62  1  0  0  0
 60131  1  0  0  0
 60132  1  0  0  0
 60133  1  0  0  0
 61134  1  0  0  0
 61135  1  0  0  0
 61136  1  0  0  0
 62137  1  0  0  0
 62138  1  0  0  0
 62139  1  0  0  0
 63 65  1  0  0  0
 63140  1  0  0  0
 63141  1  0  0  0
 63142  1  0  0  0
 64143  1  0  0  0
 65144  1  0  0  0
 68 81  1  0  0  0
 71 72  2  0  0  0
 71 83  1  0  0  0
 71145  1  0  0  0
 72 73  1  0  0  0
 72 79  1  0  0  0
 73 74  2  0  0  0
 73 82  1  0  0  0
 74 83  1  0  0  0
 74 77  1  0  0  0
 75 76  1  0  0  0
 75 77  1  0  0  0
 75146  1  0  0  0
 75147  1  0  0  0
 76 77  1  0  0  0
 76148  1  0  0  0
 76149  1  0  0  0
 77150  1  0  0  0
 78151  1  0  0  0
 78152  1  0  0  0
 78153  1  0  0  0
 78 82  1  0  0  0
 79 84  1  0  0  0
 79154  1  0  0  0
 79155  1  0  0  0
 80 82  1  0  0  0
 80 85  1  0  0  0
 80156  1  0  0  0
 80157  1  0  0  0
 81 83  1  0  0  0
 81158  1  0  0  0
 81159  1  0  0  0
 82160  1  0  0  0
 84161  1  0  0  0
 85162  1  0  0  0
 85163  1  0  0  0
 85164  1  0  0  0
M  CHG  1  85   1
M  ISO  4   1 100  68 101  81 101  84 100
M  END
> <chiral flag>
0

> <version>
0

> <s_m_source_file>
/data/baiqing/PycharmProjects/Reinvent-master-3.2/result/LINK_invent/BTK/process_docking_weight1_custom_sum_contain_oxygen_bond_distance_aromatic_linkinvent_7_9_3/rearranged_h_0104.sdf

> <i_m_source_file_index>
50

> <r_mmod_Potential_Energy-OPLS-2005>
1389.01416015625

> <r_mmod_Stretch_Energy-OPLS-2005>
730.613952636719

> <r_mmod_Bend_Energy-OPLS-2005>
541.88623046875

> <r_mmod_Torsional_Energy-OPLS-2005>
281.858276367188

> <r_mmod_Improper_Torsional_Energy-OPLS-2005>
7.35460519790649

> <r_mmod_Van_der_Waal_Energy-OPLS-2005>
102.112380981445

> <r_mmod_Electrostatic_Energy-OPLS-2005>
-374.546722412109

> <r_mmod_Solvation_Energy-OPLS-2005>
-511.787231445312

> <b_mmod_Minimization_Converged-OPLS-2005>
0

> <r_mmod_RMS_Derivative-OPLS-2005>
2.13271498680115

$$$$
50
                    3D
 Structure written by MMmdl.
175183  0  0  1  0            999 V2000
  -30.5329  -14.7487   20.5219 C   0  0  0  0  0  0
  -30.4556  -12.4669   19.4681 C   0  0  0  0  0  0
  -29.5178  -12.5278   18.2381 C   0  0  0  0  0  0
  -28.0416  -12.3402   18.6477 C   0  0  0  0  0  0
  -27.6497  -13.2166   19.8654 C   0  0  2  0  0  0
  -28.6908  -13.0771   20.9973 C   0  0  0  0  0  0
  -25.2494  -13.8140   20.5591 C   0  0  0  0  0  0
  -24.1799  -13.0414   20.9204 C   0  0  0  0  0  0
  -24.6400  -11.6894   20.8775 C   0  0  0  0  0  0
  -23.9074  -10.4285   21.0432 C   0  0  0  0  0  0
  -24.3620   -9.4199   21.9201 C   0  0  0  0  0  0
  -23.6298   -8.2228   22.0758 C   0  0  0  0  0  0
  -22.4278   -8.0277   21.3550 C   0  0  0  0  0  0
  -21.9922   -9.0251   20.4644 C   0  0  0  0  0  0
  -22.7256  -10.2129   20.3068 C   0  0  0  0  0  0
  -21.6851   -6.0735   22.5279 C   0  0  0  0  0  0
  -21.4010   -6.5634   23.8216 C   0  0  0  0  0  0
  -21.3663   -5.6786   24.9174 C   0  0  0  0  0  0
  -21.6038   -4.3050   24.7219 C   0  0  0  0  0  0
  -21.8827   -3.8147   23.4345 C   0  0  0  0  0  0
  -21.9190   -4.6963   22.3402 C   0  0  0  0  0  0
  -22.7823  -13.5207   21.1879 C   0  0  0  0  0  0
  -22.1660   -4.2145   21.0977 F   0  0  0  0  0  0
  -21.5631   -3.4540   25.7734 F   0  0  0  0  0  0
  -29.9964  -13.4804   20.4456 N   0  0  0  0  0  0
  -26.2959  -12.9339   20.3318 N   0  0  0  0  0  0
  -25.9324  -11.6506   20.5794 N   0  0  0  0  0  0
  -22.0492  -12.8182   22.0439 N   0  0  0  0  0  0
  -25.4086  -15.1845   20.3799 N   0  0  0  0  0  0
  -31.6778  -14.9724   20.1084 O   0  0  0  0  0  0
  -21.6643   -6.8873   21.4237 O   0  0  0  0  0  0
  -22.3492  -14.5515   20.6734 O   0  0  0  0  0  0
  -24.6320  -31.8545   23.1976 C   0  0  0  0  0  0
  -25.9124  -32.4766   23.8319 C   0  0  1  0  0  0
  -27.2185  -27.2627   20.1522 C   0  0  0  0  0  0
  -25.5897  -33.8556   24.2270 N   0  0  0  0  0  0
  -23.4296  -30.4823   21.5345 C   0  0  2  0  0  0
  -24.8785  -28.9287   20.1077 C   0  0  0  0  0  0
  -22.7529  -29.4604   22.4822 C   0  0  0  0  0  0
  -18.0298  -28.1428   22.8465 C   0  0  0  0  0  0
  -24.1478  -36.7275   23.2645 C   0  0  0  0  0  0
  -25.9738  -30.7772   21.3687 C   0  0  0  0  0  0
  -26.0476  -29.3956   20.7214 C   0  0  0  0  0  0
  -27.2240  -28.5785   20.7261 C   0  0  0  0  0  0
  -26.0322  -26.8676   19.4986 C   0  0  0  0  0  0
  -24.8760  -27.6751   19.4785 C   0  0  0  0  0  0
  -23.6506  -29.8185   20.1485 C   0  0  0  0  0  0
  -25.4094  -36.3069   24.0356 C   0  0  1  0  0  0
  -20.5914  -28.3727   23.1231 C   0  0  2  0  0  0
  -20.6801  -26.9441   22.5381 C   0  0  0  0  0  0
  -19.5762  -26.6396   21.5222 C   0  0  0  0  0  0
  -18.1942  -26.7966   22.1627 C   0  0  0  0  0  0
  -19.1567  -28.8889   23.2855 C   0  0  0  0  0  0
  -18.9499  -30.1486   23.8892 C   0  0  0  0  0  0
  -17.6503  -30.6614   24.0585 C   0  0  0  0  0  0
  -25.9027  -34.9447   23.5121 C   0  0  0  0  0  0
  -16.5396  -29.9139   23.6338 C   0  0  0  0  0  0
  -16.7286  -28.6567   23.0331 C   0  0  0  0  0  0
  -26.4498  -31.6571   25.0688 C   0  0  0  0  0  0
  -25.3732  -31.3722   26.1426 C   0  0  0  0  0  0
  -27.0341  -30.2998   24.6113 C   0  0  0  0  0  0
  -27.6057  -32.4282   25.7478 C   0  0  0  0  0  0
  -27.5580  -37.1779   24.8469 C   0  0  0  0  0  0
  -21.4230  -29.3082   22.3623 N   0  0  0  0  0  0
  -26.4270  -37.3773   23.9445 N   0  0  0  0  0  0
  -24.6986  -31.0552   22.0912 N   0  0  0  0  0  0
  -23.4251  -28.8122   23.2889 O   0  0  0  0  0  0
  -28.3132  -26.3665   20.1941 O   0  0  0  0  0  0
  -26.5609  -34.8946   22.4694 O   0  0  0  0  0  0
  -23.5461  -32.1325   23.7289 O   0  0  0  0  0  0
  -28.2941  -19.0798   21.5110 C   0  0  0  0  0  0
  -30.0611  -18.2884   20.3890 C   0  0  0  0  0  0
  -28.3468  -17.7250   21.7354 C   0  0  0  0  0  0
  -29.4548  -17.1898   21.0018 C   0  0  0  0  0  0
  -26.5299  -14.5919   24.3390 C   0  0  0  0  0  0
  -27.5399  -15.7880   26.3277 C   0  0  0  0  0  0
  -29.0417  -22.2548   22.3927 C   0  0  0  0  0  0
  -30.5150  -24.1999   20.5788 C   0  0  0  0  0  0
  -29.0227  -23.5970   18.6781 C   0  0  0  0  0  0
  -27.3688  -16.9627   22.5916 C   0  0  0  0  0  0
  -27.8909  -16.7423   24.0189 C   0  0  0  0  0  0
  -29.5760  -20.9234   20.2077 C   0  0  0  0  0  0
  -28.0757  -24.9367   20.6171 C   0  0  0  0  0  0
  -26.9254  -15.9579   24.9295 C   0  0  0  0  0  0
  -28.8306  -22.2316   20.8587 C   0  0  2  0  0  0
  -29.0933  -23.7276   20.2127 C   0  0  0  0  0  0
  -29.3445  -19.4912   20.7036 N   0  0  0  0  0  0
  -29.6610  -15.7164   20.9940 N   0  0  0  0  0  0
  -31.4893  -12.6406   19.1643 H   0  0  0  0  0  0
  -30.4379  -11.4725   19.9192 H   0  0  0  0  0  0
  -29.8021  -11.7670   17.5102 H   0  0  0  0  0  0
  -29.6362  -13.4895   17.7365 H   0  0  0  0  0  0
  -27.8991  -11.2870   18.8954 H   0  0  0  0  0  0
  -27.3838  -12.5446   17.8027 H   0  0  0  0  0  0
  -27.6618  -14.2501   19.5184 H   0  0  0  0  0  0
  -28.7342  -12.0467   21.3532 H   0  0  0  0  0  0
  -28.4099  -13.6703   21.8675 H   0  0  0  0  0  0
  -25.2757   -9.5666   22.4783 H   0  0  0  0  0  0
  -24.0002   -7.4612   22.7470 H   0  0  0  0  0  0
  -21.0851   -8.8766   19.8942 H   0  0  0  0  0  0
  -22.3717  -10.9669   19.6172 H   0  0  0  0  0  0
  -21.2007   -7.6149   23.9712 H   0  0  0  0  0  0
  -21.1476   -6.0520   25.9070 H   0  0  0  0  0  0
  -22.0607   -2.7610   23.2846 H   0  0  0  0  0  0
  -22.4109  -11.9816   22.4784 H   0  0  0  0  0  0
  -21.1114  -13.1195   22.2676 H   0  0  0  0  0  0
  -24.6356  -15.8328   20.4844 H   0  0  0  0  0  0
  -26.2469  -15.6276   20.0256 H   0  0  0  0  0  0
  -26.7204  -32.5411   23.1072 H   0  0  0  0  0  0
  -25.0043  -33.9680   25.0428 H   0  0  0  0  0  0
  -22.7244  -31.3038   21.3858 H   0  0  0  0  0  0
  -23.3754  -35.9590   23.3283 H   0  0  0  0  0  0
  -24.3582  -36.8901   22.2061 H   0  0  0  0  0  0
  -23.7242  -37.6486   23.6654 H   0  0  0  0  0  0
  -26.1001  -31.5343   20.5931 H   0  0  0  0  0  0
  -26.8579  -30.8344   21.9903 H   0  0  0  0  0  0
  -28.1206  -28.9383   21.2117 H   0  0  0  0  0  0
  -25.9789  -25.9143   18.9949 H   0  0  0  0  0  0
  -23.9853  -27.3219   18.9778 H   0  0  0  0  0  0
  -23.7849  -30.5954   19.3951 H   0  0  0  0  0  0
  -22.7710  -29.2533   19.8338 H   0  0  0  0  0  0
  -25.1271  -36.1913   25.0846 H   0  0  0  0  0  0
  -21.0021  -28.3319   24.1341 H   0  0  0  0  0  0
  -20.5695  -26.2358   23.3591 H   0  0  0  0  0  0
  -21.6668  -26.7440   22.1182 H   0  0  0  0  0  0
  -19.6930  -25.6301   21.1253 H   0  0  0  0  0  0
  -19.6722  -27.3196   20.6749 H   0  0  0  0  0  0
  -17.4210  -26.6684   21.4033 H   0  0  0  0  0  0
  -18.0349  -26.0131   22.9037 H   0  0  0  0  0  0
  -19.7984  -30.7290   24.2256 H   0  0  0  0  0  0
  -17.5083  -31.6291   24.5193 H   0  0  0  0  0  0
  -15.5403  -30.3065   23.7672 H   0  0  0  0  0  0
  -15.8677  -28.0917   22.7018 H   0  0  0  0  0  0
  -24.5940  -30.7023   25.7780 H   0  0  0  0  0  0
  -24.8892  -32.2892   26.4775 H   0  0  0  0  0  0
  -25.8060  -30.8984   27.0249 H   0  0  0  0  0  0
  -26.2908  -29.6743   24.1154 H   0  0  0  0  0  0
  -27.4105  -29.7248   25.4585 H   0  0  0  0  0  0
  -27.8738  -30.4321   23.9299 H   0  0  0  0  0  0
  -27.2669  -33.3607   26.2020 H   0  0  0  0  0  0
  -28.3891  -32.6787   25.0305 H   0  0  0  0  0  0
  -28.0676  -31.8404   26.5429 H   0  0  0  0  0  0
  -28.2548  -38.0124   24.7549 H   0  0  0  0  0  0
  -28.1122  -36.2648   24.6215 H   0  0  0  0  0  0
  -27.2299  -37.1333   25.8874 H   0  0  0  0  0  0
  -20.9398  -29.8898   21.6909 H   0  0  0  0  0  0
  -26.0144  -38.2832   24.1501 H   0  0  0  0  0  0
  -27.5717  -19.7993   21.8708 H   0  0  0  0  0  0
  -30.9163  -18.3324   19.7286 H   0  0  0  0  0  0
  -25.9251  -14.0137   25.0370 H   0  0  0  0  0  0
  -27.4075  -13.9968   24.0877 H   0  0  0  0  0  0
  -25.9329  -14.7039   23.4336 H   0  0  0  0  0  0
  -26.8557  -15.2790   27.0073 H   0  0  0  0  0  0
  -27.7813  -16.7544   26.7722 H   0  0  0  0  0  0
  -28.4610  -15.2058   26.2862 H   0  0  0  0  0  0
  -28.7910  -21.3098   22.8674 H   0  0  0  0  0  0
  -28.4259  -23.0096   22.8811 H   0  0  0  0  0  0
  -30.0822  -22.4472   22.6518 H   0  0  0  0  0  0
  -30.7828  -25.0996   20.0232 H   0  0  0  0  0  0
  -31.2679  -23.4437   20.3549 H   0  0  0  0  0  0
  -30.5965  -24.4451   21.6381 H   0  0  0  0  0  0
  -29.1214  -24.5684   18.1927 H   0  0  0  0  0  0
  -28.0755  -23.1622   18.3560 H   0  0  0  0  0  0
  -29.8264  -22.9739   18.2863 H   0  0  0  0  0  0
  -27.1842  -16.0075   22.1103 H   0  0  0  0  0  0
  -26.4136  -17.4901   22.6137 H   0  0  0  0  0  0
  -28.0984  -17.7135   24.4716 H   0  0  0  0  0  0
  -28.8491  -16.2230   23.9737 H   0  0  0  0  0  0
  -30.6518  -21.0941   20.2370 H   0  0  0  0  0  0
  -29.3197  -20.8999   19.1488 H   0  0  0  0  0  0
  -28.0176  -24.9716   21.7057 H   0  0  0  0  0  0
  -27.0805  -24.6141   20.3157 H   0  0  0  0  0  0
  -26.0112  -16.5441   25.0445 H   0  0  0  0  0  0
  -27.7650  -22.0489   20.7116 H   0  0  0  0  0  0
  -28.8603  -15.2427   21.3818 H   0  0  0  0  0  0
  1 25  1  0  0  0
  1 30  2  0  0  0
  1 88  1  0  0  0
  2  3  1  0  0  0
  2 25  1  0  0  0
  2 89  1  0  0  0
  2 90  1  0  0  0
  3  4  1  0  0  0
  3 91  1  0  0  0
  3 92  1  0  0  0
  4  5  1  0  0  0
  4 93  1  0  0  0
  4 94  1  0  0  0
  5  6  1  0  0  0
  5 26  1  0  0  0
  5 95  1  0  0  0
  6 25  1  0  0  0
  6 96  1  0  0  0
  6 97  1  0  0  0
  7  8  2  0  0  0
  7 26  1  0  0  0
  7 29  1  0  0  0
  8  9  1  0  0  0
  8 22  1  0  0  0
  9 10  1  0  0  0
  9 27  2  0  0  0
 10 11  2  0  0  0
 10 15  1  0  0  0
 11 12  1  0  0  0
 11 98  1  0  0  0
 12 13  2  0  0  0
 12 99  1  0  0  0
 13 14  1  0  0  0
 13 31  1  0  0  0
 14 15  2  0  0  0
 14100  1  0  0  0
 15101  1  0  0  0
 16 17  2  0  0  0
 16 21  1  0  0  0
 16 31  1  0  0  0
 17 18  1  0  0  0
 17102  1  0  0  0
 18 19  2  0  0  0
 18103  1  0  0  0
 19 20  1  0  0  0
 19 24  1  0  0  0
 20 21  2  0  0  0
 20104  1  0  0  0
 21 23  1  0  0  0
 22 28  1  0  0  0
 22 32  2  0  0  0
 26 27  1  0  0  0
 28105  1  0  0  0
 28106  1  0  0  0
 29107  1  0  0  0
 29108  1  0  0  0
 33 34  1  0  0  0
 33 66  1  0  0  0
 33 70  2  0  0  0
 34 36  1  0  0  0
 34 59  1  0  0  0
 34109  1  0  0  0
 35 44  2  0  0  0
 35 45  1  0  0  0
 35 68  1  0  0  0
 36 56  1  0  0  0
 36110  1  0  0  0
 37 39  1  0  0  0
 37 47  1  0  0  0
 37 66  1  0  0  0
 37111  1  0  0  0
 38 43  2  0  0  0
 38 46  1  0  0  0
 38 47  1  0  0  0
 39 64  1  0  0  0
 39 67  2  0  0  0
 40 52  1  0  0  0
 40 53  2  0  0  0
 40 58  1  0  0  0
 41112  1  0  0  0
 41113  1  0  0  0
 41114  1  0  0  0
 41 48  1  0  0  0
 42 43  1  0  0  0
 42 66  1  0  0  0
 42115  1  0  0  0
 42116  1  0  0  0
 43 44  1  0  0  0
 44117  1  0  0  0
 45 46  2  0  0  0
 45118  1  0  0  0
 46119  1  0  0  0
 47120  1  0  0  0
 47121  1  0  0  0
 48 56  1  0  0  0
 48 65  1  0  0  0
 48122  1  0  0  0
 49 50  1  0  0  0
 49 53  1  0  0  0
 49 64  1  0  0  0
 49123  1  0  0  0
 50 51  1  0  0  0
 50124  1  0  0  0
 50125  1  0  0  0
 51 52  1  0  0  0
 51126  1  0  0  0
 51127  1  0  0  0
 52128  1  0  0  0
 52129  1  0  0  0
 53 54  1  0  0  0
 54 55  2  0  0  0
 54130  1  0  0  0
 55 57  1  0  0  0
 55131  1  0  0  0
 56 69  2  0  0  0
 57 58  2  0  0  0
 57132  1  0  0  0
 58133  1  0  0  0
 59 60  1  0  0  0
 59 61  1  0  0  0
 59 62  1  0  0  0
 60134  1  0  0  0
 60135  1  0  0  0
 60136  1  0  0  0
 61137  1  0  0  0
 61138  1  0  0  0
 61139  1  0  0  0
 62140  1  0  0  0
 62141  1  0  0  0
 62142  1  0  0  0
 63 65  1  0  0  0
 63143  1  0  0  0
 63144  1  0  0  0
 63145  1  0  0  0
 64146  1  0  0  0
 65147  1  0  0  0
 68 83  1  0  0  0
 71 73  2  0  0  0
 71 87  1  0  0  0
 71148  1  0  0  0
 72 74  2  0  0  0
 72 87  1  0  0  0
 72149  1  0  0  0
 73 74  1  0  0  0
 73 80  1  0  0  0
 74 88  1  0  0  0
 75150  1  0  0  0
 75151  1  0  0  0
 75152  1  0  0  0
 75 84  1  0  0  0
 76 84  1  0  0  0
 76153  1  0  0  0
 76154  1  0  0  0
 76155  1  0  0  0
 77156  1  0  0  0
 77157  1  0  0  0
 77158  1  0  0  0
 77 85  1  0  0  0
 78159  1  0  0  0
 78160  1  0  0  0
 78161  1  0  0  0
 78 86  1  0  0  0
 79 86  1  0  0  0
 79162  1  0  0  0
 79163  1  0  0  0
 79164  1  0  0  0
 80 81  1  0  0  0
 80165  1  0  0  0
 80166  1  0  0  0
 81 84  1  0  0  0
 81167  1  0  0  0
 81168  1  0  0  0
 82 85  1  0  0  0
 82 87  1  0  0  0
 82169  1  0  0  0
 82170  1  0  0  0
 83 86  1  0  0  0
 83171  1  0  0  0
 83172  1  0  0  0
 84173  1  0  0  0
 85 86  1  0  0  0
 85174  1  0  0  0
 88175  1  0  0  0
M  ISO  4   1 100  68 101  83 101  88 100
M  END
> <chiral flag>
0

> <version>
0

> <s_m_source_file>
/data/baiqing/PycharmProjects/Reinvent-master-3.2/result/LINK_invent/BTK/process_docking_weight1_custom_sum_contain_oxygen_bond_distance_aromatic_linkinvent_7_9_3/rearranged_h_0104.sdf

> <i_m_source_file_index>
51

> <r_mmod_Potential_Energy-OPLS-2005>
239.033020019531

> <r_mmod_Stretch_Energy-OPLS-2005>
134.806167602539

> <r_mmod_Bend_Energy-OPLS-2005>
217.745986938477

> <r_mmod_Torsional_Energy-OPLS-2005>
255.36311340332

> <r_mmod_Improper_Torsional_Energy-OPLS-2005>
3.34751868247986

> <r_mmod_Van_der_Waal_Energy-OPLS-2005>
104.881164550781

> <r_mmod_Electrostatic_Energy-OPLS-2005>
-375.090637207031

> <r_mmod_Solvation_Energy-OPLS-2005>
-190.03483581543

> <b_mmod_Minimization_Converged-OPLS-2005>
0

> <r_mmod_RMS_Derivative-OPLS-2005>
3.36236095428467

$$$$
51
                    3D
 Structure written by MMmdl.
178186  0  0  1  0            999 V2000
  -30.6540  -14.5930   20.5446 C   0  0  0  0  0  0
  -30.4374  -12.3773   19.4402 C   0  0  0  0  0  0
  -29.5030  -12.5022   18.2161 C   0  0  0  0  0  0
  -28.0259  -12.3437   18.6340 C   0  0  0  0  0  0
  -27.6551  -13.2130   19.8645 C   0  0  2  0  0  0
  -28.7026  -13.0526   20.9889 C   0  0  0  0  0  0
  -25.2577  -13.8171   20.5687 C   0  0  0  0  0  0
  -24.1837  -13.0445   20.9187 C   0  0  0  0  0  0
  -24.6410  -11.6910   20.8747 C   0  0  0  0  0  0
  -23.9082  -10.4287   21.0403 C   0  0  0  0  0  0
  -24.3618   -9.4199   21.9187 C   0  0  0  0  0  0
  -23.6285   -8.2244   22.0758 C   0  0  0  0  0  0
  -22.4276   -8.0273   21.3529 C   0  0  0  0  0  0
  -21.9914   -9.0268   20.4643 C   0  0  0  0  0  0
  -22.7257  -10.2140   20.3054 C   0  0  0  0  0  0
  -21.6859   -6.0731   22.5275 C   0  0  0  0  0  0
  -21.4013   -6.5628   23.8209 C   0  0  0  0  0  0
  -21.3661   -5.6785   24.9169 C   0  0  0  0  0  0
  -21.6044   -4.3053   24.7223 C   0  0  0  0  0  0
  -21.8821   -3.8142   23.4346 C   0  0  0  0  0  0
  -21.9193   -4.6954   22.3397 C   0  0  0  0  0  0
  -22.7858  -13.5227   21.1860 C   0  0  0  0  0  0
  -22.1658   -4.2145   21.0975 F   0  0  0  0  0  0
  -21.5641   -3.4538   25.7738 F   0  0  0  0  0  0
  -30.0161  -13.3904   20.4228 N   0  0  0  0  0  0
  -26.3006  -12.9347   20.3337 N   0  0  0  0  0  0
  -25.9326  -11.6506   20.5777 N   0  0  0  0  0  0
  -22.0510  -12.8192   22.0406 N   0  0  0  0  0  0
  -25.4315  -15.1879   20.4071 N   0  0  0  0  0  0
  -31.8109  -14.7533   20.1604 O   0  0  0  0  0  0
  -21.6634   -6.8871   21.4237 O   0  0  0  0  0  0
  -22.3541  -14.5541   20.6732 O   0  0  0  0  0  0
  -24.6257  -31.8588   23.1997 C   0  0  0  0  0  0
  -25.9123  -32.4749   23.8311 C   0  0  1  0  0  0
  -27.2245  -27.3314   20.1031 C   0  0  0  0  0  0
  -25.5945  -33.8555   24.2236 N   0  0  0  0  0  0
  -23.4170  -30.4838   21.5416 C   0  0  2  0  0  0
  -24.8600  -28.9412   20.1095 C   0  0  0  0  0  0
  -22.7449  -29.4625   22.4913 C   0  0  0  0  0  0
  -18.0257  -28.1417   22.8452 C   0  0  0  0  0  0
  -24.1497  -36.7315   23.2635 C   0  0  0  0  0  0
  -25.9560  -30.7942   21.3663 C   0  0  0  0  0  0
  -26.0261  -29.4193   20.7179 C   0  0  0  0  0  0
  -27.2067  -28.6214   20.7127 C   0  0  0  0  0  0
  -26.0299  -26.9045   19.4742 C   0  0  0  0  0  0
  -24.8622  -27.6859   19.4866 C   0  0  0  0  0  0
  -23.6280  -29.8201   20.1575 C   0  0  0  0  0  0
  -25.4110  -36.3059   24.0312 C   0  0  1  0  0  0
  -20.5860  -28.3702   23.1285 C   0  0  2  0  0  0
  -20.6763  -26.9421   22.5404 C   0  0  0  0  0  0
  -19.5747  -26.6392   21.5209 C   0  0  0  0  0  0
  -18.1919  -26.7937   22.1607 C   0  0  0  0  0  0
  -19.1524  -28.8866   23.2849 C   0  0  0  0  0  0
  -18.9454  -30.1473   23.8870 C   0  0  0  0  0  0
  -17.6469  -30.6602   24.0579 C   0  0  0  0  0  0
  -25.9049  -34.9439   23.5060 C   0  0  0  0  0  0
  -16.5356  -29.9117   23.6364 C   0  0  0  0  0  0
  -16.7254  -28.6561   23.0313 C   0  0  0  0  0  0
  -26.4499  -31.6566   25.0699 C   0  0  0  0  0  0
  -25.3735  -31.3711   26.1430 C   0  0  0  0  0  0
  -27.0350  -30.2996   24.6131 C   0  0  0  0  0  0
  -27.6029  -32.4310   25.7502 C   0  0  0  0  0  0
  -27.5553  -37.1801   24.8455 C   0  0  0  0  0  0
  -21.4159  -29.3066   22.3688 N   0  0  0  0  0  0
  -26.4274  -37.3766   23.9402 N   0  0  0  0  0  0
  -24.6846  -31.0631   22.0936 N   0  0  0  0  0  0
  -23.4171  -28.8135   23.2973 O   0  0  0  0  0  0
  -28.3778  -26.5385   20.1597 O   0  0  0  0  0  0
  -26.5602  -34.8927   22.4624 O   0  0  0  0  0  0
  -23.5426  -32.1396   23.7340 O   0  0  0  0  0  0
  -28.6842  -20.8649   18.9761 C   0  0  0  0  0  0
  -29.5898  -20.3303   20.9178 C   0  0  0  0  0  0
  -28.8625  -21.3419   20.3071 C   0  0  0  0  0  0
  -29.2590  -19.6265   18.8168 C   0  0  0  0  0  0
  -28.8708  -19.5203   16.3174 C   0  0  0  0  0  0
  -28.5120  -17.4635   17.7199 C   0  0  0  0  0  0
  -33.2186  -17.4606   20.8299 C   0  0  0  0  0  0
  -32.7297  -19.5163   19.5002 C   0  0  0  0  0  0
  -26.7803  -22.7413   20.4389 C   0  0  0  0  0  0
  -28.2168  -22.5317   22.4254 C   0  0  0  0  0  0
  -29.0484  -24.0208   20.5390 C   0  0  0  0  0  0
  -30.1774  -17.0457   21.3526 C   0  0  0  0  0  0
  -28.4304  -25.1653   19.6234 C   0  0  0  0  0  0
  -29.3228  -18.7643   17.5800 C   0  0  0  0  0  0
  -32.1814  -18.5740   20.5963 C   0  0  0  0  0  0
  -30.7342  -18.0697   20.2801 C   0  0  2  0  0  0
  -28.2583  -22.6680   20.8875 C   0  0  0  0  0  0
  -29.8614  -19.2738   20.0275 N   0  0  0  0  0  0
  -29.8786  -15.6269   20.9667 N   0  0  0  0  0  0
  -31.4800  -12.4999   19.1411 H   0  0  0  0  0  0
  -30.3672  -11.3818   19.8790 H   0  0  0  0  0  0
  -29.7612  -11.7482   17.4701 H   0  0  0  0  0  0
  -29.6476  -13.4714   17.7351 H   0  0  0  0  0  0
  -27.8629  -11.2913   18.8655 H   0  0  0  0  0  0
  -27.3689  -12.5754   17.7950 H   0  0  0  0  0  0
  -27.6786  -14.2497   19.5287 H   0  0  0  0  0  0
  -28.7122  -12.0262   21.3592 H   0  0  0  0  0  0
  -28.4544  -13.6725   21.8522 H   0  0  0  0  0  0
  -25.2772   -9.5675   22.4762 H   0  0  0  0  0  0
  -24.0005   -7.4625   22.7463 H   0  0  0  0  0  0
  -21.0862   -8.8772   19.8929 H   0  0  0  0  0  0
  -22.3720  -10.9675   19.6146 H   0  0  0  0  0  0
  -21.1991   -7.6138   23.9711 H   0  0  0  0  0  0
  -21.1489   -6.0515   25.9073 H   0  0  0  0  0  0
  -22.0599   -2.7611   23.2851 H   0  0  0  0  0  0
  -22.4126  -11.9838   22.4757 H   0  0  0  0  0  0
  -21.1115  -13.1202   22.2620 H   0  0  0  0  0  0
  -24.6697  -15.8485   20.5148 H   0  0  0  0  0  0
  -26.2805  -15.6215   20.0694 H   0  0  0  0  0  0
  -26.7185  -32.5427   23.1055 H   0  0  0  0  0  0
  -25.0139  -33.9710   25.0396 H   0  0  0  0  0  0
  -22.7130  -31.3060   21.3940 H   0  0  0  0  0  0
  -23.3728  -35.9678   23.3285 H   0  0  0  0  0  0
  -24.3576  -36.8965   22.2052 H   0  0  0  0  0  0
  -23.7310  -37.6531   23.6687 H   0  0  0  0  0  0
  -26.0727  -31.5476   20.5866 H   0  0  0  0  0  0
  -26.8452  -30.8519   21.9835 H   0  0  0  0  0  0
  -28.1052  -28.9776   21.1966 H   0  0  0  0  0  0
  -25.9345  -25.9626   18.9647 H   0  0  0  0  0  0
  -23.9703  -27.3097   19.0090 H   0  0  0  0  0  0
  -23.7442  -30.5972   19.3997 H   0  0  0  0  0  0
  -22.7503  -29.2485   19.8513 H   0  0  0  0  0  0
  -25.1276  -36.1880   25.0798 H   0  0  0  0  0  0
  -20.9921  -28.3270   24.1421 H   0  0  0  0  0  0
  -20.5702  -26.2287   23.3583 H   0  0  0  0  0  0
  -21.6624  -26.7493   22.1170 H   0  0  0  0  0  0
  -19.6938  -25.6303   21.1243 H   0  0  0  0  0  0
  -19.6719  -27.3206   20.6743 H   0  0  0  0  0  0
  -17.4174  -26.6651   21.4023 H   0  0  0  0  0  0
  -18.0345  -26.0096   22.9034 H   0  0  0  0  0  0
  -19.7943  -30.7287   24.2207 H   0  0  0  0  0  0
  -17.5043  -31.6279   24.5187 H   0  0  0  0  0  0
  -15.5364  -30.3019   23.7747 H   0  0  0  0  0  0
  -15.8631  -28.0938   22.6990 H   0  0  0  0  0  0
  -24.5932  -30.7005   25.7807 H   0  0  0  0  0  0
  -24.8901  -32.2882   26.4815 H   0  0  0  0  0  0
  -25.8080  -30.8960   27.0235 H   0  0  0  0  0  0
  -26.2940  -29.6745   24.1138 H   0  0  0  0  0  0
  -27.4043  -29.7231   25.4617 H   0  0  0  0  0  0
  -27.8783  -30.4273   23.9341 H   0  0  0  0  0  0
  -27.2607  -33.3622   26.2029 H   0  0  0  0  0  0
  -28.3902  -32.6852   25.0395 H   0  0  0  0  0  0
  -28.0614  -31.8460   26.5487 H   0  0  0  0  0  0
  -28.2533  -38.0119   24.7484 H   0  0  0  0  0  0
  -28.1071  -36.2646   24.6284 H   0  0  0  0  0  0
  -27.2256  -37.1449   25.8848 H   0  0  0  0  0  0
  -20.9309  -29.8868   21.6982 H   0  0  0  0  0  0
  -26.0129  -38.2822   24.1423 H   0  0  0  0  0  0
  -28.1533  -21.3934   18.1974 H   0  0  0  0  0  0
  -29.9616  -20.2688   21.9322 H   0  0  0  0  0  0
  -29.4602  -20.4260   16.1698 H   0  0  0  0  0  0
  -27.8206  -19.8118   16.3818 H   0  0  0  0  0  0
  -28.9868  -18.9077   15.4227 H   0  0  0  0  0  0
  -28.8285  -16.8687   18.5749 H   0  0  0  0  0  0
  -28.6288  -16.8374   16.8346 H   0  0  0  0  0  0
  -27.4473  -17.6672   17.8444 H   0  0  0  0  0  0
  -34.1988  -17.8813   21.0576 H   0  0  0  0  0  0
  -33.3347  -16.8364   19.9442 H   0  0  0  0  0  0
  -32.9584  -16.8153   21.6681 H   0  0  0  0  0  0
  -33.7185  -19.8947   19.7604 H   0  0  0  0  0  0
  -32.0969  -20.3888   19.3412 H   0  0  0  0  0  0
  -32.8181  -18.9956   18.5461 H   0  0  0  0  0  0
  -26.2229  -21.8575   20.7540 H   0  0  0  0  0  0
  -26.6796  -22.7948   19.3541 H   0  0  0  0  0  0
  -26.2737  -23.6096   20.8618 H   0  0  0  0  0  0
  -27.6220  -21.6695   22.7327 H   0  0  0  0  0  0
  -27.7685  -23.4107   22.8916 H   0  0  0  0  0  0
  -29.2157  -22.4130   22.8483 H   0  0  0  0  0  0
  -29.3240  -24.5178   21.4720 H   0  0  0  0  0  0
  -30.0181  -23.7405   20.1234 H   0  0  0  0  0  0
  -29.2352  -17.4450   21.7276 H   0  0  0  0  0  0
  -30.8178  -17.0264   22.2338 H   0  0  0  0  0  0
  -27.5237  -24.8168   19.1538 H   0  0  0  0  0  0
  -29.0990  -25.2521   18.7674 H   0  0  0  0  0  0
  -30.3661  -18.4924   17.4117 H   0  0  0  0  0  0
  -32.1328  -19.1532   21.5196 H   0  0  0  0  0  0
  -30.8266  -17.5139   19.3506 H   0  0  0  0  0  0
  -28.9301  -15.3482   21.1651 H   0  0  0  0  0  0
  1 25  1  0  0  0
  1 30  2  0  0  0
  1 89  1  0  0  0
  2  3  1  0  0  0
  2 25  1  0  0  0
  2 90  1  0  0  0
  2 91  1  0  0  0
  3  4  1  0  0  0
  3 92  1  0  0  0
  3 93  1  0  0  0
  4  5  1  0  0  0
  4 94  1  0  0  0
  4 95  1  0  0  0
  5  6  1  0  0  0
  5 26  1  0  0  0
  5 96  1  0  0  0
  6 25  1  0  0  0
  6 97  1  0  0  0
  6 98  1  0  0  0
  7  8  2  0  0  0
  7 26  1  0  0  0
  7 29  1  0  0  0
  8  9  1  0  0  0
  8 22  1  0  0  0
  9 10  1  0  0  0
  9 27  2  0  0  0
 10 11  2  0  0  0
 10 15  1  0  0  0
 11 12  1  0  0  0
 11 99  1  0  0  0
 12 13  2  0  0  0
 12100  1  0  0  0
 13 14  1  0  0  0
 13 31  1  0  0  0
 14 15  2  0  0  0
 14101  1  0  0  0
 15102  1  0  0  0
 16 17  2  0  0  0
 16 21  1  0  0  0
 16 31  1  0  0  0
 17 18  1  0  0  0
 17103  1  0  0  0
 18 19  2  0  0  0
 18104  1  0  0  0
 19 20  1  0  0  0
 19 24  1  0  0  0
 20 21  2  0  0  0
 20105  1  0  0  0
 21 23  1  0  0  0
 22 28  1  0  0  0
 22 32  2  0  0  0
 26 27  1  0  0  0
 28106  1  0  0  0
 28107  1  0  0  0
 29108  1  0  0  0
 29109  1  0  0  0
 33 34  1  0  0  0
 33 66  1  0  0  0
 33 70  2  0  0  0
 34 36  1  0  0  0
 34 59  1  0  0  0
 34110  1  0  0  0
 35 44  2  0  0  0
 35 45  1  0  0  0
 35 68  1  0  0  0
 36 56  1  0  0  0
 36111  1  0  0  0
 37 39  1  0  0  0
 37 47  1  0  0  0
 37 66  1  0  0  0
 37112  1  0  0  0
 38 43  2  0  0  0
 38 46  1  0  0  0
 38 47  1  0  0  0
 39 64  1  0  0  0
 39 67  2  0  0  0
 40 52  1  0  0  0
 40 53  2  0  0  0
 40 58  1  0  0  0
 41113  1  0  0  0
 41114  1  0  0  0
 41115  1  0  0  0
 41 48  1  0  0  0
 42 43  1  0  0  0
 42 66  1  0  0  0
 42116  1  0  0  0
 42117  1  0  0  0
 43 44  1  0  0  0
 44118  1  0  0  0
 45 46  2  0  0  0
 45119  1  0  0  0
 46120  1  0  0  0
 47121  1  0  0  0
 47122  1  0  0  0
 48 56  1  0  0  0
 48 65  1  0  0  0
 48123  1  0  0  0
 49 50  1  0  0  0
 49 53  1  0  0  0
 49 64  1  0  0  0
 49124  1  0  0  0
 50 51  1  0  0  0
 50125  1  0  0  0
 50126  1  0  0  0
 51 52  1  0  0  0
 51127  1  0  0  0
 51128  1  0  0  0
 52129  1  0  0  0
 52130  1  0  0  0
 53 54  1  0  0  0
 54 55  2  0  0  0
 54131  1  0  0  0
 55 57  1  0  0  0
 55132  1  0  0  0
 56 69  2  0  0  0
 57 58  2  0  0  0
 57133  1  0  0  0
 58134  1  0  0  0
 59 60  1  0  0  0
 59 61  1  0  0  0
 59 62  1  0  0  0
 60135  1  0  0  0
 60136  1  0  0  0
 60137  1  0  0  0
 61138  1  0  0  0
 61139  1  0  0  0
 61140  1  0  0  0
 62141  1  0  0  0
 62142  1  0  0  0
 62143  1  0  0  0
 63 65  1  0  0  0
 63144  1  0  0  0
 63145  1  0  0  0
 63146  1  0  0  0
 64147  1  0  0  0
 65148  1  0  0  0
 68 83  1  0  0  0
 71 73  1  0  0  0
 71 74  2  0  0  0
 71149  1  0  0  0
 72 73  2  0  0  0
 72 88  1  0  0  0
 72150  1  0  0  0
 73 87  1  0  0  0
 74 84  1  0  0  0
 74 88  1  0  0  0
 75151  1  0  0  0
 75152  1  0  0  0
 75153  1  0  0  0
 75 84  1  0  0  0
 76 84  1  0  0  0
 76154  1  0  0  0
 76155  1  0  0  0
 76156  1  0  0  0
 77157  1  0  0  0
 77158  1  0  0  0
 77159  1  0  0  0
 77 85  1  0  0  0
 78 85  1  0  0  0
 78160  1  0  0  0
 78161  1  0  0  0
 78162  1  0  0  0
 79163  1  0  0  0
 79164  1  0  0  0
 79165  1  0  0  0
 79 87  1  0  0  0
 80 87  1  0  0  0
 80166  1  0  0  0
 80167  1  0  0  0
 80168  1  0  0  0
 81 83  1  0  0  0
 81 87  1  0  0  0
 81169  1  0  0  0
 81170  1  0  0  0
 82 89  1  0  0  0
 82171  1  0  0  0
 82172  1  0  0  0
 82 86  1  0  0  0
 83173  1  0  0  0
 83174  1  0  0  0
 84175  1  0  0  0
 85 86  1  0  0  0
 85176  1  0  0  0
 86 88  1  0  0  0
 86177  1  0  0  0
 89178  1  0  0  0
M  ISO  4   1 100  68 101  83 101  89 100
M  END
> <chiral flag>
0

> <version>
0

> <s_m_source_file>
/data/baiqing/PycharmProjects/Reinvent-master-3.2/result/LINK_invent/BTK/process_docking_weight1_custom_sum_contain_oxygen_bond_distance_aromatic_linkinvent_7_9_3/rearranged_h_0104.sdf

> <i_m_source_file_index>
52

> <r_mmod_Potential_Energy-OPLS-2005>
66.8884963989258

> <r_mmod_Stretch_Energy-OPLS-2005>
77.4708709716797

> <r_mmod_Bend_Energy-OPLS-2005>
171.121688842773

> <r_mmod_Torsional_Energy-OPLS-2005>
271.530944824219

> <r_mmod_Improper_Torsional_Energy-OPLS-2005>
4.13199472427368

> <r_mmod_Van_der_Waal_Energy-OPLS-2005>
127.853874206543

> <r_mmod_Electrostatic_Energy-OPLS-2005>
-436.778869628906

> <r_mmod_Solvation_Energy-OPLS-2005>
-185.969055175781

> <b_mmod_Minimization_Converged-OPLS-2005>
0

> <r_mmod_RMS_Derivative-OPLS-2005>
3.35931420326233

$$$$
52
                    3D
 Structure written by MMmdl.
174182  0  0  1  0            999 V2000
  -30.6562  -14.8270   20.4414 C   0  0  0  0  0  0
  -30.4162  -12.5181   19.4820 C   0  0  0  0  0  0
  -29.5032  -12.5028   18.2397 C   0  0  0  0  0  0
  -28.0365  -12.3107   18.6637 C   0  0  0  0  0  0
  -27.6288  -13.2429   19.8361 C   0  0  2  0  0  0
  -28.6783  -13.2571   20.9697 C   0  0  0  0  0  0
  -25.2453  -13.8214   20.5711 C   0  0  0  0  0  0
  -24.1769  -13.0443   20.9238 C   0  0  0  0  0  0
  -24.6380  -11.6928   20.8773 C   0  0  0  0  0  0
  -23.9064  -10.4299   21.0417 C   0  0  0  0  0  0
  -24.3616   -9.4212   21.9194 C   0  0  0  0  0  0
  -23.6291   -8.2244   22.0754 C   0  0  0  0  0  0
  -22.4276   -8.0280   21.3541 C   0  0  0  0  0  0
  -21.9909   -9.0255   20.4644 C   0  0  0  0  0  0
  -22.7239  -10.2136   20.3058 C   0  0  0  0  0  0
  -21.6853   -6.0732   22.5275 C   0  0  0  0  0  0
  -21.4016   -6.5633   23.8213 C   0  0  0  0  0  0
  -21.3660   -5.6783   24.9174 C   0  0  0  0  0  0
  -21.6043   -4.3048   24.7223 C   0  0  0  0  0  0
  -21.8820   -3.8139   23.4346 C   0  0  0  0  0  0
  -21.9196   -4.6959   22.3402 C   0  0  0  0  0  0
  -22.7788  -13.5225   21.1863 C   0  0  0  0  0  0
  -22.1669   -4.2144   21.0980 F   0  0  0  0  0  0
  -21.5625   -3.4532   25.7740 F   0  0  0  0  0  0
  -29.9543  -13.6332   20.3528 N   0  0  0  0  0  0
  -26.2884  -12.9447   20.3273 N   0  0  0  0  0  0
  -25.9316  -11.6580   20.5774 N   0  0  0  0  0  0
  -22.0421  -12.8234   22.0416 N   0  0  0  0  0  0
  -25.4061  -15.1935   20.4089 N   0  0  0  0  0  0
  -31.8707  -14.7580   20.2243 O   0  0  0  0  0  0
  -21.6638   -6.8875   21.4239 O   0  0  0  0  0  0
  -22.3484  -14.5523   20.6689 O   0  0  0  0  0  0
  -24.6376  -31.8496   23.1938 C   0  0  0  0  0  0
  -25.9178  -32.4706   23.8300 C   0  0  1  0  0  0
  -27.2078  -27.2013   20.1310 C   0  0  0  0  0  0
  -25.5957  -33.8513   24.2210 N   0  0  0  0  0  0
  -23.4349  -30.4724   21.5398 C   0  0  2  0  0  0
  -24.8776  -28.9098   20.1102 C   0  0  0  0  0  0
  -22.7543  -29.4567   22.4908 C   0  0  0  0  0  0
  -18.0299  -28.1389   22.8477 C   0  0  0  0  0  0
  -24.1490  -36.7265   23.2640 C   0  0  0  0  0  0
  -25.9859  -30.7421   21.3826 C   0  0  0  0  0  0
  -26.0526  -29.3606   20.7228 C   0  0  0  0  0  0
  -27.2188  -28.5205   20.7175 C   0  0  0  0  0  0
  -26.0056  -26.8332   19.4867 C   0  0  0  0  0  0
  -24.8631  -27.6570   19.4803 C   0  0  0  0  0  0
  -23.6544  -29.8070   20.1562 C   0  0  0  0  0  0
  -25.4120  -36.3041   24.0317 C   0  0  1  0  0  0
  -20.5904  -28.3701   23.1260 C   0  0  2  0  0  0
  -20.6776  -26.9413   22.5407 C   0  0  0  0  0  0
  -19.5748  -26.6378   21.5212 C   0  0  0  0  0  0
  -18.1934  -26.7925   22.1626 C   0  0  0  0  0  0
  -19.1551  -28.8866   23.2858 C   0  0  0  0  0  0
  -18.9473  -30.1468   23.8872 C   0  0  0  0  0  0
  -17.6468  -30.6586   24.0565 C   0  0  0  0  0  0
  -25.9068  -34.9412   23.5069 C   0  0  0  0  0  0
  -16.5360  -29.9079   23.6342 C   0  0  0  0  0  0
  -16.7285  -28.6506   23.0349 C   0  0  0  0  0  0
  -26.4510  -31.6553   25.0724 C   0  0  0  0  0  0
  -25.3716  -31.3741   26.1440 C   0  0  0  0  0  0
  -27.0355  -30.2948   24.6267 C   0  0  0  0  0  0
  -27.6038  -32.4319   25.7509 C   0  0  0  0  0  0
  -27.5575  -37.1794   24.8466 C   0  0  0  0  0  0
  -21.4236  -29.3043   22.3649 N   0  0  0  0  0  0
  -26.4281  -37.3759   23.9413 N   0  0  0  0  0  0
  -24.7053  -31.0418   22.0937 N   0  0  0  0  0  0
  -23.4220  -28.8118   23.3024 O   0  0  0  0  0  0
  -28.3047  -26.2912   20.1992 O   0  0  0  0  0  0
  -26.5654  -34.8908   22.4647 O   0  0  0  0  0  0
  -23.5513  -32.1350   23.7211 O   0  0  0  0  0  0
  -30.7678  -18.6845   20.1598 C   0  0  0  0  0  0
  -28.3984  -18.1985   20.5691 C   0  0  0  0  0  0
  -30.7168  -17.2123   19.5477 C   0  0  0  0  0  0
  -28.8503  -16.7055   20.9988 C   0  0  0  0  0  0
  -29.4686  -19.3413   20.7489 C   0  0  0  0  0  0
  -27.3005  -26.2059   23.9580 C   0  0  0  0  0  0
  -29.0684  -24.4244   24.2407 C   0  0  0  0  0  0
  -26.7932  -21.7682   20.3007 C   0  0  0  0  0  0
  -28.0022  -21.3965   22.4517 C   0  0  0  0  0  0
  -29.2203  -20.9477   20.3371 C   0  0  0  0  0  0
  -27.4820  -24.3426   22.2433 C   0  0  0  0  0  0
  -28.2267  -24.7791   19.9306 C   0  0  0  0  0  0
  -28.2545  -25.2465   23.2290 C   0  0  0  0  0  0
  -28.3698  -23.6717   21.1354 C   0  0  2  0  0  0
  -28.1354  -21.9919   21.0188 C   0  0  0  0  0  0
  -30.0462  -16.1059   20.3172 N   0  0  0  0  0  0
  -31.4546  -12.6252   19.1678 H   0  0  0  0  0  0
  -30.3716  -11.5666   20.0150 H   0  0  0  0  0  0
  -29.8049  -11.7062   17.5580 H   0  0  0  0  0  0
  -29.6115  -13.4383   17.6882 H   0  0  0  0  0  0
  -27.9236  -11.2699   18.9689 H   0  0  0  0  0  0
  -27.3703  -12.4508   17.8116 H   0  0  0  0  0  0
  -27.5970  -14.2460   19.4099 H   0  0  0  0  0  0
  -28.7501  -12.2820   21.4538 H   0  0  0  0  0  0
  -28.4028  -13.9649   21.7514 H   0  0  0  0  0  0
  -25.2758   -9.5695   22.4777 H   0  0  0  0  0  0
  -23.9994   -7.4633   22.7477 H   0  0  0  0  0  0
  -21.0836   -8.8775   19.8955 H   0  0  0  0  0  0
  -22.3692  -10.9674   19.6165 H   0  0  0  0  0  0
  -21.2011   -7.6141   23.9718 H   0  0  0  0  0  0
  -21.1477   -6.0512   25.9078 H   0  0  0  0  0  0
  -22.0596   -2.7600   23.2844 H   0  0  0  0  0  0
  -22.4033  -11.9927   22.4865 H   0  0  0  0  0  0
  -21.1023  -13.1253   22.2560 H   0  0  0  0  0  0
  -24.6328  -15.8393   20.5231 H   0  0  0  0  0  0
  -26.2474  -15.6379   20.0657 H   0  0  0  0  0  0
  -26.7248  -32.5334   23.1036 H   0  0  0  0  0  0
  -25.0086  -33.9625   25.0343 H   0  0  0  0  0  0
  -22.7342  -31.2973   21.3946 H   0  0  0  0  0  0
  -23.3746  -35.9604   23.3290 H   0  0  0  0  0  0
  -24.3578  -36.8904   22.2057 H   0  0  0  0  0  0
  -23.7245  -37.6459   23.6682 H   0  0  0  0  0  0
  -26.1399  -31.4988   20.6121 H   0  0  0  0  0  0
  -26.8565  -30.7855   22.0251 H   0  0  0  0  0  0
  -28.1171  -28.8609   21.2119 H   0  0  0  0  0  0
  -25.8991  -25.8855   18.9866 H   0  0  0  0  0  0
  -23.9646  -27.3068   18.9904 H   0  0  0  0  0  0
  -23.7886  -30.5830   19.4017 H   0  0  0  0  0  0
  -22.7695  -29.2480   19.8469 H   0  0  0  0  0  0
  -25.1300  -36.1870   25.0808 H   0  0  0  0  0  0
  -20.9999  -28.3274   24.1379 H   0  0  0  0  0  0
  -20.5662  -26.2314   23.3615 H   0  0  0  0  0  0
  -21.6645  -26.7417   22.1214 H   0  0  0  0  0  0
  -19.6898  -25.6286   21.1248 H   0  0  0  0  0  0
  -19.6676  -27.3179   20.6734 H   0  0  0  0  0  0
  -17.4202  -26.6677   21.4028 H   0  0  0  0  0  0
  -18.0334  -26.0065   22.9020 H   0  0  0  0  0  0
  -19.7949  -30.7299   24.2216 H   0  0  0  0  0  0
  -17.5023  -31.6263   24.5173 H   0  0  0  0  0  0
  -15.5356  -30.2976   23.7678 H   0  0  0  0  0  0
  -15.8689  -28.0829   22.7057 H   0  0  0  0  0  0
  -24.5895  -30.7070   25.7791 H   0  0  0  0  0  0
  -24.8901  -32.2921   26.4823 H   0  0  0  0  0  0
  -25.8024  -30.8965   27.0249 H   0  0  0  0  0  0
  -26.2961  -29.6693   24.1248 H   0  0  0  0  0  0
  -27.3941  -29.7216   25.4825 H   0  0  0  0  0  0
  -27.8882  -30.4172   23.9586 H   0  0  0  0  0  0
  -27.2610  -33.3624   26.2052 H   0  0  0  0  0  0
  -28.3867  -32.6873   25.0356 H   0  0  0  0  0  0
  -28.0683  -31.8474   26.5461 H   0  0  0  0  0  0
  -28.2590  -38.0094   24.7514 H   0  0  0  0  0  0
  -28.1069  -36.2623   24.6277 H   0  0  0  0  0  0
  -27.2306  -37.1435   25.8875 H   0  0  0  0  0  0
  -20.9440  -29.8779   21.6854 H   0  0  0  0  0  0
  -26.0141  -38.2825   24.1414 H   0  0  0  0  0  0
  -31.1584  -19.3420   19.3831 H   0  0  0  0  0  0
  -31.5325  -18.6975   20.9373 H   0  0  0  0  0  0
  -27.5019  -18.4585   21.1322 H   0  0  0  0  0  0
  -28.0791  -18.1862   19.5263 H   0  0  0  0  0  0
  -31.7401  -16.9480   19.2794 H   0  0  0  0  0  0
  -30.1987  -17.2614   18.5890 H   0  0  0  0  0  0
  -28.0042  -16.0421   20.8454 H   0  0  0  0  0  0
  -29.0462  -16.6920   22.0716 H   0  0  0  0  0  0
  -29.6650  -19.3569   21.8212 H   0  0  0  0  0  0
  -27.8434  -26.8731   24.6281 H   0  0  0  0  0  0
  -26.5652  -25.6632   24.5535 H   0  0  0  0  0  0
  -26.7553  -26.8340   23.2513 H   0  0  0  0  0  0
  -29.6019  -25.0748   24.9347 H   0  0  0  0  0  0
  -29.8129  -23.8015   23.7458 H   0  0  0  0  0  0
  -28.4256  -23.7684   24.8284 H   0  0  0  0  0  0
  -26.5216  -20.7116   20.2813 H   0  0  0  0  0  0
  -26.8377  -22.1115   19.2666 H   0  0  0  0  0  0
  -25.9805  -22.3047   20.7904 H   0  0  0  0  0  0
  -27.8196  -20.3254   22.4336 H   0  0  0  0  0  0
  -27.1517  -21.7390   23.0305 H   0  0  0  0  0  0
  -28.9058  -21.5644   23.0382 H   0  0  0  0  0  0
  -29.0957  -20.9948   19.2545 H   0  0  0  0  0  0
  -30.1890  -21.4212   20.5013 H   0  0  0  0  0  0
  -26.7151  -24.9472   21.7570 H   0  0  0  0  0  0
  -26.8564  -23.6733   22.8146 H   0  0  0  0  0  0
  -29.0339  -24.5725   19.2278 H   0  0  0  0  0  0
  -27.3379  -24.5220   19.3643 H   0  0  0  0  0  0
  -28.9519  -25.8631   22.6616 H   0  0  0  0  0  0
  -29.4044  -23.7597   21.4663 H   0  0  0  0  0  0
  1 25  1  0  0  0
  1 30  2  0  0  0
  1 86  1  0  0  0
  2  3  1  0  0  0
  2 25  1  0  0  0
  2 87  1  0  0  0
  2 88  1  0  0  0
  3  4  1  0  0  0
  3 89  1  0  0  0
  3 90  1  0  0  0
  4  5  1  0  0  0
  4 91  1  0  0  0
  4 92  1  0  0  0
  5  6  1  0  0  0
  5 26  1  0  0  0
  5 93  1  0  0  0
  6 25  1  0  0  0
  6 94  1  0  0  0
  6 95  1  0  0  0
  7  8  2  0  0  0
  7 26  1  0  0  0
  7 29  1  0  0  0
  8  9  1  0  0  0
  8 22  1  0  0  0
  9 10  1  0  0  0
  9 27  2  0  0  0
 10 11  2  0  0  0
 10 15  1  0  0  0
 11 12  1  0  0  0
 11 96  1  0  0  0
 12 13  2  0  0  0
 12 97  1  0  0  0
 13 14  1  0  0  0
 13 31  1  0  0  0
 14 15  2  0  0  0
 14 98  1  0  0  0
 15 99  1  0  0  0
 16 17  2  0  0  0
 16 21  1  0  0  0
 16 31  1  0  0  0
 17 18  1  0  0  0
 17100  1  0  0  0
 18 19  2  0  0  0
 18101  1  0  0  0
 19 20  1  0  0  0
 19 24  1  0  0  0
 20 21  2  0  0  0
 20102  1  0  0  0
 21 23  1  0  0  0
 22 28  1  0  0  0
 22 32  2  0  0  0
 26 27  1  0  0  0
 28103  1  0  0  0
 28104  1  0  0  0
 29105  1  0  0  0
 29106  1  0  0  0
 33 34  1  0  0  0
 33 66  1  0  0  0
 33 70  2  0  0  0
 34 36  1  0  0  0
 34 59  1  0  0  0
 34107  1  0  0  0
 35 44  2  0  0  0
 35 45  1  0  0  0
 35 68  1  0  0  0
 36 56  1  0  0  0
 36108  1  0  0  0
 37 39  1  0  0  0
 37 47  1  0  0  0
 37 66  1  0  0  0
 37109  1  0  0  0
 38 43  2  0  0  0
 38 46  1  0  0  0
 38 47  1  0  0  0
 39 64  1  0  0  0
 39 67  2  0  0  0
 40 52  1  0  0  0
 40 53  2  0  0  0
 40 58  1  0  0  0
 41110  1  0  0  0
 41111  1  0  0  0
 41112  1  0  0  0
 41 48  1  0  0  0
 42 43  1  0  0  0
 42 66  1  0  0  0
 42113  1  0  0  0
 42114  1  0  0  0
 43 44  1  0  0  0
 44115  1  0  0  0
 45 46  2  0  0  0
 45116  1  0  0  0
 46117  1  0  0  0
 47118  1  0  0  0
 47119  1  0  0  0
 48 56  1  0  0  0
 48 65  1  0  0  0
 48120  1  0  0  0
 49 50  1  0  0  0
 49 53  1  0  0  0
 49 64  1  0  0  0
 49121  1  0  0  0
 50 51  1  0  0  0
 50122  1  0  0  0
 50123  1  0  0  0
 51 52  1  0  0  0
 51124  1  0  0  0
 51125  1  0  0  0
 52126  1  0  0  0
 52127  1  0  0  0
 53 54  1  0  0  0
 54 55  2  0  0  0
 54128  1  0  0  0
 55 57  1  0  0  0
 55129  1  0  0  0
 56 69  2  0  0  0
 57 58  2  0  0  0
 57130  1  0  0  0
 58131  1  0  0  0
 59 60  1  0  0  0
 59 61  1  0  0  0
 59 62  1  0  0  0
 60132  1  0  0  0
 60133  1  0  0  0
 60134  1  0  0  0
 61135  1  0  0  0
 61136  1  0  0  0
 61137  1  0  0  0
 62138  1  0  0  0
 62139  1  0  0  0
 62140  1  0  0  0
 63 65  1  0  0  0
 63141  1  0  0  0
 63142  1  0  0  0
 63143  1  0  0  0
 64144  1  0  0  0
 65145  1  0  0  0
 68 82  1  0  0  0
 71 73  1  0  0  0
 71 75  1  0  0  0
 71146  1  0  0  0
 71147  1  0  0  0
 72 74  1  0  0  0
 72 75  1  0  0  0
 72148  1  0  0  0
 72149  1  0  0  0
 73 86  1  0  0  0
 73150  1  0  0  0
 73151  1  0  0  0
 74 86  1  0  0  0
 74152  1  0  0  0
 74153  1  0  0  0
 75 80  1  0  0  0
 75154  1  0  0  0
 76155  1  0  0  0
 76156  1  0  0  0
 76157  1  0  0  0
 76 83  1  0  0  0
 77 83  1  0  0  0
 77158  1  0  0  0
 77159  1  0  0  0
 77160  1  0  0  0
 78161  1  0  0  0
 78162  1  0  0  0
 78163  1  0  0  0
 78 85  1  0  0  0
 79 85  1  0  0  0
 79164  1  0  0  0
 79165  1  0  0  0
 79166  1  0  0  0
 80 85  1  0  0  0
 80167  1  0  0  0
 80168  1  0  0  0
 81 83  1  0  0  0
 81169  1  0  0  0
 81170  1  0  0  0
 81 84  1  0  0  0
 82 84  1  0  0  0
 82171  1  0  0  0
 82172  1  0  0  0
 83173  1  0  0  0
 84 85  1  0  0  0
 84174  1  0  0  0
M  ISO  4   1 100  68 101  82 101  86 100
M  END
> <chiral flag>
0

> <version>
0

> <s_m_source_file>
/data/baiqing/PycharmProjects/Reinvent-master-3.2/result/LINK_invent/BTK/process_docking_weight1_custom_sum_contain_oxygen_bond_distance_aromatic_linkinvent_7_9_3/rearranged_h_0104.sdf

> <i_m_source_file_index>
53

> <r_mmod_Potential_Energy-OPLS-2005>
691.90283203125

> <r_mmod_Stretch_Energy-OPLS-2005>
207.175720214844

> <r_mmod_Bend_Energy-OPLS-2005>
297.750823974609

> <r_mmod_Torsional_Energy-OPLS-2005>
363.070953369141

> <r_mmod_Improper_Torsional_Energy-OPLS-2005>
13.741268157959

> <r_mmod_Van_der_Waal_Energy-OPLS-2005>
135.58366394043

> <r_mmod_Electrostatic_Energy-OPLS-2005>
-276.894744873047

> <r_mmod_Solvation_Energy-OPLS-2005>
-176.183181762695

> <b_mmod_Minimization_Converged-OPLS-2005>
0

> <r_mmod_RMS_Derivative-OPLS-2005>
1.46215260028839

$$$$
53
                    3D
 Structure written by MMmdl.
185193  0  0  1  0            999 V2000
  -30.7092  -14.4352   20.5810 C   0  0  0  0  0  0
  -30.4205  -12.2874   19.4009 C   0  0  0  0  0  0
  -29.4897  -12.5162   18.1951 C   0  0  0  0  0  0
  -28.0076  -12.4048   18.6098 C   0  0  0  0  0  0
  -27.6716  -13.2113   19.8913 C   0  0  2  0  0  0
  -28.7123  -12.9433   21.0039 C   0  0  0  0  0  0
  -25.2590  -13.8139   20.5727 C   0  0  0  0  0  0
  -24.1814  -13.0398   20.9220 C   0  0  0  0  0  0
  -24.6387  -11.6879   20.8750 C   0  0  0  0  0  0
  -23.9009  -10.4281   21.0411 C   0  0  0  0  0  0
  -24.3612   -9.4195   21.9189 C   0  0  0  0  0  0
  -23.6313   -8.2204   22.0745 C   0  0  0  0  0  0
  -22.4265   -8.0257   21.3544 C   0  0  0  0  0  0
  -21.9897   -9.0197   20.4616 C   0  0  0  0  0  0
  -22.7188  -10.2123   20.3043 C   0  0  0  0  0  0
  -21.6818   -6.0709   22.5279 C   0  0  0  0  0  0
  -21.3993   -6.5634   23.8213 C   0  0  0  0  0  0
  -21.3658   -5.6802   24.9192 C   0  0  0  0  0  0
  -21.6057   -4.3057   24.7261 C   0  0  0  0  0  0
  -21.8807   -3.8131   23.4390 C   0  0  0  0  0  0
  -21.9211   -4.6931   22.3441 C   0  0  0  0  0  0
  -22.7858  -13.5198   21.1901 C   0  0  0  0  0  0
  -22.1699   -4.2104   21.1021 F   0  0  0  0  0  0
  -21.5652   -3.4552   25.7782 F   0  0  0  0  0  0
  -30.0475  -13.2512   20.4529 N   0  0  0  0  0  0
  -26.3065  -12.9338   20.3474 N   0  0  0  0  0  0
  -25.9341  -11.6487   20.5836 N   0  0  0  0  0  0
  -22.0569  -12.8120   22.0479 N   0  0  0  0  0  0
  -25.4290  -15.1820   20.4088 N   0  0  0  0  0  0
  -31.8067  -14.6583   20.0625 O   0  0  0  0  0  0
  -21.6650   -6.8830   21.4223 O   0  0  0  0  0  0
  -22.3538  -14.5543   20.6842 O   0  0  0  0  0  0
  -24.6064  -31.8715   23.2054 C   0  0  0  0  0  0
  -25.8966  -32.4852   23.8357 C   0  0  1  0  0  0
  -27.2641  -27.4800   20.0953 C   0  0  0  0  0  0
  -25.5831  -33.8633   24.2342 N   0  0  0  0  0  0
  -23.4001  -30.4868   21.5437 C   0  0  2  0  0  0
  -24.8548  -28.9415   20.1273 C   0  0  0  0  0  0
  -22.7386  -29.4692   22.5005 C   0  0  0  0  0  0
  -18.0260  -28.1423   22.8468 C   0  0  0  0  0  0
  -24.1504  -36.7332   23.2637 C   0  0  0  0  0  0
  -25.9202  -30.8497   21.3495 C   0  0  0  0  0  0
  -26.0062  -29.4743   20.7229 C   0  0  0  0  0  0
  -27.2113  -28.7452   20.7152 C   0  0  0  0  0  0
  -26.1003  -26.9414   19.5058 C   0  0  0  0  0  0
  -24.8927  -27.6673   19.5245 C   0  0  0  0  0  0
  -23.6139  -29.8033   20.1664 C   0  0  0  0  0  0
  -25.4119  -36.3126   24.0368 C   0  0  1  0  0  0
  -20.5838  -28.3719   23.1303 C   0  0  2  0  0  0
  -20.6756  -26.9461   22.5410 C   0  0  0  0  0  0
  -19.5765  -26.6426   21.5192 C   0  0  0  0  0  0
  -18.1925  -26.7973   22.1587 C   0  0  0  0  0  0
  -19.1503  -28.8882   23.2894 C   0  0  0  0  0  0
  -18.9439  -30.1460   23.8945 C   0  0  0  0  0  0
  -17.6447  -30.6616   24.0567 C   0  0  0  0  0  0
  -25.9031  -34.9480   23.5173 C   0  0  0  0  0  0
  -16.5335  -29.9149   23.6309 C   0  0  0  0  0  0
  -16.7245  -28.6564   23.0335 C   0  0  0  0  0  0
  -26.4440  -31.6590   25.0644 C   0  0  0  0  0  0
  -25.3753  -31.3567   26.1410 C   0  0  0  0  0  0
  -27.0279  -30.3063   24.5917 C   0  0  0  0  0  0
  -27.6084  -32.4242   25.7391 C   0  0  0  0  0  0
  -27.5616  -37.1804   24.8475 C   0  0  0  0  0  0
  -21.4117  -29.3088   22.3720 N   0  0  0  0  0  0
  -26.4319  -37.3796   23.9440 N   0  0  0  0  0  0
  -24.6607  -31.0849   22.0943 N   0  0  0  0  0  0
  -23.4148  -28.8216   23.3036 O   0  0  0  0  0  0
  -28.4688  -26.8376   19.9707 O   0  0  0  0  0  0
  -26.5580  -34.8900   22.4726 O   0  0  0  0  0  0
  -23.5275  -32.1414   23.7497 O   0  0  0  0  0  0
  -28.7633  -21.0234   17.8823 C   0  0  0  0  0  0
  -28.7724  -19.9499   20.0572 C   0  0  0  0  0  0
  -28.6575  -21.1197   19.2828 C   0  0  0  0  0  0
  -29.0491  -19.7987   17.2428 C   0  0  0  0  0  0
  -29.0552  -18.7081   19.4409 C   0  0  0  0  0  0
  -29.3140  -18.6400   18.0364 C   0  0  0  0  0  0
  -31.3260  -17.6026   16.8255 C   0  0  0  0  0  0
  -29.0018  -16.4985   16.5763 C   0  0  0  0  0  0
  -26.5719  -18.1680   13.4986 C   0  0  0  0  0  0
  -26.3011  -20.6365   13.1503 C   0  0  0  0  0  0
  -28.3353  -22.4739   19.9067 C   0  0  0  0  0  0
  -28.9430  -19.7926   15.7157 C   0  0  0  0  0  0
  -28.9026  -17.4350   20.2826 C   0  0  0  0  0  0
  -27.4585  -19.7721   15.2677 C   0  0  0  0  0  0
  -30.1812  -16.8528   20.9205 C   0  0  0  0  0  0
  -29.4773  -24.8176   19.8565 C   0  0  0  0  0  0
  -29.9347  -17.3542   17.4471 C   0  0  0  0  0  0
  -27.2061  -19.5464   13.7550 C   0  0  0  0  0  0
  -29.5961  -23.3214   20.2223 C   0  0  1  0  0  0
  -29.9989  -15.4135   21.1654 N   0  0  0  0  0  0
  -28.4965  -25.5642   20.6351 N   0  0  0  0  0  0
  -30.0925  -23.1384   21.5987 N   0  3  0  0  0  0
  -31.4639  -12.3792   19.0937 H   0  0  0  0  0  0
  -30.3082  -11.2646   19.7639 H   0  0  0  0  0  0
  -29.7053  -11.7819   17.4153 H   0  0  0  0  0  0
  -29.6837  -13.4932   17.7514 H   0  0  0  0  0  0
  -27.7866  -11.3528   18.7685 H   0  0  0  0  0  0
  -27.3567  -12.7272   17.7939 H   0  0  0  0  0  0
  -27.7273  -14.2694   19.6290 H   0  0  0  0  0  0
  -28.6723  -11.8936   21.3138 H   0  0  0  0  0  0
  -28.4803  -13.5137   21.9050 H   0  0  0  0  0  0
  -25.2767   -9.5701   22.4746 H   0  0  0  0  0  0
  -24.0020   -7.4587   22.7460 H   0  0  0  0  0  0
  -21.0843   -8.8667   19.8937 H   0  0  0  0  0  0
  -22.3585  -10.9651   19.6157 H   0  0  0  0  0  0
  -21.1952   -7.6139   23.9692 H   0  0  0  0  0  0
  -21.1508   -6.0568   25.9091 H   0  0  0  0  0  0
  -22.0597   -2.7591   23.2920 H   0  0  0  0  0  0
  -22.4272  -11.9755   22.4723 H   0  0  0  0  0  0
  -21.1184  -13.1051   22.2761 H   0  0  0  0  0  0
  -24.6583  -15.8328   20.4976 H   0  0  0  0  0  0
  -26.2653  -15.6118   20.0317 H   0  0  0  0  0  0
  -26.7066  -32.5626   23.1166 H   0  0  0  0  0  0
  -25.0047  -33.9825   25.0530 H   0  0  0  0  0  0
  -22.6872  -31.3014   21.3917 H   0  0  0  0  0  0
  -23.3777  -35.9654   23.3289 H   0  0  0  0  0  0
  -24.3583  -36.8944   22.2042 H   0  0  0  0  0  0
  -23.7249  -37.6546   23.6638 H   0  0  0  0  0  0
  -25.9979  -31.5932   20.5538 H   0  0  0  0  0  0
  -26.8213  -30.9376   21.9441 H   0  0  0  0  0  0
  -28.1085  -29.1646   21.1500 H   0  0  0  0  0  0
  -26.1487  -25.9767   19.0167 H   0  0  0  0  0  0
  -24.0085  -27.2542   19.0582 H   0  0  0  0  0  0
  -23.7176  -30.5640   19.3926 H   0  0  0  0  0  0
  -22.7458  -29.2143   19.8727 H   0  0  0  0  0  0
  -25.1275  -36.2017   25.0864 H   0  0  0  0  0  0
  -20.9919  -28.3298   24.1429 H   0  0  0  0  0  0
  -20.5678  -26.2327   23.3597 H   0  0  0  0  0  0
  -21.6630  -26.7528   22.1196 H   0  0  0  0  0  0
  -19.6939  -25.6352   21.1210 H   0  0  0  0  0  0
  -19.6695  -27.3246   20.6734 H   0  0  0  0  0  0
  -17.4184  -26.6680   21.3995 H   0  0  0  0  0  0
  -18.0333  -26.0145   22.9024 H   0  0  0  0  0  0
  -19.7936  -30.7225   24.2379 H   0  0  0  0  0  0
  -17.5036  -31.6288   24.5187 H   0  0  0  0  0  0
  -15.5358  -30.3065   23.7660 H   0  0  0  0  0  0
  -15.8628  -28.0903   22.7048 H   0  0  0  0  0  0
  -24.6043  -30.6765   25.7747 H   0  0  0  0  0  0
  -24.8752  -32.2618   26.4839 H   0  0  0  0  0  0
  -25.8148  -30.8793   27.0174 H   0  0  0  0  0  0
  -26.2740  -29.6766   24.1149 H   0  0  0  0  0  0
  -27.4336  -29.7308   25.4259 H   0  0  0  0  0  0
  -27.8436  -30.4470   23.8819 H   0  0  0  0  0  0
  -27.2839  -33.3611   26.1920 H   0  0  0  0  0  0
  -28.3901  -32.6667   25.0181 H   0  0  0  0  0  0
  -28.0733  -31.8343   26.5308 H   0  0  0  0  0  0
  -28.2609  -38.0125   24.7566 H   0  0  0  0  0  0
  -28.1129  -36.2649   24.6264 H   0  0  0  0  0  0
  -27.2289  -37.1402   25.8856 H   0  0  0  0  0  0
  -20.9306  -29.8768   21.6885 H   0  0  0  0  0  0
  -26.0225  -38.2894   24.1394 H   0  0  0  0  0  0
  -28.5944  -21.9068   17.2774 H   0  0  0  0  0  0
  -28.6051  -19.9959   21.1247 H   0  0  0  0  0  0
  -31.9536  -18.2063   17.4861 H   0  0  0  0  0  0
  -31.2933  -18.1043   15.8624 H   0  0  0  0  0  0
  -31.8534  -16.6642   16.6560 H   0  0  0  0  0  0
  -28.1104  -16.1985   17.1301 H   0  0  0  0  0  0
  -29.5176  -15.5851   16.2852 H   0  0  0  0  0  0
  -28.6885  -16.9898   15.6582 H   0  0  0  0  0  0
  -26.4322  -17.9854   12.4329 H   0  0  0  0  0  0
  -25.5937  -18.0896   13.9800 H   0  0  0  0  0  0
  -27.1974  -17.3665   13.8856 H   0  0  0  0  0  0
  -26.1610  -20.4769   12.0790 H   0  0  0  0  0  0
  -26.7322  -21.6302   13.2702 H   0  0  0  0  0  0
  -25.3120  -20.6448   13.6123 H   0  0  0  0  0  0
  -27.7062  -22.3457   20.7864 H   0  0  0  0  0  0
  -27.7047  -23.0192   19.2030 H   0  0  0  0  0  0
  -29.4678  -18.9575   15.2682 H   0  0  0  0  0  0
  -29.4344  -20.6838   15.3132 H   0  0  0  0  0  0
  -28.4200  -16.6875   19.6516 H   0  0  0  0  0  0
  -28.1789  -17.6363   21.0714 H   0  0  0  0  0  0
  -26.9844  -20.7018   15.5846 H   0  0  0  0  0  0
  -26.9356  -18.9898   15.8254 H   0  0  0  0  0  0
  -30.4072  -17.3666   21.8542 H   0  0  0  0  0  0
  -31.0405  -17.0333   20.2777 H   0  0  0  0  0  0
  -29.2129  -24.8946   18.8003 H   0  0  0  0  0  0
  -30.4513  -25.2977   19.9581 H   0  0  0  0  0  0
  -30.1735  -16.6886   18.2686 H   0  0  0  0  0  0
  -28.1556  -19.5784   13.2162 H   0  0  0  0  0  0
  -30.3866  -22.9603   19.5609 H   0  0  0  0  0  0
  -29.1299  -15.1238   21.5840 H   0  0  0  0  0  0
  -28.8920  -25.7694   21.5482 H   0  0  0  0  0  0
  -29.3399  -23.2046   22.2608 H   0  0  0  0  0  0
  -30.7703  -23.8481   21.8206 H   0  0  0  0  0  0
  -30.5287  -22.2401   21.6939 H   0  0  0  0  0  0
  1 25  1  0  0  0
  1 30  2  0  0  0
  1 90  1  0  0  0
  2  3  1  0  0  0
  2 25  1  0  0  0
  2 93  1  0  0  0
  2 94  1  0  0  0
  3  4  1  0  0  0
  3 95  1  0  0  0
  3 96  1  0  0  0
  4  5  1  0  0  0
  4 97  1  0  0  0
  4 98  1  0  0  0
  5  6  1  0  0  0
  5 26  1  0  0  0
  5 99  1  0  0  0
  6 25  1  0  0  0
  6100  1  0  0  0
  6101  1  0  0  0
  7  8  2  0  0  0
  7 26  1  0  0  0
  7 29  1  0  0  0
  8  9  1  0  0  0
  8 22  1  0  0  0
  9 10  1  0  0  0
  9 27  2  0  0  0
 10 11  2  0  0  0
 10 15  1  0  0  0
 11 12  1  0  0  0
 11102  1  0  0  0
 12 13  2  0  0  0
 12103  1  0  0  0
 13 14  1  0  0  0
 13 31  1  0  0  0
 14 15  2  0  0  0
 14104  1  0  0  0
 15105  1  0  0  0
 16 17  2  0  0  0
 16 21  1  0  0  0
 16 31  1  0  0  0
 17 18  1  0  0  0
 17106  1  0  0  0
 18 19  2  0  0  0
 18107  1  0  0  0
 19 20  1  0  0  0
 19 24  1  0  0  0
 20 21  2  0  0  0
 20108  1  0  0  0
 21 23  1  0  0  0
 22 28  1  0  0  0
 22 32  2  0  0  0
 26 27  1  0  0  0
 28109  1  0  0  0
 28110  1  0  0  0
 29111  1  0  0  0
 29112  1  0  0  0
 33 34  1  0  0  0
 33 66  1  0  0  0
 33 70  2  0  0  0
 34 36  1  0  0  0
 34 59  1  0  0  0
 34113  1  0  0  0
 35 44  2  0  0  0
 35 45  1  0  0  0
 35 68  1  0  0  0
 36 56  1  0  0  0
 36114  1  0  0  0
 37 39  1  0  0  0
 37 47  1  0  0  0
 37 66  1  0  0  0
 37115  1  0  0  0
 38 43  2  0  0  0
 38 46  1  0  0  0
 38 47  1  0  0  0
 39 64  1  0  0  0
 39 67  2  0  0  0
 40 52  1  0  0  0
 40 53  2  0  0  0
 40 58  1  0  0  0
 41116  1  0  0  0
 41117  1  0  0  0
 41118  1  0  0  0
 41 48  1  0  0  0
 42 43  1  0  0  0
 42 66  1  0  0  0
 42119  1  0  0  0
 42120  1  0  0  0
 43 44  1  0  0  0
 44121  1  0  0  0
 45 46  2  0  0  0
 45122  1  0  0  0
 46123  1  0  0  0
 47124  1  0  0  0
 47125  1  0  0  0
 48 56  1  0  0  0
 48 65  1  0  0  0
 48126  1  0  0  0
 49 50  1  0  0  0
 49 53  1  0  0  0
 49 64  1  0  0  0
 49127  1  0  0  0
 50 51  1  0  0  0
 50128  1  0  0  0
 50129  1  0  0  0
 51 52  1  0  0  0
 51130  1  0  0  0
 51131  1  0  0  0
 52132  1  0  0  0
 52133  1  0  0  0
 53 54  1  0  0  0
 54 55  2  0  0  0
 54134  1  0  0  0
 55 57  1  0  0  0
 55135  1  0  0  0
 56 69  2  0  0  0
 57 58  2  0  0  0
 57136  1  0  0  0
 58137  1  0  0  0
 59 60  1  0  0  0
 59 61  1  0  0  0
 59 62  1  0  0  0
 60138  1  0  0  0
 60139  1  0  0  0
 60140  1  0  0  0
 61141  1  0  0  0
 61142  1  0  0  0
 61143  1  0  0  0
 62144  1  0  0  0
 62145  1  0  0  0
 62146  1  0  0  0
 63 65  1  0  0  0
 63147  1  0  0  0
 63148  1  0  0  0
 63149  1  0  0  0
 64150  1  0  0  0
 65151  1  0  0  0
 68 91  1  0  0  0
 71 73  2  0  0  0
 71 74  1  0  0  0
 71152  1  0  0  0
 72 73  1  0  0  0
 72 75  2  0  0  0
 72153  1  0  0  0
 73 81  1  0  0  0
 74 76  2  0  0  0
 74 82  1  0  0  0
 75 76  1  0  0  0
 75 83  1  0  0  0
 76 87  1  0  0  0
 77154  1  0  0  0
 77155  1  0  0  0
 77156  1  0  0  0
 77 87  1  0  0  0
 78 87  1  0  0  0
 78157  1  0  0  0
 78158  1  0  0  0
 78159  1  0  0  0
 79160  1  0  0  0
 79161  1  0  0  0
 79162  1  0  0  0
 79 88  1  0  0  0
 80 88  1  0  0  0
 80163  1  0  0  0
 80164  1  0  0  0
 80165  1  0  0  0
 81 89  1  0  0  0
 81166  1  0  0  0
 81167  1  0  0  0
 82 84  1  0  0  0
 82168  1  0  0  0
 82169  1  0  0  0
 83 85  1  0  0  0
 83170  1  0  0  0
 83171  1  0  0  0
 84 88  1  0  0  0
 84172  1  0  0  0
 84173  1  0  0  0
 85 90  1  0  0  0
 85174  1  0  0  0
 85175  1  0  0  0
 86 89  1  0  0  0
 86 91  1  0  0  0
 86176  1  0  0  0
 86177  1  0  0  0
 87178  1  0  0  0
 88179  1  0  0  0
 89 92  1  0  0  0
 89180  1  0  0  0
 90181  1  0  0  0
 91182  1  0  0  0
 92183  1  0  0  0
 92184  1  0  0  0
 92185  1  0  0  0
M  CHG  1  92   1
M  ISO  4   1 100  68 101  90 100  91 101
M  END
> <chiral flag>
0

> <version>
0

> <s_m_source_file>
/data/baiqing/PycharmProjects/Reinvent-master-3.2/result/LINK_invent/BTK/process_docking_weight1_custom_sum_contain_oxygen_bond_distance_aromatic_linkinvent_7_9_3/rearranged_h_0104.sdf

> <i_m_source_file_index>
54

> <r_mmod_Potential_Energy-OPLS-2005>
-307.543731689453

> <r_mmod_Stretch_Energy-OPLS-2005>
42.1424446105957

> <r_mmod_Bend_Energy-OPLS-2005>
112.679023742676

> <r_mmod_Torsional_Energy-OPLS-2005>
268.32861328125

> <r_mmod_Improper_Torsional_Energy-OPLS-2005>
6.51409530639648

> <r_mmod_Van_der_Waal_Energy-OPLS-2005>
140.619354248047

> <r_mmod_Electrostatic_Energy-OPLS-2005>
-384.056884765625

> <r_mmod_Solvation_Energy-OPLS-2005>
-503.125579833984

> <b_mmod_Minimization_Converged-OPLS-2005>
0

> <r_mmod_RMS_Derivative-OPLS-2005>
7.3088493347168

$$$$
54
                    3D
 Structure written by MMmdl.
156164  0  0  1  0            999 V2000
  -30.6165  -14.7559   20.4794 C   0  0  0  0  0  0
  -30.4336  -12.4688   19.4694 C   0  0  0  0  0  0
  -29.5111  -12.5072   18.2322 C   0  0  0  0  0  0
  -28.0381  -12.3272   18.6484 C   0  0  0  0  0  0
  -27.6381  -13.2332   19.8437 C   0  0  2  0  0  0
  -28.6833  -13.1762   20.9770 C   0  0  0  0  0  0
  -25.2487  -13.8188   20.5679 C   0  0  0  0  0  0
  -24.1788  -13.0430   20.9201 C   0  0  0  0  0  0
  -24.6390  -11.6911   20.8736 C   0  0  0  0  0  0
  -23.9055  -10.4291   21.0398 C   0  0  0  0  0  0
  -24.3604   -9.4209   21.9172 C   0  0  0  0  0  0
  -23.6282   -8.2242   22.0743 C   0  0  0  0  0  0
  -22.4266   -8.0267   21.3544 C   0  0  0  0  0  0
  -21.9901   -9.0237   20.4644 C   0  0  0  0  0  0
  -22.7224  -10.2121   20.3052 C   0  0  0  0  0  0
  -21.6855   -6.0717   22.5272 C   0  0  0  0  0  0
  -21.4016   -6.5624   23.8203 C   0  0  0  0  0  0
  -21.3666   -5.6781   24.9163 C   0  0  0  0  0  0
  -21.6055   -4.3042   24.7225 C   0  0  0  0  0  0
  -21.8822   -3.8133   23.4341 C   0  0  0  0  0  0
  -21.9196   -4.6945   22.3394 C   0  0  0  0  0  0
  -22.7815  -13.5207   21.1881 C   0  0  0  0  0  0
  -22.1666   -4.2137   21.0974 F   0  0  0  0  0  0
  -21.5634   -3.4527   25.7733 F   0  0  0  0  0  0
  -29.9780  -13.5373   20.3887 N   0  0  0  0  0  0
  -26.2917  -12.9405   20.3239 N   0  0  0  0  0  0
  -25.9321  -11.6545   20.5733 N   0  0  0  0  0  0
  -22.0474  -12.8196   22.0442 N   0  0  0  0  0  0
  -25.4181  -15.1916   20.4110 N   0  0  0  0  0  0
  -31.8153  -14.8342   20.2001 O   0  0  0  0  0  0
  -21.6645   -6.8861   21.4235 O   0  0  0  0  0  0
  -22.3498  -14.5512   20.6719 O   0  0  0  0  0  0
  -24.6333  -31.8551   23.1988 C   0  0  0  0  0  0
  -25.9164  -32.4746   23.8326 C   0  0  1  0  0  0
  -27.2042  -27.2441   20.1245 C   0  0  0  0  0  0
  -25.5955  -33.8552   24.2245 N   0  0  0  0  0  0
  -23.4282  -30.4827   21.5433 C   0  0  2  0  0  0
  -24.8724  -28.9339   20.1097 C   0  0  0  0  0  0
  -22.7502  -29.4610   22.4899 C   0  0  0  0  0  0
  -18.0295  -28.1385   22.8491 C   0  0  0  0  0  0
  -24.1495  -36.7278   23.2637 C   0  0  0  0  0  0
  -25.9782  -30.7640   21.3826 C   0  0  0  0  0  0
  -26.0483  -29.3873   20.7214 C   0  0  0  0  0  0
  -27.2183  -28.5562   20.7172 C   0  0  0  0  0  0
  -26.0073  -26.8781   19.4670 C   0  0  0  0  0  0
  -24.8592  -27.6886   19.4705 C   0  0  0  0  0  0
  -23.6456  -29.8229   20.1576 C   0  0  0  0  0  0
  -25.4121  -36.3065   24.0322 C   0  0  1  0  0  0
  -20.5891  -28.3701   23.1264 C   0  0  2  0  0  0
  -20.6776  -26.9415   22.5402 C   0  0  0  0  0  0
  -19.5748  -26.6387   21.5207 C   0  0  0  0  0  0
  -18.1933  -26.7926   22.1622 C   0  0  0  0  0  0
  -19.1546  -28.8859   23.2877 C   0  0  0  0  0  0
  -18.9470  -30.1454   23.8895 C   0  0  0  0  0  0
  -17.6475  -30.6588   24.0560 C   0  0  0  0  0  0
  -25.9064  -34.9434   23.5081 C   0  0  0  0  0  0
  -16.5360  -29.9086   23.6341 C   0  0  0  0  0  0
  -16.7278  -28.6502   23.0359 C   0  0  0  0  0  0
  -26.4523  -31.6581   25.0727 C   0  0  0  0  0  0
  -25.3738  -31.3755   26.1442 C   0  0  0  0  0  0
  -27.0354  -30.2979   24.6239 C   0  0  0  0  0  0
  -27.6063  -32.4331   25.7504 C   0  0  0  0  0  0
  -27.5579  -37.1790   24.8464 C   0  0  0  0  0  0
  -21.4206  -29.3047   22.3645 N   0  0  0  0  0  0
  -26.4295  -37.3767   23.9414 N   0  0  0  0  0  0
  -24.6990  -31.0514   22.0970 N   0  0  0  0  0  0
  -23.4206  -28.8137   23.2985 O   0  0  0  0  0  0
  -28.2773  -26.3151   20.1694 O   0  0  0  0  0  0
  -26.5635  -34.8911   22.4650 O   0  0  0  0  0  0
  -23.5481  -32.1373   23.7291 O   0  0  0  0  0  0
  -29.1347  -19.7476   21.2364 C   0  0  0  0  0  0
  -29.7387  -20.5686   19.2482 C   0  0  0  0  0  0
  -29.1226  -20.9457   20.4081 C   0  0  0  0  0  0
  -29.7995  -18.6878   20.6038 C   0  0  0  0  0  0
  -30.2705  -23.9786   21.0909 C   0  0  0  0  0  0
  -30.8849  -18.5303   18.3247 C   0  0  0  0  0  0
  -30.3641  -17.2897   21.1179 C   0  0  0  0  0  0
  -27.9517  -24.8466   20.3709 C   0  0  0  0  0  0
  -29.0236  -23.6204   20.2762 C   0  0  2  0  0  0
  -30.1459  -19.2283   19.3591 N   0  0  0  0  0  0
  -28.5420  -22.2425   20.7085 N   0  0  0  0  0  0
  -29.8666  -15.9039   20.7071 N   0  0  0  0  0  0
  -31.4746  -12.5980   19.1672 H   0  0  0  0  0  0
  -30.3833  -11.4963   19.9611 H   0  0  0  0  0  0
  -29.7953  -11.7287   17.5228 H   0  0  0  0  0  0
  -29.6339  -13.4580   17.7118 H   0  0  0  0  0  0
  -27.9000  -11.2800   18.9189 H   0  0  0  0  0  0
  -27.3794  -12.5100   17.7989 H   0  0  0  0  0  0
  -27.6290  -14.2525   19.4584 H   0  0  0  0  0  0
  -28.7272  -12.1795   21.4192 H   0  0  0  0  0  0
  -28.4175  -13.8568   21.7867 H   0  0  0  0  0  0
  -25.2746   -9.5691   22.4741 H   0  0  0  0  0  0
  -24.0005   -7.4641   22.7449 H   0  0  0  0  0  0
  -21.0828   -8.8742   19.8951 H   0  0  0  0  0  0
  -22.3662  -10.9652   19.6164 H   0  0  0  0  0  0
  -21.2012   -7.6136   23.9695 H   0  0  0  0  0  0
  -21.1491   -6.0514   25.9067 H   0  0  0  0  0  0
  -22.0603   -2.7595   23.2837 H   0  0  0  0  0  0
  -22.4088  -11.9864   22.4838 H   0  0  0  0  0  0
  -21.1099  -13.1226   22.2642 H   0  0  0  0  0  0
  -24.6520  -15.8460   20.5264 H   0  0  0  0  0  0
  -26.2628  -15.6322   20.0706 H   0  0  0  0  0  0
  -26.7223  -32.5389   23.1056 H   0  0  0  0  0  0
  -25.0098  -33.9680   25.0387 H   0  0  0  0  0  0
  -22.7265  -31.3072   21.4009 H   0  0  0  0  0  0
  -23.3754  -35.9612   23.3295 H   0  0  0  0  0  0
  -24.3581  -36.8904   22.2049 H   0  0  0  0  0  0
  -23.7252  -37.6479   23.6667 H   0  0  0  0  0  0
  -26.1246  -31.5273   20.6176 H   0  0  0  0  0  0
  -26.8527  -30.8053   22.0197 H   0  0  0  0  0  0
  -28.1158  -28.8981   21.2130 H   0  0  0  0  0  0
  -25.9179  -25.9470   18.9311 H   0  0  0  0  0  0
  -23.9634  -27.3419   18.9736 H   0  0  0  0  0  0
  -23.7699  -30.6021   19.4039 H   0  0  0  0  0  0
  -22.7620  -29.2596   19.8517 H   0  0  0  0  0  0
  -25.1306  -36.1894   25.0813 H   0  0  0  0  0  0
  -21.0003  -28.3275   24.1375 H   0  0  0  0  0  0
  -20.5675  -26.2305   23.3607 H   0  0  0  0  0  0
  -21.6650  -26.7432   22.1191 H   0  0  0  0  0  0
  -19.6908  -25.6304   21.1228 H   0  0  0  0  0  0
  -19.6680  -27.3207   20.6749 H   0  0  0  0  0  0
  -17.4200  -26.6678   21.4030 H   0  0  0  0  0  0
  -18.0332  -26.0069   22.9021 H   0  0  0  0  0  0
  -19.7944  -30.7274   24.2262 H   0  0  0  0  0  0
  -17.5022  -31.6268   24.5162 H   0  0  0  0  0  0
  -15.5354  -30.2983   23.7670 H   0  0  0  0  0  0
  -15.8674  -28.0816   22.7081 H   0  0  0  0  0  0
  -24.5933  -30.7073   25.7797 H   0  0  0  0  0  0
  -24.8912  -32.2929   26.4813 H   0  0  0  0  0  0
  -25.8056  -30.8990   27.0249 H   0  0  0  0  0  0
  -26.2937  -29.6726   24.1255 H   0  0  0  0  0  0
  -27.3994  -29.7256   25.4784 H   0  0  0  0  0  0
  -27.8845  -30.4224   23.9514 H   0  0  0  0  0  0
  -27.2658  -33.3641   26.2045 H   0  0  0  0  0  0
  -28.3892  -32.6864   25.0349 H   0  0  0  0  0  0
  -28.0702  -31.8476   26.5447 H   0  0  0  0  0  0
  -28.2593  -38.0087   24.7511 H   0  0  0  0  0  0
  -28.1070  -36.2617   24.6288 H   0  0  0  0  0  0
  -27.2293  -37.1445   25.8864 H   0  0  0  0  0  0
  -20.9382  -29.8793   21.6874 H   0  0  0  0  0  0
  -26.0156  -38.2838   24.1413 H   0  0  0  0  0  0
  -28.7489  -19.6828   22.2457 H   0  0  0  0  0  0
  -29.9381  -21.1288   18.3442 H   0  0  0  0  0  0
  -30.7192  -24.9014   20.7235 H   0  0  0  0  0  0
  -31.0303  -23.1985   21.0337 H   0  0  0  0  0  0
  -30.0235  -24.1333   22.1417 H   0  0  0  0  0  0
  -31.9539  -18.6665   18.4847 H   0  0  0  0  0  0
  -30.6212  -18.9251   17.3433 H   0  0  0  0  0  0
  -30.6549  -17.4644   18.3403 H   0  0  0  0  0  0
  -30.2733  -17.2959   22.2045 H   0  0  0  0  0  0
  -31.4443  -17.3066   20.9603 H   0  0  0  0  0  0
  -27.4820  -24.7921   21.3532 H   0  0  0  0  0  0
  -27.1769  -24.5489   19.6701 H   0  0  0  0  0  0
  -29.3228  -23.5380   19.2299 H   0  0  0  0  0  0
  -27.9529  -22.2647   21.5377 H   0  0  0  0  0  0
  -28.8717  -15.7644   20.7884 H   0  0  0  0  0  0
  1 25  1  0  0  0
  1 30  2  0  0  0
  1 82  1  0  0  0
  2  3  1  0  0  0
  2 25  1  0  0  0
  2 83  1  0  0  0
  2 84  1  0  0  0
  3  4  1  0  0  0
  3 85  1  0  0  0
  3 86  1  0  0  0
  4  5  1  0  0  0
  4 87  1  0  0  0
  4 88  1  0  0  0
  5  6  1  0  0  0
  5 26  1  0  0  0
  5 89  1  0  0  0
  6 25  1  0  0  0
  6 90  1  0  0  0
  6 91  1  0  0  0
  7  8  2  0  0  0
  7 26  1  0  0  0
  7 29  1  0  0  0
  8  9  1  0  0  0
  8 22  1  0  0  0
  9 10  1  0  0  0
  9 27  2  0  0  0
 10 11  2  0  0  0
 10 15  1  0  0  0
 11 12  1  0  0  0
 11 92  1  0  0  0
 12 13  2  0  0  0
 12 93  1  0  0  0
 13 14  1  0  0  0
 13 31  1  0  0  0
 14 15  2  0  0  0
 14 94  1  0  0  0
 15 95  1  0  0  0
 16 17  2  0  0  0
 16 21  1  0  0  0
 16 31  1  0  0  0
 17 18  1  0  0  0
 17 96  1  0  0  0
 18 19  2  0  0  0
 18 97  1  0  0  0
 19 20  1  0  0  0
 19 24  1  0  0  0
 20 21  2  0  0  0
 20 98  1  0  0  0
 21 23  1  0  0  0
 22 28  1  0  0  0
 22 32  2  0  0  0
 26 27  1  0  0  0
 28 99  1  0  0  0
 28100  1  0  0  0
 29101  1  0  0  0
 29102  1  0  0  0
 33 34  1  0  0  0
 33 66  1  0  0  0
 33 70  2  0  0  0
 34 36  1  0  0  0
 34 59  1  0  0  0
 34103  1  0  0  0
 35 44  2  0  0  0
 35 45  1  0  0  0
 35 68  1  0  0  0
 36 56  1  0  0  0
 36104  1  0  0  0
 37 39  1  0  0  0
 37 47  1  0  0  0
 37 66  1  0  0  0
 37105  1  0  0  0
 38 43  2  0  0  0
 38 46  1  0  0  0
 38 47  1  0  0  0
 39 64  1  0  0  0
 39 67  2  0  0  0
 40 52  1  0  0  0
 40 53  2  0  0  0
 40 58  1  0  0  0
 41106  1  0  0  0
 41107  1  0  0  0
 41108  1  0  0  0
 41 48  1  0  0  0
 42 43  1  0  0  0
 42 66  1  0  0  0
 42109  1  0  0  0
 42110  1  0  0  0
 43 44  1  0  0  0
 44111  1  0  0  0
 45 46  2  0  0  0
 45112  1  0  0  0
 46113  1  0  0  0
 47114  1  0  0  0
 47115  1  0  0  0
 48 56  1  0  0  0
 48 65  1  0  0  0
 48116  1  0  0  0
 49 50  1  0  0  0
 49 53  1  0  0  0
 49 64  1  0  0  0
 49117  1  0  0  0
 50 51  1  0  0  0
 50118  1  0  0  0
 50119  1  0  0  0
 51 52  1  0  0  0
 51120  1  0  0  0
 51121  1  0  0  0
 52122  1  0  0  0
 52123  1  0  0  0
 53 54  1  0  0  0
 54 55  2  0  0  0
 54124  1  0  0  0
 55 57  1  0  0  0
 55125  1  0  0  0
 56 69  2  0  0  0
 57 58  2  0  0  0
 57126  1  0  0  0
 58127  1  0  0  0
 59 60  1  0  0  0
 59 61  1  0  0  0
 59 62  1  0  0  0
 60128  1  0  0  0
 60129  1  0  0  0
 60130  1  0  0  0
 61131  1  0  0  0
 61132  1  0  0  0
 61133  1  0  0  0
 62134  1  0  0  0
 62135  1  0  0  0
 62136  1  0  0  0
 63 65  1  0  0  0
 63137  1  0  0  0
 63138  1  0  0  0
 63139  1  0  0  0
 64140  1  0  0  0
 65141  1  0  0  0
 68 78  1  0  0  0
 71 73  1  0  0  0
 71 74  2  0  0  0
 71142  1  0  0  0
 72 73  2  0  0  0
 72 80  1  0  0  0
 72143  1  0  0  0
 73 81  1  0  0  0
 74 77  1  0  0  0
 74 80  1  0  0  0
 75144  1  0  0  0
 75145  1  0  0  0
 75146  1  0  0  0
 75 79  1  0  0  0
 76 80  1  0  0  0
 76147  1  0  0  0
 76148  1  0  0  0
 76149  1  0  0  0
 77 82  1  0  0  0
 77150  1  0  0  0
 77151  1  0  0  0
 78 79  1  0  0  0
 78152  1  0  0  0
 78153  1  0  0  0
 79 81  1  0  0  0
 79154  1  0  0  0
 81155  1  0  0  0
 82156  1  0  0  0
M  ISO  4   1 100  68 101  78 101  82 100
M  END
> <chiral flag>
0

> <version>
0

> <s_m_source_file>
/data/baiqing/PycharmProjects/Reinvent-master-3.2/result/LINK_invent/BTK/process_docking_weight1_custom_sum_contain_oxygen_bond_distance_aromatic_linkinvent_7_9_3/rearranged_h_0104.sdf

> <i_m_source_file_index>
55

> <r_mmod_Potential_Energy-OPLS-2005>
84.6657333374023

> <r_mmod_Stretch_Energy-OPLS-2005>
123.221939086914

> <r_mmod_Bend_Energy-OPLS-2005>
192.217834472656

> <r_mmod_Torsional_Energy-OPLS-2005>
226.286987304688

> <r_mmod_Improper_Torsional_Energy-OPLS-2005>
6.49810743331909

> <r_mmod_Van_der_Waal_Energy-OPLS-2005>
117.353668212891

> <r_mmod_Electrostatic_Energy-OPLS-2005>
-454.531372070312

> <r_mmod_Solvation_Energy-OPLS-2005>
-222.216918945312

> <b_mmod_Minimization_Converged-OPLS-2005>
0

> <r_mmod_RMS_Derivative-OPLS-2005>
2.28861021995544

$$$$
55
                    3D
 Structure written by MMmdl.
171179  0  0  1  0            999 V2000
  -30.6385  -14.5785   20.5040 C   0  0  0  0  0  0
  -30.4312  -12.3487   19.4575 C   0  0  0  0  0  0
  -29.5077  -12.5015   18.2279 C   0  0  0  0  0  0
  -28.0281  -12.3526   18.6334 C   0  0  0  0  0  0
  -27.6570  -13.2124   19.8714 C   0  0  2  0  0  0
  -28.6974  -13.0412   21.0033 C   0  0  0  0  0  0
  -25.2561  -13.8161   20.5673 C   0  0  0  0  0  0
  -24.1821  -13.0433   20.9171 C   0  0  0  0  0  0
  -24.6381  -11.6904   20.8730 C   0  0  0  0  0  0
  -23.9048  -10.4288   21.0403 C   0  0  0  0  0  0
  -24.3605   -9.4205   21.9178 C   0  0  0  0  0  0
  -23.6283   -8.2245   22.0753 C   0  0  0  0  0  0
  -22.4262   -8.0277   21.3549 C   0  0  0  0  0  0
  -21.9896   -9.0248   20.4646 C   0  0  0  0  0  0
  -22.7222  -10.2123   20.3052 C   0  0  0  0  0  0
  -21.6856   -6.0725   22.5276 C   0  0  0  0  0  0
  -21.4018   -6.5634   23.8199 C   0  0  0  0  0  0
  -21.3659   -5.6787   24.9169 C   0  0  0  0  0  0
  -21.6045   -4.3055   24.7221 C   0  0  0  0  0  0
  -21.8822   -3.8137   23.4347 C   0  0  0  0  0  0
  -21.9190   -4.6953   22.3396 C   0  0  0  0  0  0
  -22.7843  -13.5231   21.1840 C   0  0  0  0  0  0
  -22.1660   -4.2139   21.0978 F   0  0  0  0  0  0
  -21.5627   -3.4534   25.7735 F   0  0  0  0  0  0
  -30.0237  -13.3596   20.4513 N   0  0  0  0  0  0
  -26.2998  -12.9342   20.3344 N   0  0  0  0  0  0
  -25.9313  -11.6498   20.5758 N   0  0  0  0  0  0
  -22.0481  -12.8229   22.0402 N   0  0  0  0  0  0
  -25.4280  -15.1871   20.4079 N   0  0  0  0  0  0
  -31.7797  -14.7578   20.0699 O   0  0  0  0  0  0
  -21.6639   -6.8871   21.4236 O   0  0  0  0  0  0
  -22.3529  -14.5534   20.6685 O   0  0  0  0  0  0
  -24.6206  -31.8624   23.2019 C   0  0  0  0  0  0
  -25.9068  -32.4800   23.8361 C   0  0  1  0  0  0
  -27.2300  -27.3603   20.1202 C   0  0  0  0  0  0
  -25.5897  -33.8599   24.2290 N   0  0  0  0  0  0
  -23.4131  -30.4850   21.5422 C   0  0  2  0  0  0
  -24.8602  -28.9403   20.1121 C   0  0  0  0  0  0
  -22.7448  -29.4646   22.4932 C   0  0  0  0  0  0
  -18.0297  -28.1391   22.8501 C   0  0  0  0  0  0
  -24.1485  -36.7307   23.2646 C   0  0  0  0  0  0
  -25.9476  -30.8068   21.3640 C   0  0  0  0  0  0
  -26.0237  -29.4340   20.7147 C   0  0  0  0  0  0
  -27.2114  -28.6542   20.7109 C   0  0  0  0  0  0
  -26.0491  -26.9049   19.4934 C   0  0  0  0  0  0
  -24.8716  -27.6786   19.4940 C   0  0  0  0  0  0
  -23.6260  -29.8162   20.1575 C   0  0  0  0  0  0
  -25.4106  -36.3106   24.0346 C   0  0  1  0  0  0
  -20.5889  -28.3691   23.1288 C   0  0  2  0  0  0
  -20.6785  -26.9415   22.5410 C   0  0  0  0  0  0
  -19.5757  -26.6381   21.5219 C   0  0  0  0  0  0
  -18.1935  -26.7950   22.1620 C   0  0  0  0  0  0
  -19.1545  -28.8858   23.2898 C   0  0  0  0  0  0
  -18.9473  -30.1466   23.8905 C   0  0  0  0  0  0
  -17.6469  -30.6591   24.0572 C   0  0  0  0  0  0
  -25.9038  -34.9472   23.5122 C   0  0  0  0  0  0
  -16.5365  -29.9091   23.6328 C   0  0  0  0  0  0
  -16.7283  -28.6512   23.0347 C   0  0  0  0  0  0
  -26.4480  -31.6598   25.0715 C   0  0  0  0  0  0
  -25.3734  -31.3724   26.1448 C   0  0  0  0  0  0
  -27.0317  -30.3044   24.6129 C   0  0  0  0  0  0
  -27.6059  -32.4321   25.7479 C   0  0  0  0  0  0
  -27.5573  -37.1802   24.8473 C   0  0  0  0  0  0
  -21.4164  -29.3061   22.3696 N   0  0  0  0  0  0
  -26.4290  -37.3794   23.9425 N   0  0  0  0  0  0
  -24.6797  -31.0684   22.0935 N   0  0  0  0  0  0
  -23.4203  -28.8188   23.2991 O   0  0  0  0  0  0
  -28.3753  -26.5656   20.1530 O   0  0  0  0  0  0
  -26.5610  -34.8937   22.4683 O   0  0  0  0  0  0
  -23.5372  -32.1394   23.7364 O   0  0  0  0  0  0
  -28.9647  -23.0870   21.8027 C   0  0  0  0  0  0
  -29.3760  -22.9541   19.3132 C   0  0  0  0  0  0
  -29.1187  -24.6165   21.5059 C   0  0  0  0  0  0
  -28.5612  -24.2768   19.0744 C   0  0  0  0  0  0
  -28.9397  -22.1349   20.5621 C   0  0  1  0  0  0
  -28.2327  -25.1174   20.3456 C   0  0  2  0  0  0
  -28.2419  -19.8238   23.3035 C   0  0  0  0  0  0
  -27.1213  -18.1285   21.7932 C   0  0  0  0  0  0
  -30.6927  -17.9938   22.3341 C   0  0  0  0  0  0
  -29.7895  -16.9612   20.1314 C   0  0  0  0  0  0
  -27.9085  -19.4494   21.8418 C   0  0  0  0  0  0
  -30.1492  -18.2891   20.9234 C   0  0  1  0  0  0
  -29.1030  -19.5082   20.8238 C   0  0  2  0  0  0
  -29.8320  -15.6283   20.8166 N   0  0  0  0  0  0
  -29.7603  -20.8763   20.7892 N   0  3  0  0  0  0
  -31.4770  -12.4537   19.1619 H   0  0  0  0  0  0
  -30.3432  -11.3480   19.8830 H   0  0  0  0  0  0
  -29.7647  -11.7599   17.4704 H   0  0  0  0  0  0
  -29.6650  -13.4771   17.7652 H   0  0  0  0  0  0
  -27.8517  -11.2985   18.8494 H   0  0  0  0  0  0
  -27.3795  -12.6032   17.7933 H   0  0  0  0  0  0
  -27.6847  -14.2520   19.5453 H   0  0  0  0  0  0
  -28.6874  -12.0168   21.3792 H   0  0  0  0  0  0
  -28.4519  -13.6727   21.8589 H   0  0  0  0  0  0
  -25.2752   -9.5682   22.4748 H   0  0  0  0  0  0
  -23.9987   -7.4640   22.7481 H   0  0  0  0  0  0
  -21.0826   -8.8765   19.8956 H   0  0  0  0  0  0
  -22.3684  -10.9659   19.6157 H   0  0  0  0  0  0
  -21.2022   -7.6143   23.9706 H   0  0  0  0  0  0
  -21.1476   -6.0519   25.9070 H   0  0  0  0  0  0
  -22.0603   -2.7602   23.2846 H   0  0  0  0  0  0
  -22.4099  -11.9884   22.4781 H   0  0  0  0  0  0
  -21.1102  -13.1261   22.2608 H   0  0  0  0  0  0
  -24.6646  -15.8437   20.5278 H   0  0  0  0  0  0
  -26.2796  -15.6238   20.0816 H   0  0  0  0  0  0
  -26.7126  -32.5494   23.1110 H   0  0  0  0  0  0
  -25.0089  -33.9762   25.0466 H   0  0  0  0  0  0
  -22.7065  -31.3051   21.3968 H   0  0  0  0  0  0
  -23.3763  -35.9620   23.3306 H   0  0  0  0  0  0
  -24.3580  -36.8919   22.2063 H   0  0  0  0  0  0
  -23.7207  -37.6505   23.6643 H   0  0  0  0  0  0
  -26.0680  -31.5654   20.5891 H   0  0  0  0  0  0
  -26.8333  -30.8623   21.9848 H   0  0  0  0  0  0
  -28.1062  -29.0291   21.1883 H   0  0  0  0  0  0
  -26.0280  -25.9444   18.9995 H   0  0  0  0  0  0
  -23.9808  -27.2979   19.0152 H   0  0  0  0  0  0
  -23.7457  -30.5898   19.3976 H   0  0  0  0  0  0
  -22.7466  -29.2433   19.8568 H   0  0  0  0  0  0
  -25.1273  -36.1965   25.0836 H   0  0  0  0  0  0
  -21.0012  -28.3265   24.1394 H   0  0  0  0  0  0
  -20.5697  -26.2301   23.3609 H   0  0  0  0  0  0
  -21.6655  -26.7449   22.1198 H   0  0  0  0  0  0
  -19.6920  -25.6290   21.1247 H   0  0  0  0  0  0
  -19.6696  -27.3213   20.6769 H   0  0  0  0  0  0
  -17.4210  -26.6728   21.4016 H   0  0  0  0  0  0
  -18.0310  -26.0085   22.9001 H   0  0  0  0  0  0
  -19.7938  -30.7295   24.2265 H   0  0  0  0  0  0
  -17.5013  -31.6272   24.5180 H   0  0  0  0  0  0
  -15.5366  -30.2991   23.7636 H   0  0  0  0  0  0
  -15.8689  -28.0828   22.7038 H   0  0  0  0  0  0
  -24.5890  -30.7099   25.7778 H   0  0  0  0  0  0
  -24.8948  -32.2888   26.4901 H   0  0  0  0  0  0
  -25.8065  -30.8870   27.0202 H   0  0  0  0  0  0
  -26.2868  -29.6802   24.1170 H   0  0  0  0  0  0
  -27.4097  -29.7283   25.4588 H   0  0  0  0  0  0
  -27.8701  -30.4408   23.9295 H   0  0  0  0  0  0
  -27.2675  -33.3620   26.2070 H   0  0  0  0  0  0
  -28.3847  -32.6872   25.0282 H   0  0  0  0  0  0
  -28.0741  -31.8423   26.5376 H   0  0  0  0  0  0
  -28.2590  -38.0096   24.7520 H   0  0  0  0  0  0
  -28.1058  -36.2632   24.6275 H   0  0  0  0  0  0
  -27.2302  -37.1439   25.8878 H   0  0  0  0  0  0
  -20.9325  -29.8771   21.6911 H   0  0  0  0  0  0
  -26.0187  -38.2873   24.1426 H   0  0  0  0  0  0
  -28.0481  -22.9313   22.3720 H   0  0  0  0  0  0
  -29.7740  -22.8052   22.4766 H   0  0  0  0  0  0
  -30.4309  -23.2150   19.4109 H   0  0  0  0  0  0
  -29.3090  -22.3335   18.4197 H   0  0  0  0  0  0
  -30.1616  -24.8362   21.2691 H   0  0  0  0  0  0
  -28.8968  -25.1825   22.4110 H   0  0  0  0  0  0
  -27.6267  -24.0349   18.5672 H   0  0  0  0  0  0
  -29.1170  -24.8955   18.3699 H   0  0  0  0  0  0
  -27.9040  -21.8550   20.3714 H   0  0  0  0  0  0
  -27.2126  -24.8825   20.6540 H   0  0  0  0  0  0
  -27.3273  -20.0476   23.8535 H   0  0  0  0  0  0
  -28.8723  -20.7075   23.3806 H   0  0  0  0  0  0
  -28.7318  -19.0190   23.8488 H   0  0  0  0  0  0
  -26.2650  -18.1574   22.4684 H   0  0  0  0  0  0
  -27.7293  -17.2743   22.0897 H   0  0  0  0  0  0
  -26.7362  -17.9368   20.7917 H   0  0  0  0  0  0
  -31.5892  -17.3736   22.2853 H   0  0  0  0  0  0
  -29.9689  -17.4525   22.9417 H   0  0  0  0  0  0
  -30.9684  -18.9069   22.8610 H   0  0  0  0  0  0
  -30.4311  -16.9113   19.2482 H   0  0  0  0  0  0
  -28.7867  -17.0541   19.7140 H   0  0  0  0  0  0
  -27.1835  -20.1966   21.5222 H   0  0  0  0  0  0
  -31.0236  -18.6575   20.3846 H   0  0  0  0  0  0
  -28.6568  -19.4269   19.8308 H   0  0  0  0  0  0
  -28.9640  -15.3465   21.2478 H   0  0  0  0  0  0
  -30.2747  -20.9986   21.6460 H   0  0  0  0  0  0
  -30.4489  -20.8483   20.0535 H   0  0  0  0  0  0
  1 25  1  0  0  0
  1 30  2  0  0  0
  1 84  1  0  0  0
  2  3  1  0  0  0
  2 25  1  0  0  0
  2 86  1  0  0  0
  2 87  1  0  0  0
  3  4  1  0  0  0
  3 88  1  0  0  0
  3 89  1  0  0  0
  4  5  1  0  0  0
  4 90  1  0  0  0
  4 91  1  0  0  0
  5  6  1  0  0  0
  5 26  1  0  0  0
  5 92  1  0  0  0
  6 25  1  0  0  0
  6 93  1  0  0  0
  6 94  1  0  0  0
  7  8  2  0  0  0
  7 26  1  0  0  0
  7 29  1  0  0  0
  8  9  1  0  0  0
  8 22  1  0  0  0
  9 10  1  0  0  0
  9 27  2  0  0  0
 10 11  2  0  0  0
 10 15  1  0  0  0
 11 12  1  0  0  0
 11 95  1  0  0  0
 12 13  2  0  0  0
 12 96  1  0  0  0
 13 14  1  0  0  0
 13 31  1  0  0  0
 14 15  2  0  0  0
 14 97  1  0  0  0
 15 98  1  0  0  0
 16 17  2  0  0  0
 16 21  1  0  0  0
 16 31  1  0  0  0
 17 18  1  0  0  0
 17 99  1  0  0  0
 18 19  2  0  0  0
 18100  1  0  0  0
 19 20  1  0  0  0
 19 24  1  0  0  0
 20 21  2  0  0  0
 20101  1  0  0  0
 21 23  1  0  0  0
 22 28  1  0  0  0
 22 32  2  0  0  0
 26 27  1  0  0  0
 28102  1  0  0  0
 28103  1  0  0  0
 29104  1  0  0  0
 29105  1  0  0  0
 33 34  1  0  0  0
 33 66  1  0  0  0
 33 70  2  0  0  0
 34 36  1  0  0  0
 34 59  1  0  0  0
 34106  1  0  0  0
 35 44  2  0  0  0
 35 45  1  0  0  0
 35 68  1  0  0  0
 36 56  1  0  0  0
 36107  1  0  0  0
 37 39  1  0  0  0
 37 47  1  0  0  0
 37 66  1  0  0  0
 37108  1  0  0  0
 38 43  2  0  0  0
 38 46  1  0  0  0
 38 47  1  0  0  0
 39 64  1  0  0  0
 39 67  2  0  0  0
 40 52  1  0  0  0
 40 53  2  0  0  0
 40 58  1  0  0  0
 41109  1  0  0  0
 41110  1  0  0  0
 41111  1  0  0  0
 41 48  1  0  0  0
 42 43  1  0  0  0
 42 66  1  0  0  0
 42112  1  0  0  0
 42113  1  0  0  0
 43 44  1  0  0  0
 44114  1  0  0  0
 45 46  2  0  0  0
 45115  1  0  0  0
 46116  1  0  0  0
 47117  1  0  0  0
 47118  1  0  0  0
 48 56  1  0  0  0
 48 65  1  0  0  0
 48119  1  0  0  0
 49 50  1  0  0  0
 49 53  1  0  0  0
 49 64  1  0  0  0
 49120  1  0  0  0
 50 51  1  0  0  0
 50121  1  0  0  0
 50122  1  0  0  0
 51 52  1  0  0  0
 51123  1  0  0  0
 51124  1  0  0  0
 52125  1  0  0  0
 52126  1  0  0  0
 53 54  1  0  0  0
 54 55  2  0  0  0
 54127  1  0  0  0
 55 57  1  0  0  0
 55128  1  0  0  0
 56 69  2  0  0  0
 57 58  2  0  0  0
 57129  1  0  0  0
 58130  1  0  0  0
 59 60  1  0  0  0
 59 61  1  0  0  0
 59 62  1  0  0  0
 60131  1  0  0  0
 60132  1  0  0  0
 60133  1  0  0  0
 61134  1  0  0  0
 61135  1  0  0  0
 61136  1  0  0  0
 62137  1  0  0  0
 62138  1  0  0  0
 62139  1  0  0  0
 63 65  1  0  0  0
 63140  1  0  0  0
 63141  1  0  0  0
 63142  1  0  0  0
 64143  1  0  0  0
 65144  1  0  0  0
 68 76  1  0  0  0
 71 73  1  0  0  0
 71 75  1  0  0  0
 71145  1  0  0  0
 71146  1  0  0  0
 72 74  1  0  0  0
 72 75  1  0  0  0
 72147  1  0  0  0
 72148  1  0  0  0
 73 76  1  0  0  0
 73149  1  0  0  0
 73150  1  0  0  0
 74 76  1  0  0  0
 74151  1  0  0  0
 74152  1  0  0  0
 75 85  1  0  0  0
 75153  1  0  0  0
 76154  1  0  0  0
 77155  1  0  0  0
 77156  1  0  0  0
 77157  1  0  0  0
 77 81  1  0  0  0
 78 81  1  0  0  0
 78158  1  0  0  0
 78159  1  0  0  0
 78160  1  0  0  0
 79161  1  0  0  0
 79162  1  0  0  0
 79163  1  0  0  0
 79 82  1  0  0  0
 80 82  1  0  0  0
 80 84  1  0  0  0
 80164  1  0  0  0
 80165  1  0  0  0
 81 83  1  0  0  0
 81166  1  0  0  0
 82 83  1  0  0  0
 82167  1  0  0  0
 83 85  1  0  0  0
 83168  1  0  0  0
 84169  1  0  0  0
 85170  1  0  0  0
 85171  1  0  0  0
M  CHG  1  85   1
M  ISO  4   1 100  68 101  76 101  84 100
M  END
> <chiral flag>
0

> <version>
0

> <s_m_source_file>
/data/baiqing/PycharmProjects/Reinvent-master-3.2/result/LINK_invent/BTK/process_docking_weight1_custom_sum_contain_oxygen_bond_distance_aromatic_linkinvent_7_9_3/rearranged_h_0104.sdf

> <i_m_source_file_index>
56

> <r_mmod_Potential_Energy-OPLS-2005>
-10.4185819625854

> <r_mmod_Stretch_Energy-OPLS-2005>
70.7586441040039

> <r_mmod_Bend_Energy-OPLS-2005>
143.367614746094

> <r_mmod_Torsional_Energy-OPLS-2005>
334.352722167969

> <r_mmod_Improper_Torsional_Energy-OPLS-2005>
7.93168210983276

> <r_mmod_Van_der_Waal_Energy-OPLS-2005>
128.913070678711

> <r_mmod_Electrostatic_Energy-OPLS-2005>
-275.487335205078

> <r_mmod_Solvation_Energy-OPLS-2005>
-451.525238037109

> <b_mmod_Minimization_Converged-OPLS-2005>
0

> <r_mmod_RMS_Derivative-OPLS-2005>
2.0989978313446

$$$$
56
                    3D
 Structure written by MMmdl.
158165  0  0  1  0            999 V2000
  -30.4429  -15.2456   20.3412 C   0  0  0  0  0  0
  -30.4381  -12.7828   19.5398 C   0  0  0  0  0  0
  -29.5421  -12.5906   18.2903 C   0  0  0  0  0  0
  -28.0853  -12.3224   18.7065 C   0  0  0  0  0  0
  -27.6203  -13.2802   19.8329 C   0  0  2  0  0  0
  -28.6538  -13.4367   20.9716 C   0  0  0  0  0  0
  -25.2412  -13.8256   20.5745 C   0  0  0  0  0  0
  -24.1748  -13.0459   20.9250 C   0  0  0  0  0  0
  -24.6403  -11.6956   20.8742 C   0  0  0  0  0  0
  -23.9090  -10.4296   21.0379 C   0  0  0  0  0  0
  -24.3641   -9.4222   21.9164 C   0  0  0  0  0  0
  -23.6312   -8.2263   22.0749 C   0  0  0  0  0  0
  -22.4297   -8.0267   21.3531 C   0  0  0  0  0  0
  -21.9917   -9.0254   20.4656 C   0  0  0  0  0  0
  -22.7260  -10.2133   20.3048 C   0  0  0  0  0  0
  -21.6859   -6.0728   22.5267 C   0  0  0  0  0  0
  -21.4031   -6.5637   23.8201 C   0  0  0  0  0  0
  -21.3667   -5.6787   24.9158 C   0  0  0  0  0  0
  -21.6060   -4.3048   24.7215 C   0  0  0  0  0  0
  -21.8825   -3.8147   23.4332 C   0  0  0  0  0  0
  -21.9192   -4.6958   22.3389 C   0  0  0  0  0  0
  -22.7757  -13.5220   21.1887 C   0  0  0  0  0  0
  -22.1653   -4.2141   21.0965 F   0  0  0  0  0  0
  -21.5627   -3.4540   25.7731 F   0  0  0  0  0  0
  -29.8971  -13.9297   20.3603 N   0  0  0  0  0  0
  -26.2851  -12.9545   20.3252 N   0  0  0  0  0  0
  -25.9352  -11.6645   20.5724 N   0  0  0  0  0  0
  -22.0411  -12.8191   22.0429 N   0  0  0  0  0  0
  -25.4079  -15.1988   20.4163 N   0  0  0  0  0  0
  -31.6357  -15.2626   20.0118 O   0  0  0  0  0  0
  -21.6657   -6.8872   21.4225 O   0  0  0  0  0  0
  -22.3431  -14.5515   20.6714 O   0  0  0  0  0  0
  -24.6621  -31.8246   23.1705 C   0  0  0  0  0  0
  -25.9304  -32.4595   23.8164 C   0  0  1  0  0  0
  -27.2098  -26.9219   20.1648 C   0  0  0  0  0  0
  -25.5959  -33.8410   24.2052 N   0  0  0  0  0  0
  -23.4765  -30.4347   21.5208 C   0  0  2  0  0  0
  -24.9284  -28.8276   20.1054 C   0  0  0  0  0  0
  -22.7669  -29.4425   22.4795 C   0  0  0  0  0  0
  -18.0317  -28.1428   22.8470 C   0  0  0  0  0  0
  -24.1479  -36.7197   23.2650 C   0  0  0  0  0  0
  -26.0462  -30.6268   21.4029 C   0  0  0  0  0  0
  -26.1129  -29.2175   20.7424 C   0  0  0  0  0  0
  -27.2473  -28.2850   20.7508 C   0  0  0  0  0  0
  -26.0083  -26.7053   19.4528 C   0  0  0  0  0  0
  -24.9018  -27.5918   19.4410 C   0  0  0  0  0  0
  -23.7141  -29.7535   20.1458 C   0  0  0  0  0  0
  -25.4128  -36.2968   24.0294 C   0  0  1  0  0  0
  -20.5937  -28.3746   23.1215 C   0  0  2  0  0  0
  -20.6788  -26.9431   22.5426 C   0  0  0  0  0  0
  -19.5762  -26.6384   21.5233 C   0  0  0  0  0  0
  -18.1940  -26.7963   22.1636 C   0  0  0  0  0  0
  -19.1579  -28.8918   23.2825 C   0  0  0  0  0  0
  -18.9492  -30.1509   23.8852 C   0  0  0  0  0  0
  -17.6483  -30.6620   24.0558 C   0  0  0  0  0  0
  -25.9099  -34.9356   23.4999 C   0  0  0  0  0  0
  -16.5375  -29.9105   23.6355 C   0  0  0  0  0  0
  -16.7302  -28.6529   23.0367 C   0  0  0  0  0  0
  -26.4540  -31.6557   25.0707 C   0  0  0  0  0  0
  -25.3627  -31.3847   26.1336 C   0  0  0  0  0  0
  -27.0426  -30.2915   24.6463 C   0  0  0  0  0  0
  -27.6018  -32.4372   25.7499 C   0  0  0  0  0  0
  -27.5564  -37.1756   24.8465 C   0  0  0  0  0  0
  -21.4342  -29.3023   22.3556 N   0  0  0  0  0  0
  -26.4274  -37.3714   23.9414 N   0  0  0  0  0  0
  -24.7496  -30.9881   22.0842 N   0  0  0  0  0  0
  -23.4224  -28.7989   23.3039 O   0  0  0  0  0  0
  -28.1982  -25.8017   20.2603 O   0  0  0  0  0  0
  -26.5735  -34.8899   22.4609 O   0  0  0  0  0  0
  -23.5689  -32.1215   23.6792 O   0  0  0  0  0  0
  -26.7283  -23.8584   20.9839 C   0  0  0  0  0  0
  -28.2009  -17.8813   19.0316 C   0  0  0  0  0  0
  -28.9831  -22.7065   20.3899 C   0  0  0  0  0  0
  -30.7171  -18.0499   18.7830 C   0  0  0  0  0  0
  -29.3846  -19.6733   20.5703 C   0  0  0  0  0  0
  -27.9547  -24.1618   20.1041 C   0  0  2  0  0  0
  -29.5278  -18.0317   19.8044 C   0  0  1  0  0  0
  -29.6717  -16.5049   20.4950 N   0  0  0  0  0  0
  -30.6676  -19.0892   17.7347 N   0  3  0  0  0  0
  -28.7357  -21.1039   19.9749 N   0  3  0  0  0  0
  -31.4688  -12.9550   19.2274 H   0  0  0  0  0  0
  -30.4698  -11.8663   20.1306 H   0  0  0  0  0  0
  -29.9153  -11.7729   17.6699 H   0  0  0  0  0  0
  -29.5873  -13.4883   17.6726 H   0  0  0  0  0  0
  -28.0231  -11.2922   19.0551 H   0  0  0  0  0  0
  -27.4202  -12.3938   17.8455 H   0  0  0  0  0  0
  -27.5444  -14.2573   19.3543 H   0  0  0  0  0  0
  -28.8057  -12.4975   21.5061 H   0  0  0  0  0  0
  -28.3018  -14.1558   21.7114 H   0  0  0  0  0  0
  -25.2779   -9.5715   22.4739 H   0  0  0  0  0  0
  -24.0029   -7.4658   22.7479 H   0  0  0  0  0  0
  -21.0839   -8.8795   19.8967 H   0  0  0  0  0  0
  -22.3703  -10.9679   19.6158 H   0  0  0  0  0  0
  -21.2030   -7.6150   23.9709 H   0  0  0  0  0  0
  -21.1481   -6.0506   25.9065 H   0  0  0  0  0  0
  -22.0595   -2.7611   23.2834 H   0  0  0  0  0  0
  -22.4046  -11.9883   22.4864 H   0  0  0  0  0  0
  -21.1025  -13.1206   22.2650 H   0  0  0  0  0  0
  -24.6432  -15.8540   20.5367 H   0  0  0  0  0  0
  -26.2455  -15.6317   20.0509 H   0  0  0  0  0  0
  -26.7374  -32.5127   23.0877 H   0  0  0  0  0  0
  -24.9981  -33.9478   25.0116 H   0  0  0  0  0  0
  -22.7891  -31.2665   21.3543 H   0  0  0  0  0  0
  -23.3762  -35.9505   23.3283 H   0  0  0  0  0  0
  -24.3548  -36.8885   22.2071 H   0  0  0  0  0  0
  -23.7220  -37.6366   23.6731 H   0  0  0  0  0  0
  -26.2299  -31.3730   20.6283 H   0  0  0  0  0  0
  -26.9049  -30.6809   22.0604 H   0  0  0  0  0  0
  -28.1407  -28.5760   21.2829 H   0  0  0  0  0  0
  -25.8791  -25.7715   18.9232 H   0  0  0  0  0  0
  -24.0064  -27.2966   18.9122 H   0  0  0  0  0  0
  -23.8644  -30.5232   19.3887 H   0  0  0  0  0  0
  -22.8237  -29.2069   19.8305 H   0  0  0  0  0  0
  -25.1332  -36.1750   25.0788 H   0  0  0  0  0  0
  -21.0022  -28.3347   24.1340 H   0  0  0  0  0  0
  -20.5676  -26.2355   23.3654 H   0  0  0  0  0  0
  -21.6647  -26.7417   22.1223 H   0  0  0  0  0  0
  -19.6904  -25.6278   21.1293 H   0  0  0  0  0  0
  -19.6709  -27.3163   20.6734 H   0  0  0  0  0  0
  -17.4211  -26.6710   21.4035 H   0  0  0  0  0  0
  -18.0326  -26.0131   22.9059 H   0  0  0  0  0  0
  -19.7970  -30.7341   24.2191 H   0  0  0  0  0  0
  -17.5044  -31.6292   24.5172 H   0  0  0  0  0  0
  -15.5375  -30.2994   23.7721 H   0  0  0  0  0  0
  -15.8695  -28.0841   22.7108 H   0  0  0  0  0  0
  -24.5807  -30.7211   25.7640 H   0  0  0  0  0  0
  -24.8804  -32.3061   26.4604 H   0  0  0  0  0  0
  -25.7806  -30.9108   27.0221 H   0  0  0  0  0  0
  -26.3095  -29.6595   24.1436 H   0  0  0  0  0  0
  -27.3902  -29.7306   25.5151 H   0  0  0  0  0  0
  -27.9069  -30.4098   23.9920 H   0  0  0  0  0  0
  -27.2586  -33.3726   26.1935 H   0  0  0  0  0  0
  -28.3890  -32.6860   25.0368 H   0  0  0  0  0  0
  -28.0606  -31.8593   26.5528 H   0  0  0  0  0  0
  -28.2572  -38.0063   24.7528 H   0  0  0  0  0  0
  -28.1078  -36.2595   24.6273 H   0  0  0  0  0  0
  -27.2288  -37.1380   25.8873 H   0  0  0  0  0  0
  -20.9598  -29.8707   21.6675 H   0  0  0  0  0  0
  -26.0109  -38.2772   24.1441 H   0  0  0  0  0  0
  -26.4296  -22.8136   20.8897 H   0  0  0  0  0  0
  -25.8537  -24.4461   20.7226 H   0  0  0  0  0  0
  -26.9591  -24.0466   22.0318 H   0  0  0  0  0  0
  -27.9885  -18.7334   18.3839 H   0  0  0  0  0  0
  -27.3618  -17.7934   19.7231 H   0  0  0  0  0  0
  -28.1935  -16.9909   18.4011 H   0  0  0  0  0  0
  -29.1775  -22.6900   21.4619 H   0  0  0  0  0  0
  -29.9473  -22.9516   19.9449 H   0  0  0  0  0  0
  -30.7622  -17.1003   18.2459 H   0  0  0  0  0  0
  -31.6675  -18.1394   19.3137 H   0  0  0  0  0  0
  -30.3906  -19.9412   20.8956 H   0  0  0  0  0  0
  -28.8513  -19.5168   21.5079 H   0  0  0  0  0  0
  -27.6486  -24.0663   19.0622 H   0  0  0  0  0  0
  -28.8143  -16.2818   20.9783 H   0  0  0  0  0  0
  -29.8114  -19.0395   17.2112 H   0  0  0  0  0  0
  -31.4055  -18.9079   17.0769 H   0  0  0  0  0  0
  -30.8218  -20.0145   18.0860 H   0  0  0  0  0  0
  -28.8429  -21.0926   18.9760 H   0  0  0  0  0  0
  -27.7466  -20.9706   20.1117 H   0  0  0  0  0  0
  1 25  1  0  0  0
  1 30  2  0  0  0
  1 78  1  0  0  0
  2  3  1  0  0  0
  2 25  1  0  0  0
  2 81  1  0  0  0
  2 82  1  0  0  0
  3  4  1  0  0  0
  3 83  1  0  0  0
  3 84  1  0  0  0
  4  5  1  0  0  0
  4 85  1  0  0  0
  4 86  1  0  0  0
  5  6  1  0  0  0
  5 26  1  0  0  0
  5 87  1  0  0  0
  6 25  1  0  0  0
  6 88  1  0  0  0
  6 89  1  0  0  0
  7  8  2  0  0  0
  7 26  1  0  0  0
  7 29  1  0  0  0
  8  9  1  0  0  0
  8 22  1  0  0  0
  9 10  1  0  0  0
  9 27  2  0  0  0
 10 11  2  0  0  0
 10 15  1  0  0  0
 11 12  1  0  0  0
 11 90  1  0  0  0
 12 13  2  0  0  0
 12 91  1  0  0  0
 13 14  1  0  0  0
 13 31  1  0  0  0
 14 15  2  0  0  0
 14 92  1  0  0  0
 15 93  1  0  0  0
 16 17  2  0  0  0
 16 21  1  0  0  0
 16 31  1  0  0  0
 17 18  1  0  0  0
 17 94  1  0  0  0
 18 19  2  0  0  0
 18 95  1  0  0  0
 19 20  1  0  0  0
 19 24  1  0  0  0
 20 21  2  0  0  0
 20 96  1  0  0  0
 21 23  1  0  0  0
 22 28  1  0  0  0
 22 32  2  0  0  0
 26 27  1  0  0  0
 28 97  1  0  0  0
 28 98  1  0  0  0
 29 99  1  0  0  0
 29100  1  0  0  0
 33 34  1  0  0  0
 33 66  1  0  0  0
 33 70  2  0  0  0
 34 36  1  0  0  0
 34 59  1  0  0  0
 34101  1  0  0  0
 35 44  2  0  0  0
 35 45  1  0  0  0
 35 68  1  0  0  0
 36 56  1  0  0  0
 36102  1  0  0  0
 37 39  1  0  0  0
 37 47  1  0  0  0
 37 66  1  0  0  0
 37103  1  0  0  0
 38 43  2  0  0  0
 38 46  1  0  0  0
 38 47  1  0  0  0
 39 64  1  0  0  0
 39 67  2  0  0  0
 40 52  1  0  0  0
 40 53  2  0  0  0
 40 58  1  0  0  0
 41104  1  0  0  0
 41105  1  0  0  0
 41106  1  0  0  0
 41 48  1  0  0  0
 42 43  1  0  0  0
 42 66  1  0  0  0
 42107  1  0  0  0
 42108  1  0  0  0
 43 44  1  0  0  0
 44109  1  0  0  0
 45 46  2  0  0  0
 45110  1  0  0  0
 46111  1  0  0  0
 47112  1  0  0  0
 47113  1  0  0  0
 48 56  1  0  0  0
 48 65  1  0  0  0
 48114  1  0  0  0
 49 50  1  0  0  0
 49 53  1  0  0  0
 49 64  1  0  0  0
 49115  1  0  0  0
 50 51  1  0  0  0
 50116  1  0  0  0
 50117  1  0  0  0
 51 52  1  0  0  0
 51118  1  0  0  0
 51119  1  0  0  0
 52120  1  0  0  0
 52121  1  0  0  0
 53 54  1  0  0  0
 54 55  2  0  0  0
 54122  1  0  0  0
 55 57  1  0  0  0
 55123  1  0  0  0
 56 69  2  0  0  0
 57 58  2  0  0  0
 57124  1  0  0  0
 58125  1  0  0  0
 59 60  1  0  0  0
 59 61  1  0  0  0
 59 62  1  0  0  0
 60126  1  0  0  0
 60127  1  0  0  0
 60128  1  0  0  0
 61129  1  0  0  0
 61130  1  0  0  0
 61131  1  0  0  0
 62132  1  0  0  0
 62133  1  0  0  0
 62134  1  0  0  0
 63 65  1  0  0  0
 63135  1  0  0  0
 63136  1  0  0  0
 63137  1  0  0  0
 64138  1  0  0  0
 65139  1  0  0  0
 68 76  1  0  0  0
 71140  1  0  0  0
 71141  1  0  0  0
 71142  1  0  0  0
 71 76  1  0  0  0
 72143  1  0  0  0
 72144  1  0  0  0
 72145  1  0  0  0
 72 77  1  0  0  0
 73 76  1  0  0  0
 73 80  1  0  0  0
 73146  1  0  0  0
 73147  1  0  0  0
 74 77  1  0  0  0
 74 79  1  0  0  0
 74148  1  0  0  0
 74149  1  0  0  0
 75 77  1  0  0  0
 75 80  1  0  0  0
 75150  1  0  0  0
 75151  1  0  0  0
 76152  1  0  0  0
 77 78  1  0  0  0
 78153  1  0  0  0
 79154  1  0  0  0
 79155  1  0  0  0
 79156  1  0  0  0
 80157  1  0  0  0
 80158  1  0  0  0
M  CHG  2  79   1  80   1
M  ISO  4   1 100  68 101  76 101  78 100
M  END
> <chiral flag>
0

> <version>
0

> <s_m_source_file>
/data/baiqing/PycharmProjects/Reinvent-master-3.2/result/LINK_invent/BTK/process_docking_weight1_custom_sum_contain_oxygen_bond_distance_aromatic_linkinvent_7_9_3/rearranged_h_0104.sdf

> <i_m_source_file_index>
57

> <r_mmod_Potential_Energy-OPLS-2005>
879.929992675781

> <r_mmod_Stretch_Energy-OPLS-2005>
635.335815429688

> <r_mmod_Bend_Energy-OPLS-2005>
458.488555908203

> <r_mmod_Torsional_Energy-OPLS-2005>
271.291900634766

> <r_mmod_Improper_Torsional_Energy-OPLS-2005>
5.16327905654907

> <r_mmod_Van_der_Waal_Energy-OPLS-2005>
109.13158416748

> <r_mmod_Electrostatic_Energy-OPLS-2005>
32.519588470459

> <r_mmod_Solvation_Energy-OPLS-2005>
-1083.00122070312

> <b_mmod_Minimization_Converged-OPLS-2005>
0

> <r_mmod_RMS_Derivative-OPLS-2005>
3.33128333091736

$$$$
57
                    3D
 Structure written by MMmdl.
152160  0  0  1  0            999 V2000
  -30.5286  -14.8756   20.4336 C   0  0  0  0  0  0
  -30.4538  -12.5339   19.4841 C   0  0  0  0  0  0
  -29.5242  -12.5216   18.2467 C   0  0  0  0  0  0
  -28.0522  -12.3188   18.6617 C   0  0  0  0  0  0
  -27.6404  -13.2304   19.8467 C   0  0  2  0  0  0
  -28.6872  -13.1972   20.9820 C   0  0  0  0  0  0
  -25.2522  -13.8177   20.5706 C   0  0  0  0  0  0
  -24.1817  -13.0428   20.9230 C   0  0  0  0  0  0
  -24.6408  -11.6910   20.8765 C   0  0  0  0  0  0
  -23.9080  -10.4289   21.0421 C   0  0  0  0  0  0
  -24.3627   -9.4200   21.9196 C   0  0  0  0  0  0
  -23.6292   -8.2241   22.0765 C   0  0  0  0  0  0
  -22.4274   -8.0287   21.3551 C   0  0  0  0  0  0
  -21.9917   -9.0267   20.4654 C   0  0  0  0  0  0
  -22.7257  -10.2140   20.3063 C   0  0  0  0  0  0
  -21.6849   -6.0742   22.5279 C   0  0  0  0  0  0
  -21.4015   -6.5642   23.8214 C   0  0  0  0  0  0
  -21.3656   -5.6794   24.9175 C   0  0  0  0  0  0
  -21.6042   -4.3057   24.7225 C   0  0  0  0  0  0
  -21.8817   -3.8151   23.4344 C   0  0  0  0  0  0
  -21.9192   -4.6970   22.3402 C   0  0  0  0  0  0
  -22.7840  -13.5223   21.1869 C   0  0  0  0  0  0
  -22.1661   -4.2156   21.0981 F   0  0  0  0  0  0
  -21.5627   -3.4539   25.7735 F   0  0  0  0  0  0
  -29.9737  -13.6031   20.3972 N   0  0  0  0  0  0
  -26.2936  -12.9377   20.3258 N   0  0  0  0  0  0
  -25.9336  -11.6524   20.5745 N   0  0  0  0  0  0
  -22.0469  -12.8224   22.0419 N   0  0  0  0  0  0
  -25.4194  -15.1899   20.4097 N   0  0  0  0  0  0
  -31.7271  -14.9997   20.1513 O   0  0  0  0  0  0
  -21.6632   -6.8889   21.4243 O   0  0  0  0  0  0
  -22.3537  -14.5531   20.6704 O   0  0  0  0  0  0
  -24.6388  -31.8486   23.1897 C   0  0  0  0  0  0
  -25.9179  -32.4718   23.8279 C   0  0  1  0  0  0
  -27.2266  -27.1855   20.1551 C   0  0  0  0  0  0
  -25.5943  -33.8520   24.2212 N   0  0  0  0  0  0
  -23.4402  -30.4657   21.5350 C   0  0  2  0  0  0
  -24.8911  -28.8922   20.1171 C   0  0  0  0  0  0
  -22.7545  -29.4569   22.4888 C   0  0  0  0  0  0
  -18.0309  -28.1383   22.8472 C   0  0  0  0  0  0
  -24.1490  -36.7268   23.2641 C   0  0  0  0  0  0
  -25.9907  -30.7387   21.3785 C   0  0  0  0  0  0
  -26.0660  -29.3505   20.7281 C   0  0  0  0  0  0
  -27.2385  -28.5141   20.7254 C   0  0  0  0  0  0
  -26.0280  -26.8088   19.5152 C   0  0  0  0  0  0
  -24.8817  -27.6325   19.4963 C   0  0  0  0  0  0
  -23.6651  -29.7893   20.1561 C   0  0  0  0  0  0
  -25.4118  -36.3045   24.0324 C   0  0  1  0  0  0
  -20.5914  -28.3706   23.1258 C   0  0  2  0  0  0
  -20.6793  -26.9414   22.5406 C   0  0  0  0  0  0
  -19.5774  -26.6377   21.5203 C   0  0  0  0  0  0
  -18.1951  -26.7927   22.1609 C   0  0  0  0  0  0
  -19.1560  -28.8859   23.2859 C   0  0  0  0  0  0
  -18.9473  -30.1458   23.8881 C   0  0  0  0  0  0
  -17.6468  -30.6576   24.0560 C   0  0  0  0  0  0
  -25.9067  -34.9418   23.5078 C   0  0  0  0  0  0
  -16.5361  -29.9073   23.6323 C   0  0  0  0  0  0
  -16.7295  -28.6494   23.0339 C   0  0  0  0  0  0
  -26.4515  -31.6565   25.0701 C   0  0  0  0  0  0
  -25.3718  -31.3737   26.1411 C   0  0  0  0  0  0
  -27.0374  -30.2972   24.6229 C   0  0  0  0  0  0
  -27.6051  -32.4322   25.7484 C   0  0  0  0  0  0
  -27.5576  -37.1788   24.8463 C   0  0  0  0  0  0
  -21.4240  -29.3051   22.3641 N   0  0  0  0  0  0
  -26.4284  -37.3753   23.9415 N   0  0  0  0  0  0
  -24.7096  -31.0380   22.0905 N   0  0  0  0  0  0
  -23.4215  -28.8124   23.3022 O   0  0  0  0  0  0
  -28.3086  -26.2511   20.1554 O   0  0  0  0  0  0
  -26.5644  -34.8908   22.4650 O   0  0  0  0  0  0
  -23.5518  -32.1336   23.7153 O   0  0  0  0  0  0
  -28.3290  -18.0826   20.2990 C   0  0  0  0  0  0
  -30.3887  -19.7675   20.7202 C   0  0  0  0  0  0
  -28.0854  -19.5045   20.3236 C   0  0  0  0  0  0
  -29.1288  -20.4482   20.5728 C   0  0  0  0  0  0
  -29.6057  -17.4726   20.5014 C   0  0  0  0  0  0
  -26.6582  -19.9907   20.1554 C   0  0  0  0  0  0
  -28.8490  -22.0190   20.9760 C   0  0  0  0  0  0
  -28.7465  -23.3908   20.0425 C   0  0  0  0  0  0
  -28.1255  -24.8112   20.6634 C   0  0  0  0  0  0
  -30.6158  -18.3888   20.6793 N   0  0  0  0  0  0
  -29.6373  -15.9573   20.5770 N   0  0  0  0  0  0
  -31.4880  -12.6969   19.1759 H   0  0  0  0  0  0
  -30.4417  -11.5657   19.9879 H   0  0  0  0  0  0
  -29.8290  -11.7382   17.5513 H   0  0  0  0  0  0
  -29.6239  -13.4645   17.7062 H   0  0  0  0  0  0
  -27.9320  -11.2726   18.9459 H   0  0  0  0  0  0
  -27.3920  -12.4807   17.8088 H   0  0  0  0  0  0
  -27.6201  -14.2423   19.4426 H   0  0  0  0  0  0
  -28.7578  -12.1997   21.4194 H   0  0  0  0  0  0
  -28.4012  -13.8649   21.7959 H   0  0  0  0  0  0
  -25.2773   -9.5664   22.4773 H   0  0  0  0  0  0
  -23.9993   -7.4630   22.7488 H   0  0  0  0  0  0
  -21.0843   -8.8799   19.8960 H   0  0  0  0  0  0
  -22.3730  -10.9685   19.6171 H   0  0  0  0  0  0
  -21.2013   -7.6152   23.9719 H   0  0  0  0  0  0
  -21.1475   -6.0525   25.9078 H   0  0  0  0  0  0
  -22.0596   -2.7612   23.2842 H   0  0  0  0  0  0
  -22.4067  -11.9882   22.4817 H   0  0  0  0  0  0
  -21.1091  -13.1275   22.2606 H   0  0  0  0  0  0
  -24.6415  -15.8328   20.5092 H   0  0  0  0  0  0
  -26.2315  -15.6187   19.9896 H   0  0  0  0  0  0
  -26.7250  -32.5342   23.1016 H   0  0  0  0  0  0
  -25.0072  -33.9635   25.0348 H   0  0  0  0  0  0
  -22.7403  -31.2893   21.3798 H   0  0  0  0  0  0
  -23.3752  -35.9598   23.3288 H   0  0  0  0  0  0
  -24.3573  -36.8909   22.2056 H   0  0  0  0  0  0
  -23.7241  -37.6461   23.6682 H   0  0  0  0  0  0
  -26.1334  -31.4911   20.6018 H   0  0  0  0  0  0
  -26.8660  -30.7955   22.0135 H   0  0  0  0  0  0
  -28.1408  -28.8652   21.2064 H   0  0  0  0  0  0
  -25.9703  -25.8429   19.0332 H   0  0  0  0  0  0
  -23.9849  -27.2768   19.0088 H   0  0  0  0  0  0
  -23.7986  -30.5605   19.3967 H   0  0  0  0  0  0
  -22.7820  -29.2259   19.8493 H   0  0  0  0  0  0
  -25.1300  -36.1877   25.0814 H   0  0  0  0  0  0
  -21.0002  -28.3277   24.1382 H   0  0  0  0  0  0
  -20.5691  -26.2311   23.3617 H   0  0  0  0  0  0
  -21.6661  -26.7428   22.1200 H   0  0  0  0  0  0
  -19.6938  -25.6288   21.1233 H   0  0  0  0  0  0
  -19.6717  -27.3187   20.6738 H   0  0  0  0  0  0
  -17.4226  -26.6693   21.4003 H   0  0  0  0  0  0
  -18.0328  -26.0069   22.9003 H   0  0  0  0  0  0
  -19.7946  -30.7277   24.2253 H   0  0  0  0  0  0
  -17.5015  -31.6248   24.5169 H   0  0  0  0  0  0
  -15.5357  -30.2959   23.7651 H   0  0  0  0  0  0
  -15.8705  -28.0808   22.7052 H   0  0  0  0  0  0
  -24.5893  -30.7089   25.7731 H   0  0  0  0  0  0
  -24.8913  -32.2915   26.4810 H   0  0  0  0  0  0
  -25.8020  -30.8923   27.0204 H   0  0  0  0  0  0
  -26.2974  -29.6703   24.1242 H   0  0  0  0  0  0
  -27.4022  -29.7254   25.4772 H   0  0  0  0  0  0
  -27.8861  -30.4226   23.9503 H   0  0  0  0  0  0
  -27.2646  -33.3631   26.2028 H   0  0  0  0  0  0
  -28.3879  -32.6873   25.0330 H   0  0  0  0  0  0
  -28.0701  -31.8472   26.5427 H   0  0  0  0  0  0
  -28.2584  -38.0094   24.7510 H   0  0  0  0  0  0
  -28.1082  -36.2622   24.6287 H   0  0  0  0  0  0
  -27.2294  -37.1428   25.8866 H   0  0  0  0  0  0
  -20.9442  -29.8773   21.6834 H   0  0  0  0  0  0
  -26.0156  -38.2823   24.1414 H   0  0  0  0  0  0
  -27.4756  -17.4360   20.1509 H   0  0  0  0  0  0
  -31.2642  -20.3528   20.9597 H   0  0  0  0  0  0
  -26.0532  -19.2613   19.6167 H   0  0  0  0  0  0
  -26.6262  -20.9231   19.5923 H   0  0  0  0  0  0
  -26.1992  -20.1588   21.1297 H   0  0  0  0  0  0
  -29.5915  -22.2430   21.7427 H   0  0  0  0  0  0
  -27.9170  -21.9937   21.5407 H   0  0  0  0  0  0
  -29.7477  -23.5980   19.6649 H   0  0  0  0  0  0
  -28.1546  -23.1521   19.1592 H   0  0  0  0  0  0
  -28.5201  -24.8667   21.6781 H   0  0  0  0  0  0
  -27.0592  -24.6425   20.8156 H   0  0  0  0  0  0
  -28.7132  -15.5859   20.7160 H   0  0  0  0  0  0
  1 25  1  0  0  0
  1 30  2  0  0  0
  1 81  1  0  0  0
  2  3  1  0  0  0
  2 25  1  0  0  0
  2 82  1  0  0  0
  2 83  1  0  0  0
  3  4  1  0  0  0
  3 84  1  0  0  0
  3 85  1  0  0  0
  4  5  1  0  0  0
  4 86  1  0  0  0
  4 87  1  0  0  0
  5  6  1  0  0  0
  5 26  1  0  0  0
  5 88  1  0  0  0
  6 25  1  0  0  0
  6 89  1  0  0  0
  6 90  1  0  0  0
  7  8  2  0  0  0
  7 26  1  0  0  0
  7 29  1  0  0  0
  8  9  1  0  0  0
  8 22  1  0  0  0
  9 10  1  0  0  0
  9 27  2  0  0  0
 10 11  2  0  0  0
 10 15  1  0  0  0
 11 12  1  0  0  0
 11 91  1  0  0  0
 12 13  2  0  0  0
 12 92  1  0  0  0
 13 14  1  0  0  0
 13 31  1  0  0  0
 14 15  2  0  0  0
 14 93  1  0  0  0
 15 94  1  0  0  0
 16 17  2  0  0  0
 16 21  1  0  0  0
 16 31  1  0  0  0
 17 18  1  0  0  0
 17 95  1  0  0  0
 18 19  2  0  0  0
 18 96  1  0  0  0
 19 20  1  0  0  0
 19 24  1  0  0  0
 20 21  2  0  0  0
 20 97  1  0  0  0
 21 23  1  0  0  0
 22 28  1  0  0  0
 22 32  2  0  0  0
 26 27  1  0  0  0
 28 98  1  0  0  0
 28 99  1  0  0  0
 29100  1  0  0  0
 29101  1  0  0  0
 33 34  1  0  0  0
 33 66  1  0  0  0
 33 70  2  0  0  0
 34 36  1  0  0  0
 34 59  1  0  0  0
 34102  1  0  0  0
 35 44  2  0  0  0
 35 45  1  0  0  0
 35 68  1  0  0  0
 36 56  1  0  0  0
 36103  1  0  0  0
 37 39  1  0  0  0
 37 47  1  0  0  0
 37 66  1  0  0  0
 37104  1  0  0  0
 38 43  2  0  0  0
 38 46  1  0  0  0
 38 47  1  0  0  0
 39 64  1  0  0  0
 39 67  2  0  0  0
 40 52  1  0  0  0
 40 53  2  0  0  0
 40 58  1  0  0  0
 41105  1  0  0  0
 41106  1  0  0  0
 41107  1  0  0  0
 41 48  1  0  0  0
 42 43  1  0  0  0
 42 66  1  0  0  0
 42108  1  0  0  0
 42109  1  0  0  0
 43 44  1  0  0  0
 44110  1  0  0  0
 45 46  2  0  0  0
 45111  1  0  0  0
 46112  1  0  0  0
 47113  1  0  0  0
 47114  1  0  0  0
 48 56  1  0  0  0
 48 65  1  0  0  0
 48115  1  0  0  0
 49 50  1  0  0  0
 49 53  1  0  0  0
 49 64  1  0  0  0
 49116  1  0  0  0
 50 51  1  0  0  0
 50117  1  0  0  0
 50118  1  0  0  0
 51 52  1  0  0  0
 51119  1  0  0  0
 51120  1  0  0  0
 52121  1  0  0  0
 52122  1  0  0  0
 53 54  1  0  0  0
 54 55  2  0  0  0
 54123  1  0  0  0
 55 57  1  0  0  0
 55124  1  0  0  0
 56 69  2  0  0  0
 57 58  2  0  0  0
 57125  1  0  0  0
 58126  1  0  0  0
 59 60  1  0  0  0
 59 61  1  0  0  0
 59 62  1  0  0  0
 60127  1  0  0  0
 60128  1  0  0  0
 60129  1  0  0  0
 61130  1  0  0  0
 61131  1  0  0  0
 61132  1  0  0  0
 62133  1  0  0  0
 62134  1  0  0  0
 62135  1  0  0  0
 63 65  1  0  0  0
 63136  1  0  0  0
 63137  1  0  0  0
 63138  1  0  0  0
 64139  1  0  0  0
 65140  1  0  0  0
 68 79  1  0  0  0
 71 73  2  0  0  0
 71 75  1  0  0  0
 71141  1  0  0  0
 72 74  2  0  0  0
 72 80  1  0  0  0
 72142  1  0  0  0
 73 74  1  0  0  0
 73 76  1  0  0  0
 74 77  1  0  0  0
 75 80  2  0  0  0
 75 81  1  0  0  0
 76143  1  0  0  0
 76144  1  0  0  0
 76145  1  0  0  0
 77 78  1  0  0  0
 77146  1  0  0  0
 77147  1  0  0  0
 78 79  1  0  0  0
 78148  1  0  0  0
 78149  1  0  0  0
 79150  1  0  0  0
 79151  1  0  0  0
 81152  1  0  0  0
M  ISO  4   1 100  68 101  79 101  81 100
M  END
> <chiral flag>
0

> <version>
0

> <s_m_source_file>
/data/baiqing/PycharmProjects/Reinvent-master-3.2/result/LINK_invent/BTK/process_docking_weight1_custom_sum_contain_oxygen_bond_distance_aromatic_linkinvent_7_9_3/rearranged_h_0104.sdf

> <i_m_source_file_index>
58

> <r_mmod_Potential_Energy-OPLS-2005>
249.827438354492

> <r_mmod_Stretch_Energy-OPLS-2005>
192.020614624023

> <r_mmod_Bend_Energy-OPLS-2005>
249.721664428711

> <r_mmod_Torsional_Energy-OPLS-2005>
233.633682250977

> <r_mmod_Improper_Torsional_Energy-OPLS-2005>
7.98185920715332

> <r_mmod_Van_der_Waal_Energy-OPLS-2005>
129.754959106445

> <r_mmod_Electrostatic_Energy-OPLS-2005>
-471.934051513672

> <r_mmod_Solvation_Energy-OPLS-2005>
-235.305435180664

> <b_mmod_Minimization_Converged-OPLS-2005>
0

> <r_mmod_RMS_Derivative-OPLS-2005>
1.00402128696442

$$$$
58
                    3D
 Structure written by MMmdl.
160168  0  0  1  0            999 V2000
  -30.5596  -15.0103   20.3750 C   0  0  0  0  0  0
  -30.4453  -12.6375   19.4798 C   0  0  0  0  0  0
  -29.5123  -12.5519   18.2488 C   0  0  0  0  0  0
  -28.0462  -12.3368   18.6722 C   0  0  0  0  0  0
  -27.6285  -13.2602   19.8457 C   0  0  2  0  0  0
  -28.6897  -13.3206   20.9639 C   0  0  0  0  0  0
  -25.2465  -13.8261   20.5775 C   0  0  0  0  0  0
  -24.1771  -13.0437   20.9261 C   0  0  0  0  0  0
  -24.6424  -11.6941   20.8784 C   0  0  0  0  0  0
  -23.9110  -10.4289   21.0384 C   0  0  0  0  0  0
  -24.3648   -9.4214   21.9175 C   0  0  0  0  0  0
  -23.6295   -8.2254   22.0731 C   0  0  0  0  0  0
  -22.4298   -8.0293   21.3509 C   0  0  0  0  0  0
  -21.9938   -9.0284   20.4624 C   0  0  0  0  0  0
  -22.7282  -10.2153   20.3041 C   0  0  0  0  0  0
  -21.6859   -6.0723   22.5252 C   0  0  0  0  0  0
  -21.4033   -6.5626   23.8191 C   0  0  0  0  0  0
  -21.3663   -5.6795   24.9164 C   0  0  0  0  0  0
  -21.6028   -4.3046   24.7219 C   0  0  0  0  0  0
  -21.8835   -3.8141   23.4350 C   0  0  0  0  0  0
  -21.9204   -4.6929   22.3391 C   0  0  0  0  0  0
  -22.7808  -13.5204   21.1852 C   0  0  0  0  0  0
  -22.1671   -4.2118   21.0968 F   0  0  0  0  0  0
  -21.5607   -3.4554   25.7737 F   0  0  0  0  0  0
  -29.9469  -13.7483   20.3347 N   0  0  0  0  0  0
  -26.2912  -12.9506   20.3418 N   0  0  0  0  0  0
  -25.9378  -11.6625   20.5842 N   0  0  0  0  0  0
  -22.0484  -12.8194   22.0416 N   0  0  0  0  0  0
  -25.4135  -15.1963   20.4140 N   0  0  0  0  0  0
  -31.7800  -15.0307   20.2001 O   0  0  0  0  0  0
  -21.6651   -6.8875   21.4217 O   0  0  0  0  0  0
  -22.3496  -14.5506   20.6674 O   0  0  0  0  0  0
  -24.6471  -31.8362   23.1810 C   0  0  0  0  0  0
  -25.9252  -32.4643   23.8200 C   0  0  1  0  0  0
  -27.2201  -27.0577   20.1343 C   0  0  0  0  0  0
  -25.5974  -33.8454   24.2096 N   0  0  0  0  0  0
  -23.4601  -30.4425   21.5327 C   0  0  2  0  0  0
  -24.9097  -28.8562   20.1071 C   0  0  0  0  0  0
  -22.7658  -29.4427   22.4886 C   0  0  0  0  0  0
  -18.0287  -28.1333   22.8422 C   0  0  0  0  0  0
  -24.1500  -36.7209   23.2642 C   0  0  0  0  0  0
  -26.0171  -30.6708   21.4044 C   0  0  0  0  0  0
  -26.0853  -29.2759   20.7380 C   0  0  0  0  0  0
  -27.2369  -28.3907   20.7361 C   0  0  0  0  0  0
  -26.0178  -26.7622   19.4560 C   0  0  0  0  0  0
  -24.8876  -27.6146   19.4507 C   0  0  0  0  0  0
  -23.6931  -29.7729   20.1531 C   0  0  0  0  0  0
  -25.4117  -36.2984   24.0304 C   0  0  1  0  0  0
  -20.5887  -28.3675   23.1178 C   0  0  2  0  0  0
  -20.6761  -26.9382   22.5360 C   0  0  0  0  0  0
  -19.5772  -26.6328   21.5135 C   0  0  0  0  0  0
  -18.1956  -26.7886   22.1535 C   0  0  0  0  0  0
  -19.1555  -28.8823   23.2788 C   0  0  0  0  0  0
  -18.9500  -30.1428   23.8811 C   0  0  0  0  0  0
  -17.6517  -30.6566   24.0490 C   0  0  0  0  0  0
  -25.9064  -34.9377   23.5010 C   0  0  0  0  0  0
  -16.5392  -29.9016   23.6327 C   0  0  0  0  0  0
  -16.7290  -28.6428   23.0324 C   0  0  0  0  0  0
  -26.4529  -31.6583   25.0709 C   0  0  0  0  0  0
  -25.3615  -31.3815   26.1329 C   0  0  0  0  0  0
  -27.0429  -30.2952   24.6451 C   0  0  0  0  0  0
  -27.6031  -32.4384   25.7477 C   0  0  0  0  0  0
  -27.5594  -37.1720   24.8458 C   0  0  0  0  0  0
  -21.4331  -29.2991   22.3630 N   0  0  0  0  0  0
  -26.4270  -37.3705   23.9440 N   0  0  0  0  0  0
  -24.7270  -31.0062   22.0933 N   0  0  0  0  0  0
  -23.4257  -28.7970   23.3053 O   0  0  0  0  0  0
  -28.2724  -26.0486   20.2164 O   0  0  0  0  0  0
  -26.5705  -34.8892   22.4631 O   0  0  0  0  0  0
  -23.5558  -32.1286   23.6964 O   0  0  0  0  0  0
  -29.2335  -20.3942   20.7790 C   0  0  0  0  0  0
  -29.7742  -19.2482   20.1184 C   0  0  0  0  0  0
  -30.1262  -19.8423   18.8414 C   0  0  0  0  0  0
  -29.8273  -21.2173   18.8389 C   0  0  0  0  0  0
  -30.1694  -22.2337   17.7887 C   0  0  0  0  0  0
  -30.7958  -17.8594   15.4388 C   0  0  0  0  0  0
  -30.8941  -19.1149   17.7201 C   0  0  0  0  0  0
  -30.2209  -17.7354   20.7215 C   0  0  0  0  0  0
  -30.0277  -18.3524   16.6881 C   0  0  0  0  0  0
  -28.9856  -23.1746   20.5654 C   0  0  0  0  0  0
  -28.1393  -24.5017   19.8683 C   0  0  0  0  0  0
  -29.2465  -21.6548   20.0472 N   0  0  0  0  0  0
  -29.8143  -16.2336   20.3942 N   0  0  0  0  0  0
  -31.4671  -12.8143   19.1449 H   0  0  0  0  0  0
  -30.4715  -11.7020   20.0406 H   0  0  0  0  0  0
  -29.8334  -11.7464   17.5880 H   0  0  0  0  0  0
  -29.5870  -13.4753   17.6746 H   0  0  0  0  0  0
  -27.9288  -11.2905   18.9633 H   0  0  0  0  0  0
  -27.3823  -12.4962   17.8214 H   0  0  0  0  0  0
  -27.5783  -14.2597   19.4153 H   0  0  0  0  0  0
  -28.7984  -12.3572   21.4641 H   0  0  0  0  0  0
  -28.3930  -14.0366   21.7324 H   0  0  0  0  0  0
  -25.2794   -9.5676   22.4774 H   0  0  0  0  0  0
  -23.9967   -7.4664   22.7488 H   0  0  0  0  0  0
  -21.0873   -8.8867   19.8947 H   0  0  0  0  0  0
  -22.3781  -10.9708   19.6164 H   0  0  0  0  0  0
  -21.2053   -7.6159   23.9685 H   0  0  0  0  0  0
  -21.1446   -6.0524   25.9055 H   0  0  0  0  0  0
  -22.0603   -2.7595   23.2869 H   0  0  0  0  0  0
  -22.4157  -11.9905   22.4852 H   0  0  0  0  0  0
  -21.1076  -13.1144   22.2554 H   0  0  0  0  0  0
  -24.6462  -15.8539   20.5008 H   0  0  0  0  0  0
  -26.2652  -15.6344   20.0876 H   0  0  0  0  0  0
  -26.7376  -32.5178   23.0938 H   0  0  0  0  0  0
  -25.0048  -33.9518   25.0217 H   0  0  0  0  0  0
  -22.7630  -31.2664   21.3784 H   0  0  0  0  0  0
  -23.3765  -35.9540   23.3281 H   0  0  0  0  0  0
  -24.3554  -36.8885   22.2064 H   0  0  0  0  0  0
  -23.7245  -37.6375   23.6714 H   0  0  0  0  0  0
  -26.1856  -31.4241   20.6351 H   0  0  0  0  0  0
  -26.8779  -30.7118   22.0600 H   0  0  0  0  0  0
  -28.1358  -28.6981   21.2509 H   0  0  0  0  0  0
  -25.9159  -25.8217   18.9407 H   0  0  0  0  0  0
  -23.9856  -27.2995   18.9406 H   0  0  0  0  0  0
  -23.8502  -30.5487   19.4036 H   0  0  0  0  0  0
  -22.8044  -29.2296   19.8291 H   0  0  0  0  0  0
  -25.1284  -36.1774   25.0776 H   0  0  0  0  0  0
  -20.9923  -28.3291   24.1286 H   0  0  0  0  0  0
  -20.5555  -26.2338   23.3601 H   0  0  0  0  0  0
  -21.6639  -26.7297   22.1244 H   0  0  0  0  0  0
  -19.6930  -25.6193   21.1238 H   0  0  0  0  0  0
  -19.6704  -27.3051   20.6620 H   0  0  0  0  0  0
  -17.4211  -26.6596   21.3974 H   0  0  0  0  0  0
  -18.0372  -25.9989   22.8886 H   0  0  0  0  0  0
  -19.8011  -30.7205   24.2174 H   0  0  0  0  0  0
  -17.5078  -31.6228   24.5104 H   0  0  0  0  0  0
  -15.5376  -30.2859   23.7722 H   0  0  0  0  0  0
  -15.8716  -28.0753   22.7018 H   0  0  0  0  0  0
  -24.5952  -30.6975   25.7661 H   0  0  0  0  0  0
  -24.8568  -32.2986   26.4376 H   0  0  0  0  0  0
  -25.7771  -30.9308   27.0360 H   0  0  0  0  0  0
  -26.3108  -29.6596   24.1486 H   0  0  0  0  0  0
  -27.3966  -29.7310   25.5099 H   0  0  0  0  0  0
  -27.9045  -30.4075   23.9860 H   0  0  0  0  0  0
  -27.2695  -33.3851   26.1721 H   0  0  0  0  0  0
  -28.3977  -32.6681   25.0361 H   0  0  0  0  0  0
  -28.0564  -31.8741   26.5618 H   0  0  0  0  0  0
  -28.2490  -38.0152   24.7599 H   0  0  0  0  0  0
  -28.1215  -36.2653   24.6149 H   0  0  0  0  0  0
  -27.2329  -37.1181   25.8869 H   0  0  0  0  0  0
  -20.9608  -29.8795   21.6832 H   0  0  0  0  0  0
  -26.0136  -38.2723   24.1563 H   0  0  0  0  0  0
  -28.9132  -20.4503   21.8154 H   0  0  0  0  0  0
  -30.7927  -21.8236   16.9973 H   0  0  0  0  0  0
  -30.7217  -23.0720   18.2146 H   0  0  0  0  0  0
  -29.2721  -22.6223   17.3086 H   0  0  0  0  0  0
  -30.1654  -17.2231   14.8122 H   0  0  0  0  0  0
  -31.6721  -17.2633   15.6984 H   0  0  0  0  0  0
  -31.1263  -18.6877   14.8076 H   0  0  0  0  0  0
  -31.6040  -18.4196   18.1670 H   0  0  0  0  0  0
  -31.5291  -19.8252   17.1876 H   0  0  0  0  0  0
  -30.0189  -17.8226   21.7889 H   0  0  0  0  0  0
  -31.3101  -17.7374   20.6655 H   0  0  0  0  0  0
  -29.5601  -17.4966   17.1710 H   0  0  0  0  0  0
  -29.2144  -18.9931   16.3461 H   0  0  0  0  0  0
  -28.5596  -23.0672   21.5656 H   0  0  0  0  0  0
  -29.9864  -23.5611   20.7645 H   0  0  0  0  0  0
  -27.0869  -24.2524   20.0047 H   0  0  0  0  0  0
  -28.2976  -24.4345   18.7912 H   0  0  0  0  0  0
  -28.8214  -16.0854   20.3947 H   0  0  0  0  0  0
  1 25  1  0  0  0
  1 30  2  0  0  0
  1 83  1  0  0  0
  2  3  1  0  0  0
  2 25  1  0  0  0
  2 84  1  0  0  0
  2 85  1  0  0  0
  3  4  1  0  0  0
  3 86  1  0  0  0
  3 87  1  0  0  0
  4  5  1  0  0  0
  4 88  1  0  0  0
  4 89  1  0  0  0
  5  6  1  0  0  0
  5 26  1  0  0  0
  5 90  1  0  0  0
  6 25  1  0  0  0
  6 91  1  0  0  0
  6 92  1  0  0  0
  7  8  2  0  0  0
  7 26  1  0  0  0
  7 29  1  0  0  0
  8  9  1  0  0  0
  8 22  1  0  0  0
  9 10  1  0  0  0
  9 27  2  0  0  0
 10 11  2  0  0  0
 10 15  1  0  0  0
 11 12  1  0  0  0
 11 93  1  0  0  0
 12 13  2  0  0  0
 12 94  1  0  0  0
 13 14  1  0  0  0
 13 31  1  0  0  0
 14 15  2  0  0  0
 14 95  1  0  0  0
 15 96  1  0  0  0
 16 17  2  0  0  0
 16 21  1  0  0  0
 16 31  1  0  0  0
 17 18  1  0  0  0
 17 97  1  0  0  0
 18 19  2  0  0  0
 18 98  1  0  0  0
 19 20  1  0  0  0
 19 24  1  0  0  0
 20 21  2  0  0  0
 20 99  1  0  0  0
 21 23  1  0  0  0
 22 28  1  0  0  0
 22 32  2  0  0  0
 26 27  1  0  0  0
 28100  1  0  0  0
 28101  1  0  0  0
 29102  1  0  0  0
 29103  1  0  0  0
 33 34  1  0  0  0
 33 66  1  0  0  0
 33 70  2  0  0  0
 34 36  1  0  0  0
 34 59  1  0  0  0
 34104  1  0  0  0
 35 44  2  0  0  0
 35 45  1  0  0  0
 35 68  1  0  0  0
 36 56  1  0  0  0
 36105  1  0  0  0
 37 39  1  0  0  0
 37 47  1  0  0  0
 37 66  1  0  0  0
 37106  1  0  0  0
 38 43  2  0  0  0
 38 46  1  0  0  0
 38 47  1  0  0  0
 39 64  1  0  0  0
 39 67  2  0  0  0
 40 52  1  0  0  0
 40 53  2  0  0  0
 40 58  1  0  0  0
 41107  1  0  0  0
 41108  1  0  0  0
 41109  1  0  0  0
 41 48  1  0  0  0
 42 43  1  0  0  0
 42 66  1  0  0  0
 42110  1  0  0  0
 42111  1  0  0  0
 43 44  1  0  0  0
 44112  1  0  0  0
 45 46  2  0  0  0
 45113  1  0  0  0
 46114  1  0  0  0
 47115  1  0  0  0
 47116  1  0  0  0
 48 56  1  0  0  0
 48 65  1  0  0  0
 48117  1  0  0  0
 49 50  1  0  0  0
 49 53  1  0  0  0
 49 64  1  0  0  0
 49118  1  0  0  0
 50 51  1  0  0  0
 50119  1  0  0  0
 50120  1  0  0  0
 51 52  1  0  0  0
 51121  1  0  0  0
 51122  1  0  0  0
 52123  1  0  0  0
 52124  1  0  0  0
 53 54  1  0  0  0
 54 55  2  0  0  0
 54125  1  0  0  0
 55 57  1  0  0  0
 55126  1  0  0  0
 56 69  2  0  0  0
 57 58  2  0  0  0
 57127  1  0  0  0
 58128  1  0  0  0
 59 60  1  0  0  0
 59 61  1  0  0  0
 59 62  1  0  0  0
 60129  1  0  0  0
 60130  1  0  0  0
 60131  1  0  0  0
 61132  1  0  0  0
 61133  1  0  0  0
 61134  1  0  0  0
 62135  1  0  0  0
 62136  1  0  0  0
 62137  1  0  0  0
 63 65  1  0  0  0
 63138  1  0  0  0
 63139  1  0  0  0
 63140  1  0  0  0
 64141  1  0  0  0
 65142  1  0  0  0
 68 81  1  0  0  0
 71 72  2  0  0  0
 71 82  1  0  0  0
 71143  1  0  0  0
 72 73  1  0  0  0
 72 78  1  0  0  0
 73 74  2  0  0  0
 73 77  1  0  0  0
 74 75  1  0  0  0
 74 82  1  0  0  0
 75144  1  0  0  0
 75145  1  0  0  0
 75146  1  0  0  0
 76 79  1  0  0  0
 76147  1  0  0  0
 76148  1  0  0  0
 76149  1  0  0  0
 77 79  1  0  0  0
 77150  1  0  0  0
 77151  1  0  0  0
 78 83  1  0  0  0
 78152  1  0  0  0
 78153  1  0  0  0
 79154  1  0  0  0
 79155  1  0  0  0
 80 81  1  0  0  0
 80 82  1  0  0  0
 80156  1  0  0  0
 80157  1  0  0  0
 81158  1  0  0  0
 81159  1  0  0  0
 83160  1  0  0  0
M  ISO  4   1 100  68 101  81 101  83 100
M  END
> <chiral flag>
0

> <version>
0

> <s_m_source_file>
/data/baiqing/PycharmProjects/Reinvent-master-3.2/result/LINK_invent/BTK/process_docking_weight1_custom_sum_contain_oxygen_bond_distance_aromatic_linkinvent_7_9_3/rearranged_h_0104.sdf

> <i_m_source_file_index>
59

> <r_mmod_Potential_Energy-OPLS-2005>
618.855346679688

> <r_mmod_Stretch_Energy-OPLS-2005>
322.951446533203

> <r_mmod_Bend_Energy-OPLS-2005>
322.60009765625

> <r_mmod_Torsional_Energy-OPLS-2005>
236.482391357422

> <r_mmod_Improper_Torsional_Energy-OPLS-2005>
11.1265802383423

> <r_mmod_Van_der_Waal_Energy-OPLS-2005>
102.258010864258

> <r_mmod_Electrostatic_Energy-OPLS-2005>
-410.9580078125

> <r_mmod_Solvation_Energy-OPLS-2005>
-216.955978393555

> <b_mmod_Minimization_Converged-OPLS-2005>
0

> <r_mmod_RMS_Derivative-OPLS-2005>
7.48257303237915

$$$$
59
                    3D
 Structure written by MMmdl.
174182  0  0  1  0            999 V2000
  -30.5017  -15.0855   20.3722 C   0  0  0  0  0  0
  -30.4269  -12.6927   19.4726 C   0  0  0  0  0  0
  -29.4995  -12.5206   18.2448 C   0  0  0  0  0  0
  -28.0385  -12.2786   18.6774 C   0  0  0  0  0  0
  -27.5902  -13.2219   19.8247 C   0  0  2  0  0  0
  -28.6504  -13.3640   20.9384 C   0  0  0  0  0  0
  -25.2330  -13.8047   20.5767 C   0  0  0  0  0  0
  -24.1649  -13.0334   20.9317 C   0  0  0  0  0  0
  -24.6239  -11.6809   20.8844 C   0  0  0  0  0  0
  -23.8943  -10.4216   21.0456 C   0  0  0  0  0  0
  -24.3532   -9.4127   21.9216 C   0  0  0  0  0  0
  -23.6245   -8.2144   22.0764 C   0  0  0  0  0  0
  -22.4236   -8.0216   21.3553 C   0  0  0  0  0  0
  -21.9848   -9.0169   20.4653 C   0  0  0  0  0  0
  -22.7132  -10.2067   20.3066 C   0  0  0  0  0  0
  -21.6822   -6.0673   22.5261 C   0  0  0  0  0  0
  -21.3961   -6.5592   23.8194 C   0  0  0  0  0  0
  -21.3668   -5.6775   24.9174 C   0  0  0  0  0  0
  -21.6072   -4.3030   24.7228 C   0  0  0  0  0  0
  -21.8821   -3.8094   23.4369 C   0  0  0  0  0  0
  -21.9184   -4.6908   22.3406 C   0  0  0  0  0  0
  -22.7710  -13.5172   21.1944 C   0  0  0  0  0  0
  -22.1664   -4.2081   21.0995 F   0  0  0  0  0  0
  -21.5679   -3.4544   25.7764 F   0  0  0  0  0  0
  -29.8930  -13.8192   20.2919 N   0  0  0  0  0  0
  -26.2686  -12.9196   20.3349 N   0  0  0  0  0  0
  -25.9164  -11.6365   20.5856 N   0  0  0  0  0  0
  -22.0317  -12.8224   22.0496 N   0  0  0  0  0  0
  -25.4069  -15.1777   20.4098 N   0  0  0  0  0  0
  -31.7393  -15.0683   20.3876 O   0  0  0  0  0  0
  -21.6604   -6.8808   21.4235 O   0  0  0  0  0  0
  -22.3446  -14.5507   20.6784 O   0  0  0  0  0  0
  -24.6523  -31.8313   23.1777 C   0  0  0  0  0  0
  -25.9254  -32.4602   23.8196 C   0  0  1  0  0  0
  -27.2030  -27.0287   20.2004 C   0  0  0  0  0  0
  -25.5979  -33.8425   24.2103 N   0  0  0  0  0  0
  -23.4617  -30.4521   21.5198 C   0  0  2  0  0  0
  -24.9105  -28.8520   20.1121 C   0  0  0  0  0  0
  -22.7591  -29.4544   22.4746 C   0  0  0  0  0  0
  -18.0321  -28.1413   22.8475 C   0  0  0  0  0  0
  -24.1486  -36.7204   23.2639 C   0  0  0  0  0  0
  -26.0221  -30.6741   21.3917 C   0  0  0  0  0  0
  -26.0876  -29.2740   20.7417 C   0  0  0  0  0  0
  -27.2338  -28.3809   20.7633 C   0  0  0  0  0  0
  -26.0050  -26.7272   19.5199 C   0  0  0  0  0  0
  -24.8857  -27.5966   19.4812 C   0  0  0  0  0  0
  -23.6941  -29.7698   20.1439 C   0  0  0  0  0  0
  -25.4113  -36.2969   24.0304 C   0  0  1  0  0  0
  -20.5942  -28.3761   23.1170 C   0  0  2  0  0  0
  -20.6807  -26.9444   22.5394 C   0  0  0  0  0  0
  -19.5782  -26.6375   21.5209 C   0  0  0  0  0  0
  -18.1965  -26.7957   22.1618 C   0  0  0  0  0  0
  -19.1590  -28.8901   23.2829 C   0  0  0  0  0  0
  -18.9515  -30.1488   23.8853 C   0  0  0  0  0  0
  -17.6521  -30.6616   24.0561 C   0  0  0  0  0  0
  -25.9090  -34.9346   23.5013 C   0  0  0  0  0  0
  -16.5394  -29.9115   23.6349 C   0  0  0  0  0  0
  -16.7318  -28.6537   23.0365 C   0  0  0  0  0  0
  -26.4549  -31.6524   25.0686 C   0  0  0  0  0  0
  -25.3706  -31.3786   26.1376 C   0  0  0  0  0  0
  -27.0447  -30.2901   24.6369 C   0  0  0  0  0  0
  -27.6046  -32.4323   25.7485 C   0  0  0  0  0  0
  -27.5589  -37.1718   24.8444 C   0  0  0  0  0  0
  -21.4273  -29.3059   22.3490 N   0  0  0  0  0  0
  -26.4249  -37.3715   23.9475 N   0  0  0  0  0  0
  -24.7329  -31.0119   22.0831 N   0  0  0  0  0  0
  -23.4199  -28.8079   23.2936 O   0  0  0  0  0  0
  -28.2449  -26.0031   20.2821 O   0  0  0  0  0  0
  -26.5704  -34.8889   22.4608 O   0  0  0  0  0  0
  -23.5625  -32.1219   23.6955 O   0  0  0  0  0  0
  -28.5297  -21.7814   19.3388 C   0  0  0  0  0  0
  -28.5195  -21.9534   21.7076 C   0  0  0  0  0  0
  -28.6751  -23.4247   19.2442 C   0  0  0  0  0  0
  -28.6457  -23.5882   21.6037 C   0  0  0  0  0  0
  -29.0913  -20.9204   20.5852 C   0  0  1  0  0  0
  -28.0493  -24.4096   20.3525 C   0  0  1  0  0  0
  -29.1042  -16.6596   16.3308 C   0  0  0  0  0  0
  -31.2787  -16.1256   17.4479 C   0  0  0  0  0  0
  -28.5774  -18.6371   23.1577 C   0  0  0  0  0  0
  -26.4754  -19.1664   21.7438 C   0  0  0  0  0  0
  -30.0498  -17.8844   20.5221 C   0  0  0  0  0  0
  -29.0888  -16.3738   18.8355 C   0  0  0  0  0  0
  -28.8725  -19.1609   20.6190 C   0  0  1  0  0  0
  -29.9277  -16.8475   17.6158 C   0  0  0  0  0  0
  -27.9250  -18.6443   21.7541 C   0  0  0  0  0  0
  -29.7755  -16.3321   20.1482 N   0  0  0  0  0  0
  -31.4459  -12.9022   19.1412 H   0  0  0  0  0  0
  -30.4754  -11.7740   20.0565 H   0  0  0  0  0  0
  -29.8502  -11.6942   17.6275 H   0  0  0  0  0  0
  -29.5439  -13.4066   17.6134 H   0  0  0  0  0  0
  -27.9620  -11.2432   19.0071 H   0  0  0  0  0  0
  -27.3625  -12.3731   17.8245 H   0  0  0  0  0  0
  -27.4531  -14.1841   19.3592 H   0  0  0  0  0  0
  -28.8010  -12.4205   21.4648 H   0  0  0  0  0  0
  -28.3212  -14.0923   21.6820 H   0  0  0  0  0  0
  -25.2649   -9.5629   22.4819 H   0  0  0  0  0  0
  -23.9967   -7.4501   22.7455 H   0  0  0  0  0  0
  -21.0777   -8.8640   19.8949 H   0  0  0  0  0  0
  -22.3542  -10.9623   19.6191 H   0  0  0  0  0  0
  -21.1882   -7.6087   23.9686 H   0  0  0  0  0  0
  -21.1543   -6.0492   25.9087 H   0  0  0  0  0  0
  -22.0612   -2.7556   23.2870 H   0  0  0  0  0  0
  -22.3866  -11.9840   22.4857 H   0  0  0  0  0  0
  -21.0941  -13.1333   22.2676 H   0  0  0  0  0  0
  -24.6463  -15.8418   20.4920 H   0  0  0  0  0  0
  -26.2681  -15.6052   20.0982 H   0  0  0  0  0  0
  -26.7313  -32.5169   23.0911 H   0  0  0  0  0  0
  -25.0072  -33.9506   25.0222 H   0  0  0  0  0  0
  -22.7740  -31.2848   21.3568 H   0  0  0  0  0  0
  -23.3788  -35.9494   23.3182 H   0  0  0  0  0  0
  -24.3618  -36.8963   22.2089 H   0  0  0  0  0  0
  -23.7173  -37.6327   23.6762 H   0  0  0  0  0  0
  -26.1985  -31.4162   20.6130 H   0  0  0  0  0  0
  -26.8859  -30.7221   22.0431 H   0  0  0  0  0  0
  -28.1267  -28.7026   21.2837 H   0  0  0  0  0  0
  -25.9071  -25.7637   19.0362 H   0  0  0  0  0  0
  -23.9871  -27.2716   18.9762 H   0  0  0  0  0  0
  -23.8415  -30.5391   19.3844 H   0  0  0  0  0  0
  -22.8057  -29.2178   19.8310 H   0  0  0  0  0  0
  -25.1293  -36.1724   25.0787 H   0  0  0  0  0  0
  -21.0084  -28.3382   24.1271 H   0  0  0  0  0  0
  -20.5673  -26.2390   23.3639 H   0  0  0  0  0  0
  -21.6669  -26.7419   22.1190 H   0  0  0  0  0  0
  -19.6944  -25.6270   21.1270 H   0  0  0  0  0  0
  -19.6722  -27.3157   20.6719 H   0  0  0  0  0  0
  -17.4226  -26.6695   21.4024 H   0  0  0  0  0  0
  -18.0379  -26.0110   22.9024 H   0  0  0  0  0  0
  -19.7996  -30.7315   24.2184 H   0  0  0  0  0  0
  -17.5089  -31.6292   24.5171 H   0  0  0  0  0  0
  -15.5399  -30.3021   23.7713 H   0  0  0  0  0  0
  -15.8707  -28.0857   22.7087 H   0  0  0  0  0  0
  -24.5844  -30.7185   25.7706 H   0  0  0  0  0  0
  -24.8955  -32.3007   26.4728 H   0  0  0  0  0  0
  -25.7942  -30.8980   27.0201 H   0  0  0  0  0  0
  -26.3112  -29.6582   24.1349 H   0  0  0  0  0  0
  -27.4006  -29.7244   25.4995 H   0  0  0  0  0  0
  -27.9035  -30.4130   23.9763 H   0  0  0  0  0  0
  -27.2606  -33.3645   26.1998 H   0  0  0  0  0  0
  -28.3901  -32.6855   25.0345 H   0  0  0  0  0  0
  -28.0684  -31.8493   26.5463 H   0  0  0  0  0  0
  -28.2444  -38.0165   24.7682 H   0  0  0  0  0  0
  -28.1219  -36.2705   24.5981 H   0  0  0  0  0  0
  -27.2362  -37.1016   25.8843 H   0  0  0  0  0  0
  -20.9481  -29.8744   21.6627 H   0  0  0  0  0  0
  -26.0060  -38.2729   24.1612 H   0  0  0  0  0  0
  -28.9681  -21.3574   18.4319 H   0  0  0  0  0  0
  -27.4650  -21.5586   19.2469 H   0  0  0  0  0  0
  -27.4480  -21.8607   21.7967 H   0  0  0  0  0  0
  -28.9030  -21.6326   22.6761 H   0  0  0  0  0  0
  -28.2663  -23.7170   18.2757 H   0  0  0  0  0  0
  -29.7382  -23.6597   19.1909 H   0  0  0  0  0  0
  -29.6925  -23.8598   21.7381 H   0  0  0  0  0  0
  -28.1439  -23.9844   22.4865 H   0  0  0  0  0  0
  -30.1738  -21.0525   20.5909 H   0  0  0  0  0  0
  -26.9714  -24.2359   20.3427 H   0  0  0  0  0  0
  -29.6878  -16.9065   15.4413 H   0  0  0  0  0  0
  -28.2185  -17.2947   16.3319 H   0  0  0  0  0  0
  -28.7686  -15.6264   16.2217 H   0  0  0  0  0  0
  -31.7142  -16.3106   16.4663 H   0  0  0  0  0  0
  -31.1799  -15.0460   17.5418 H   0  0  0  0  0  0
  -32.0123  -16.4592   18.1812 H   0  0  0  0  0  0
  -29.1408  -17.7167   23.3205 H   0  0  0  0  0  0
  -27.8284  -18.6785   23.9485 H   0  0  0  0  0  0
  -29.2866  -19.4502   23.3109 H   0  0  0  0  0  0
  -25.9288  -18.7970   22.6116 H   0  0  0  0  0  0
  -25.9463  -18.8223   20.8554 H   0  0  0  0  0  0
  -26.3686  -20.2399   21.7780 H   0  0  0  0  0  0
  -30.5379  -17.8253   21.4966 H   0  0  0  0  0  0
  -30.8589  -18.2295   19.8770 H   0  0  0  0  0  0
  -28.7713  -15.3844   18.5459 H   0  0  0  0  0  0
  -28.1731  -16.9603   18.9185 H   0  0  0  0  0  0
  -28.2982  -19.0221   19.7031 H   0  0  0  0  0  0
  -30.1260  -17.9165   17.7115 H   0  0  0  0  0  0
  -27.7606  -17.5827   21.5513 H   0  0  0  0  0  0
  1 25  1  0  0  0
  1 30  2  0  0  0
  1 86  1  0  0  0
  2  3  1  0  0  0
  2 25  1  0  0  0
  2 87  1  0  0  0
  2 88  1  0  0  0
  3  4  1  0  0  0
  3 89  1  0  0  0
  3 90  1  0  0  0
  4  5  1  0  0  0
  4 91  1  0  0  0
  4 92  1  0  0  0
  5  6  1  0  0  0
  5 26  1  0  0  0
  5 93  1  0  0  0
  6 25  1  0  0  0
  6 94  1  0  0  0
  6 95  1  0  0  0
  7  8  2  0  0  0
  7 26  1  0  0  0
  7 29  1  0  0  0
  8  9  1  0  0  0
  8 22  1  0  0  0
  9 10  1  0  0  0
  9 27  2  0  0  0
 10 11  2  0  0  0
 10 15  1  0  0  0
 11 12  1  0  0  0
 11 96  1  0  0  0
 12 13  2  0  0  0
 12 97  1  0  0  0
 13 14  1  0  0  0
 13 31  1  0  0  0
 14 15  2  0  0  0
 14 98  1  0  0  0
 15 99  1  0  0  0
 16 17  2  0  0  0
 16 21  1  0  0  0
 16 31  1  0  0  0
 17 18  1  0  0  0
 17100  1  0  0  0
 18 19  2  0  0  0
 18101  1  0  0  0
 19 20  1  0  0  0
 19 24  1  0  0  0
 20 21  2  0  0  0
 20102  1  0  0  0
 21 23  1  0  0  0
 22 28  1  0  0  0
 22 32  2  0  0  0
 26 27  1  0  0  0
 28103  1  0  0  0
 28104  1  0  0  0
 29105  1  0  0  0
 29106  1  0  0  0
 33 34  1  0  0  0
 33 66  1  0  0  0
 33 70  2  0  0  0
 34 36  1  0  0  0
 34 59  1  0  0  0
 34107  1  0  0  0
 35 44  2  0  0  0
 35 45  1  0  0  0
 35 68  1  0  0  0
 36 56  1  0  0  0
 36108  1  0  0  0
 37 39  1  0  0  0
 37 47  1  0  0  0
 37 66  1  0  0  0
 37109  1  0  0  0
 38 43  2  0  0  0
 38 46  1  0  0  0
 38 47  1  0  0  0
 39 64  1  0  0  0
 39 67  2  0  0  0
 40 52  1  0  0  0
 40 53  2  0  0  0
 40 58  1  0  0  0
 41110  1  0  0  0
 41111  1  0  0  0
 41112  1  0  0  0
 41 48  1  0  0  0
 42 43  1  0  0  0
 42 66  1  0  0  0
 42113  1  0  0  0
 42114  1  0  0  0
 43 44  1  0  0  0
 44115  1  0  0  0
 45 46  2  0  0  0
 45116  1  0  0  0
 46117  1  0  0  0
 47118  1  0  0  0
 47119  1  0  0  0
 48 56  1  0  0  0
 48 65  1  0  0  0
 48120  1  0  0  0
 49 50  1  0  0  0
 49 53  1  0  0  0
 49 64  1  0  0  0
 49121  1  0  0  0
 50 51  1  0  0  0
 50122  1  0  0  0
 50123  1  0  0  0
 51 52  1  0  0  0
 51124  1  0  0  0
 51125  1  0  0  0
 52126  1  0  0  0
 52127  1  0  0  0
 53 54  1  0  0  0
 54 55  2  0  0  0
 54128  1  0  0  0
 55 57  1  0  0  0
 55129  1  0  0  0
 56 69  2  0  0  0
 57 58  2  0  0  0
 57130  1  0  0  0
 58131  1  0  0  0
 59 60  1  0  0  0
 59 61  1  0  0  0
 59 62  1  0  0  0
 60132  1  0  0  0
 60133  1  0  0  0
 60134  1  0  0  0
 61135  1  0  0  0
 61136  1  0  0  0
 61137  1  0  0  0
 62138  1  0  0  0
 62139  1  0  0  0
 62140  1  0  0  0
 63 65  1  0  0  0
 63141  1  0  0  0
 63142  1  0  0  0
 63143  1  0  0  0
 64144  1  0  0  0
 65145  1  0  0  0
 68 76  1  0  0  0
 71 73  1  0  0  0
 71146  1  0  0  0
 71147  1  0  0  0
 71 75  1  0  0  0
 72 74  1  0  0  0
 72 75  1  0  0  0
 72148  1  0  0  0
 72149  1  0  0  0
 73 76  1  0  0  0
 73150  1  0  0  0
 73151  1  0  0  0
 74 76  1  0  0  0
 74152  1  0  0  0
 74153  1  0  0  0
 75 83  1  0  0  0
 75154  1  0  0  0
 76155  1  0  0  0
 77156  1  0  0  0
 77157  1  0  0  0
 77158  1  0  0  0
 77 84  1  0  0  0
 78 84  1  0  0  0
 78159  1  0  0  0
 78160  1  0  0  0
 78161  1  0  0  0
 79162  1  0  0  0
 79163  1  0  0  0
 79164  1  0  0  0
 79 85  1  0  0  0
 80 85  1  0  0  0
 80165  1  0  0  0
 80166  1  0  0  0
 80167  1  0  0  0
 81 86  1  0  0  0
 81168  1  0  0  0
 81169  1  0  0  0
 81 83  1  0  0  0
 82 84  1  0  0  0
 82 86  1  0  0  0
 82170  1  0  0  0
 82171  1  0  0  0
 83 85  1  0  0  0
 83172  1  0  0  0
 84173  1  0  0  0
 85174  1  0  0  0
M  ISO  4   1 100  68 101  76 101  86 100
M  END
> <chiral flag>
0

> <version>
0

> <s_m_source_file>
/data/baiqing/PycharmProjects/Reinvent-master-3.2/result/LINK_invent/BTK/process_docking_weight1_custom_sum_contain_oxygen_bond_distance_aromatic_linkinvent_7_9_3/rearranged_h_0104.sdf

> <i_m_source_file_index>
60

> <r_mmod_Potential_Energy-OPLS-2005>
1141.06494140625

> <r_mmod_Stretch_Energy-OPLS-2005>
391.596801757812

> <r_mmod_Bend_Energy-OPLS-2005>
397.119903564453

> <r_mmod_Torsional_Energy-OPLS-2005>
383.540008544922

> <r_mmod_Improper_Torsional_Energy-OPLS-2005>
9.7302885055542

> <r_mmod_Van_der_Waal_Energy-OPLS-2005>
121.886581420898

> <r_mmod_Electrostatic_Energy-OPLS-2005>
-305.735748291016

> <r_mmod_Solvation_Energy-OPLS-2005>
-171.091217041016

> <b_mmod_Minimization_Converged-OPLS-2005>
0

> <r_mmod_RMS_Derivative-OPLS-2005>
6.70341920852661

$$$$
60
                    3D
 Structure written by MMmdl.
157165  0  0  1  0            999 V2000
  -30.4802  -15.1830   20.3732 C   0  0  0  0  0  0
  -30.4345  -12.7475   19.5273 C   0  0  0  0  0  0
  -29.5327  -12.5632   18.2826 C   0  0  0  0  0  0
  -28.0756  -12.3060   18.7040 C   0  0  0  0  0  0
  -27.6148  -13.2716   19.8255 C   0  0  2  0  0  0
  -28.6493  -13.4174   20.9624 C   0  0  0  0  0  0
  -25.2403  -13.8251   20.5742 C   0  0  0  0  0  0
  -24.1750  -13.0443   20.9257 C   0  0  0  0  0  0
  -24.6395  -11.6939   20.8760 C   0  0  0  0  0  0
  -23.9088  -10.4298   21.0409 C   0  0  0  0  0  0
  -24.3636   -9.4210   21.9184 C   0  0  0  0  0  0
  -23.6308   -8.2246   22.0751 C   0  0  0  0  0  0
  -22.4289   -8.0284   21.3544 C   0  0  0  0  0  0
  -21.9929   -9.0258   20.4644 C   0  0  0  0  0  0
  -22.7261  -10.2135   20.3055 C   0  0  0  0  0  0
  -21.6855   -6.0742   22.5280 C   0  0  0  0  0  0
  -21.4016   -6.5645   23.8216 C   0  0  0  0  0  0
  -21.3658   -5.6794   24.9176 C   0  0  0  0  0  0
  -21.6044   -4.3057   24.7225 C   0  0  0  0  0  0
  -21.8818   -3.8152   23.4346 C   0  0  0  0  0  0
  -21.9194   -4.6969   22.3403 C   0  0  0  0  0  0
  -22.7767  -13.5196   21.1905 C   0  0  0  0  0  0
  -22.1663   -4.2155   21.0978 F   0  0  0  0  0  0
  -21.5626   -3.4540   25.7738 F   0  0  0  0  0  0
  -29.8950  -13.8927   20.3433 N   0  0  0  0  0  0
  -26.2825  -12.9519   20.3216 N   0  0  0  0  0  0
  -25.9330  -11.6627   20.5720 N   0  0  0  0  0  0
  -22.0419  -12.8177   22.0454 N   0  0  0  0  0  0
  -25.4051  -15.1984   20.4182 N   0  0  0  0  0  0
  -31.6968  -15.1720   20.1432 O   0  0  0  0  0  0
  -21.6643   -6.8886   21.4245 O   0  0  0  0  0  0
  -22.3447  -14.5495   20.6740 O   0  0  0  0  0  0
  -24.6592  -31.8291   23.1760 C   0  0  0  0  0  0
  -25.9294  -32.4619   23.8205 C   0  0  1  0  0  0
  -27.2127  -26.9735   20.1729 C   0  0  0  0  0  0
  -25.5980  -33.8430   24.2110 N   0  0  0  0  0  0
  -23.4713  -30.4443   21.5244 C   0  0  2  0  0  0
  -24.9241  -28.8463   20.1096 C   0  0  0  0  0  0
  -22.7649  -29.4468   22.4793 C   0  0  0  0  0  0
  -18.0321  -28.1409   22.8469 C   0  0  0  0  0  0
  -24.1490  -36.7214   23.2642 C   0  0  0  0  0  0
  -26.0391  -30.6505   21.4008 C   0  0  0  0  0  0
  -26.1078  -29.2461   20.7428 C   0  0  0  0  0  0
  -27.2488  -28.3294   20.7541 C   0  0  0  0  0  0
  -26.0017  -26.7239   19.4860 C   0  0  0  0  0  0
  -24.8944  -27.6039   19.4615 C   0  0  0  0  0  0
  -23.7083  -29.7678   20.1477 C   0  0  0  0  0  0
  -25.4127  -36.2981   24.0304 C   0  0  1  0  0  0
  -20.5946  -28.3747   23.1196 C   0  0  2  0  0  0
  -20.6801  -26.9433   22.5398 C   0  0  0  0  0  0
  -19.5770  -26.6380   21.5214 C   0  0  0  0  0  0
  -18.1953  -26.7943   22.1625 C   0  0  0  0  0  0
  -19.1582  -28.8898   23.2821 C   0  0  0  0  0  0
  -18.9492  -30.1491   23.8852 C   0  0  0  0  0  0
  -17.6484  -30.6598   24.0555 C   0  0  0  0  0  0
  -25.9094  -34.9367   23.5022 C   0  0  0  0  0  0
  -16.5374  -29.9085   23.6346 C   0  0  0  0  0  0
  -16.7303  -28.6508   23.0362 C   0  0  0  0  0  0
  -26.4558  -31.6545   25.0713 C   0  0  0  0  0  0
  -25.3697  -31.3794   26.1378 C   0  0  0  0  0  0
  -27.0442  -30.2912   24.6420 C   0  0  0  0  0  0
  -27.6062  -32.4340   25.7508 C   0  0  0  0  0  0
  -27.5573  -37.1756   24.8459 C   0  0  0  0  0  0
  -21.4322  -29.3046   22.3547 N   0  0  0  0  0  0
  -26.4272  -37.3718   23.9418 N   0  0  0  0  0  0
  -24.7441  -31.0001   22.0873 N   0  0  0  0  0  0
  -23.4217  -28.8028   23.3011 O   0  0  0  0  0  0
  -28.1958  -25.8645   20.2607 O   0  0  0  0  0  0
  -26.5689  -34.8894   22.4609 O   0  0  0  0  0  0
  -23.5672  -32.1236   23.6882 O   0  0  0  0  0  0
  -27.6915  -21.5148   20.0657 C   0  0  0  0  0  0
  -29.8357  -22.2517   20.4244 C   0  0  0  0  0  0
  -28.4867  -22.7319   20.2097 C   0  0  0  0  0  0
  -28.1210  -20.0922   20.0929 C   0  0  0  0  0  0
  -30.2933  -20.8332   20.4585 C   0  0  0  0  0  0
  -29.4786  -19.6148   20.2871 C   0  0  0  0  0  0
  -27.0568  -19.0417   19.8398 C   0  0  0  0  0  0
  -30.4791  -17.9683   18.5668 C   0  0  0  0  0  0
  -27.7926  -24.3120   20.0092 C   0  0  0  0  0  0
  -31.7909  -20.6556   20.6651 C   0  0  0  0  0  0
  -30.1439  -18.0148   20.0693 C   0  0  2  0  0  0
  -29.7453  -16.4586   20.4356 N   0  0  0  0  0  0
  -32.0968  -20.1858   21.9623 O   0  0  0  0  0  0
  -31.4619  -12.9254   19.2067 H   0  0  0  0  0  0
  -30.4691  -11.8317   20.1197 H   0  0  0  0  0  0
  -29.8974  -11.7407   17.6656 H   0  0  0  0  0  0
  -29.5819  -13.4594   17.6620 H   0  0  0  0  0  0
  -28.0136  -11.2769   19.0591 H   0  0  0  0  0  0
  -27.4103  -12.3732   17.8424 H   0  0  0  0  0  0
  -27.5402  -14.2462   19.3416 H   0  0  0  0  0  0
  -28.7938  -12.4759   21.4949 H   0  0  0  0  0  0
  -28.3038  -14.1436   21.7000 H   0  0  0  0  0  0
  -25.2780   -9.5687   22.4762 H   0  0  0  0  0  0
  -24.0019   -7.4635   22.7470 H   0  0  0  0  0  0
  -21.0860   -8.8780   19.8948 H   0  0  0  0  0  0
  -22.3721  -10.9675   19.6165 H   0  0  0  0  0  0
  -21.2008   -7.6155   23.9722 H   0  0  0  0  0  0
  -21.1481   -6.0524   25.9079 H   0  0  0  0  0  0
  -22.0596   -2.7615   23.2841 H   0  0  0  0  0  0
  -22.4056  -11.9854   22.4855 H   0  0  0  0  0  0
  -21.1026  -13.1177   22.2642 H   0  0  0  0  0  0
  -24.6344  -15.8479   20.5302 H   0  0  0  0  0  0
  -26.2431  -15.6360   20.0601 H   0  0  0  0  0  0
  -26.7363  -32.5171   23.0924 H   0  0  0  0  0  0
  -25.0107  -33.9519   25.0246 H   0  0  0  0  0  0
  -22.7823  -31.2753   21.3599 H   0  0  0  0  0  0
  -23.3771  -35.9523   23.3258 H   0  0  0  0  0  0
  -24.3578  -36.8900   22.2066 H   0  0  0  0  0  0
  -23.7221  -37.6383   23.6718 H   0  0  0  0  0  0
  -26.2146  -31.3961   20.6243 H   0  0  0  0  0  0
  -26.9013  -30.7046   22.0537 H   0  0  0  0  0  0
  -28.1421  -28.6304   21.2833 H   0  0  0  0  0  0
  -25.8628  -25.7799   18.9822 H   0  0  0  0  0  0
  -23.9959  -27.2933   18.9456 H   0  0  0  0  0  0
  -23.8591  -30.5399   19.3921 H   0  0  0  0  0  0
  -22.8189  -29.2204   19.8304 H   0  0  0  0  0  0
  -25.1319  -36.1780   25.0794 H   0  0  0  0  0  0
  -21.0038  -28.3349   24.1319 H   0  0  0  0  0  0
  -20.5687  -26.2363   23.3633 H   0  0  0  0  0  0
  -21.6664  -26.7417   22.1200 H   0  0  0  0  0  0
  -19.6924  -25.6279   21.1273 H   0  0  0  0  0  0
  -19.6710  -27.3168   20.6725 H   0  0  0  0  0  0
  -17.4222  -26.6687   21.4031 H   0  0  0  0  0  0
  -18.0348  -26.0099   22.9036 H   0  0  0  0  0  0
  -19.7965  -30.7324   24.2198 H   0  0  0  0  0  0
  -17.5034  -31.6274   24.5162 H   0  0  0  0  0  0
  -15.5372  -30.2968   23.7699 H   0  0  0  0  0  0
  -15.8706  -28.0812   22.7096 H   0  0  0  0  0  0
  -24.5879  -30.7141   25.7695 H   0  0  0  0  0  0
  -24.8887  -32.3000   26.4694 H   0  0  0  0  0  0
  -25.7938  -30.9032   27.0226 H   0  0  0  0  0  0
  -26.3101  -29.6602   24.1400 H   0  0  0  0  0  0
  -27.3954  -29.7262   25.5064 H   0  0  0  0  0  0
  -27.9055  -30.4097   23.9843 H   0  0  0  0  0  0
  -27.2643  -33.3685   26.1969 H   0  0  0  0  0  0
  -28.3937  -32.6826   25.0381 H   0  0  0  0  0  0
  -28.0659  -31.8539   26.5519 H   0  0  0  0  0  0
  -28.2547  -38.0096   24.7550 H   0  0  0  0  0  0
  -28.1114  -36.2625   24.6226 H   0  0  0  0  0  0
  -27.2301  -37.1330   25.8863 H   0  0  0  0  0  0
  -20.9559  -29.8744   21.6695 H   0  0  0  0  0  0
  -26.0119  -38.2769   24.1458 H   0  0  0  0  0  0
  -26.6406  -21.6869   19.8781 H   0  0  0  0  0  0
  -30.5855  -23.0212   20.5441 H   0  0  0  0  0  0
  -26.0525  -19.4496   19.9559 H   0  0  0  0  0  0
  -27.1581  -18.2131   20.5410 H   0  0  0  0  0  0
  -27.1476  -18.6470   18.8275 H   0  0  0  0  0  0
  -31.0344  -18.8510   18.2506 H   0  0  0  0  0  0
  -29.5681  -17.9318   17.9692 H   0  0  0  0  0  0
  -31.0849  -17.1039   18.2970 H   0  0  0  0  0  0
  -26.8441  -24.2135   20.5380 H   0  0  0  0  0  0
  -27.5208  -24.2965   18.9538 H   0  0  0  0  0  0
  -32.3156  -21.5989   20.5052 H   0  0  0  0  0  0
  -32.1982  -19.9714   19.9218 H   0  0  0  0  0  0
  -31.0954  -18.0791   20.5948 H   0  0  0  0  0  0
  -28.7659  -16.3341   20.6435 H   0  0  0  0  0  0
  -31.8230  -20.8562   22.5801 H   0  0  0  0  0  0
  1 25  1  0  0  0
  1 30  2  0  0  0
  1 82  1  0  0  0
  2  3  1  0  0  0
  2 25  1  0  0  0
  2 84  1  0  0  0
  2 85  1  0  0  0
  3  4  1  0  0  0
  3 86  1  0  0  0
  3 87  1  0  0  0
  4  5  1  0  0  0
  4 88  1  0  0  0
  4 89  1  0  0  0
  5  6  1  0  0  0
  5 26  1  0  0  0
  5 90  1  0  0  0
  6 25  1  0  0  0
  6 91  1  0  0  0
  6 92  1  0  0  0
  7  8  2  0  0  0
  7 26  1  0  0  0
  7 29  1  0  0  0
  8  9  1  0  0  0
  8 22  1  0  0  0
  9 10  1  0  0  0
  9 27  2  0  0  0
 10 11  2  0  0  0
 10 15  1  0  0  0
 11 12  1  0  0  0
 11 93  1  0  0  0
 12 13  2  0  0  0
 12 94  1  0  0  0
 13 14  1  0  0  0
 13 31  1  0  0  0
 14 15  2  0  0  0
 14 95  1  0  0  0
 15 96  1  0  0  0
 16 17  2  0  0  0
 16 21  1  0  0  0
 16 31  1  0  0  0
 17 18  1  0  0  0
 17 97  1  0  0  0
 18 19  2  0  0  0
 18 98  1  0  0  0
 19 20  1  0  0  0
 19 24  1  0  0  0
 20 21  2  0  0  0
 20 99  1  0  0  0
 21 23  1  0  0  0
 22 28  1  0  0  0
 22 32  2  0  0  0
 26 27  1  0  0  0
 28100  1  0  0  0
 28101  1  0  0  0
 29102  1  0  0  0
 29103  1  0  0  0
 33 34  1  0  0  0
 33 66  1  0  0  0
 33 70  2  0  0  0
 34 36  1  0  0  0
 34 59  1  0  0  0
 34104  1  0  0  0
 35 44  2  0  0  0
 35 45  1  0  0  0
 35 68  1  0  0  0
 36 56  1  0  0  0
 36105  1  0  0  0
 37 39  1  0  0  0
 37 47  1  0  0  0
 37 66  1  0  0  0
 37106  1  0  0  0
 38 43  2  0  0  0
 38 46  1  0  0  0
 38 47  1  0  0  0
 39 64  1  0  0  0
 39 67  2  0  0  0
 40 52  1  0  0  0
 40 53  2  0  0  0
 40 58  1  0  0  0
 41107  1  0  0  0
 41108  1  0  0  0
 41109  1  0  0  0
 41 48  1  0  0  0
 42 43  1  0  0  0
 42 66  1  0  0  0
 42110  1  0  0  0
 42111  1  0  0  0
 43 44  1  0  0  0
 44112  1  0  0  0
 45 46  2  0  0  0
 45113  1  0  0  0
 46114  1  0  0  0
 47115  1  0  0  0
 47116  1  0  0  0
 48 56  1  0  0  0
 48 65  1  0  0  0
 48117  1  0  0  0
 49 50  1  0  0  0
 49 53  1  0  0  0
 49 64  1  0  0  0
 49118  1  0  0  0
 50 51  1  0  0  0
 50119  1  0  0  0
 50120  1  0  0  0
 51 52  1  0  0  0
 51121  1  0  0  0
 51122  1  0  0  0
 52123  1  0  0  0
 52124  1  0  0  0
 53 54  1  0  0  0
 54 55  2  0  0  0
 54125  1  0  0  0
 55 57  1  0  0  0
 55126  1  0  0  0
 56 69  2  0  0  0
 57 58  2  0  0  0
 57127  1  0  0  0
 58128  1  0  0  0
 59 60  1  0  0  0
 59 61  1  0  0  0
 59 62  1  0  0  0
 60129  1  0  0  0
 60130  1  0  0  0
 60131  1  0  0  0
 61132  1  0  0  0
 61133  1  0  0  0
 61134  1  0  0  0
 62135  1  0  0  0
 62136  1  0  0  0
 62137  1  0  0  0
 63 65  1  0  0  0
 63138  1  0  0  0
 63139  1  0  0  0
 63140  1  0  0  0
 64141  1  0  0  0
 65142  1  0  0  0
 68 79  1  0  0  0
 71 73  2  0  0  0
 71 74  1  0  0  0
 71143  1  0  0  0
 72 73  1  0  0  0
 72 75  2  0  0  0
 72144  1  0  0  0
 73 79  1  0  0  0
 74 76  2  0  0  0
 74 77  1  0  0  0
 75 76  1  0  0  0
 75 80  1  0  0  0
 76 81  1  0  0  0
 77145  1  0  0  0
 77146  1  0  0  0
 77147  1  0  0  0
 78148  1  0  0  0
 78149  1  0  0  0
 78150  1  0  0  0
 78 81  1  0  0  0
 79151  1  0  0  0
 79152  1  0  0  0
 80 83  1  0  0  0
 80153  1  0  0  0
 80154  1  0  0  0
 81 82  1  0  0  0
 81155  1  0  0  0
 82156  1  0  0  0
 83157  1  0  0  0
M  ISO  4   1 100  68 101  79 101  82 100
M  END
> <chiral flag>
0

> <version>
0

> <s_m_source_file>
/data/baiqing/PycharmProjects/Reinvent-master-3.2/result/LINK_invent/BTK/process_docking_weight1_custom_sum_contain_oxygen_bond_distance_aromatic_linkinvent_7_9_3/rearranged_h_0104.sdf

> <i_m_source_file_index>
61

> <r_mmod_Potential_Energy-OPLS-2005>
1017.02996826172

> <r_mmod_Stretch_Energy-OPLS-2005>
457.987426757812

> <r_mmod_Bend_Energy-OPLS-2005>
432.275421142578

> <r_mmod_Torsional_Energy-OPLS-2005>
219.133651733398

> <r_mmod_Improper_Torsional_Energy-OPLS-2005>
6.92114639282227

> <r_mmod_Van_der_Waal_Energy-OPLS-2005>
130.473495483398

> <r_mmod_Electrostatic_Energy-OPLS-2005>
-390.921173095703

> <r_mmod_Solvation_Energy-OPLS-2005>
-225.538116455078

> <b_mmod_Minimization_Converged-OPLS-2005>
0

> <r_mmod_RMS_Derivative-OPLS-2005>
0.65270733833313

$$$$
61
                    3D
 Structure written by MMmdl.
158166  0  0  1  0            999 V2000
  -30.4738  -15.2003   20.3797 C   0  0  0  0  0  0
  -30.4372  -12.7645   19.5205 C   0  0  0  0  0  0
  -29.5310  -12.5632   18.2815 C   0  0  0  0  0  0
  -28.0772  -12.2991   18.7100 C   0  0  0  0  0  0
  -27.6140  -13.2704   19.8248 C   0  0  2  0  0  0
  -28.6501  -13.4247   20.9585 C   0  0  0  0  0  0
  -25.2399  -13.8246   20.5743 C   0  0  0  0  0  0
  -24.1746  -13.0440   20.9254 C   0  0  0  0  0  0
  -24.6395  -11.6936   20.8765 C   0  0  0  0  0  0
  -23.9088  -10.4294   21.0408 C   0  0  0  0  0  0
  -24.3636   -9.4207   21.9184 C   0  0  0  0  0  0
  -23.6302   -8.2245   22.0755 C   0  0  0  0  0  0
  -22.4283   -8.0284   21.3544 C   0  0  0  0  0  0
  -21.9926   -9.0261   20.4647 C   0  0  0  0  0  0
  -22.7260  -10.2137   20.3056 C   0  0  0  0  0  0
  -21.6858   -6.0738   22.5275 C   0  0  0  0  0  0
  -21.4016   -6.5641   23.8209 C   0  0  0  0  0  0
  -21.3659   -5.6793   24.9171 C   0  0  0  0  0  0
  -21.6044   -4.3056   24.7221 C   0  0  0  0  0  0
  -21.8819   -3.8147   23.4342 C   0  0  0  0  0  0
  -21.9193   -4.6964   22.3398 C   0  0  0  0  0  0
  -22.7763  -13.5194   21.1899 C   0  0  0  0  0  0
  -22.1661   -4.2150   21.0976 F   0  0  0  0  0  0
  -21.5629   -3.4538   25.7735 F   0  0  0  0  0  0
  -29.8909  -13.9084   20.3339 N   0  0  0  0  0  0
  -26.2825  -12.9512   20.3227 N   0  0  0  0  0  0
  -25.9329  -11.6620   20.5731 N   0  0  0  0  0  0
  -22.0421  -12.8177   22.0455 N   0  0  0  0  0  0
  -25.4039  -15.1979   20.4169 N   0  0  0  0  0  0
  -31.6933  -15.1959   20.1639 O   0  0  0  0  0  0
  -21.6644   -6.8884   21.4238 O   0  0  0  0  0  0
  -22.3439  -14.5491   20.6735 O   0  0  0  0  0  0
  -24.6604  -31.8279   23.1751 C   0  0  0  0  0  0
  -25.9300  -32.4609   23.8200 C   0  0  1  0  0  0
  -27.2149  -26.9640   20.1733 C   0  0  0  0  0  0
  -25.5983  -33.8425   24.2104 N   0  0  0  0  0  0
  -23.4730  -30.4428   21.5239 C   0  0  2  0  0  0
  -24.9260  -28.8422   20.1095 C   0  0  0  0  0  0
  -22.7658  -29.4467   22.4795 C   0  0  0  0  0  0
  -18.0323  -28.1410   22.8472 C   0  0  0  0  0  0
  -24.1490  -36.7214   23.2647 C   0  0  0  0  0  0
  -26.0415  -30.6454   21.4022 C   0  0  0  0  0  0
  -26.1093  -29.2399   20.7447 C   0  0  0  0  0  0
  -27.2487  -28.3202   20.7576 C   0  0  0  0  0  0
  -26.0061  -26.7213   19.4791 C   0  0  0  0  0  0
  -24.8985  -27.6021   19.4568 C   0  0  0  0  0  0
  -23.7104  -29.7647   20.1476 C   0  0  0  0  0  0
  -25.4130  -36.2979   24.0303 C   0  0  1  0  0  0
  -20.5948  -28.3752   23.1197 C   0  0  2  0  0  0
  -20.6802  -26.9436   22.5404 C   0  0  0  0  0  0
  -19.5772  -26.6378   21.5220 C   0  0  0  0  0  0
  -18.1953  -26.7948   22.1624 C   0  0  0  0  0  0
  -19.1585  -28.8903   23.2821 C   0  0  0  0  0  0
  -18.9496  -30.1493   23.8853 C   0  0  0  0  0  0
  -17.6489  -30.6600   24.0558 C   0  0  0  0  0  0
  -25.9095  -34.9360   23.5020 C   0  0  0  0  0  0
  -16.5379  -29.9089   23.6342 C   0  0  0  0  0  0
  -16.7304  -28.6510   23.0363 C   0  0  0  0  0  0
  -26.4559  -31.6543   25.0715 C   0  0  0  0  0  0
  -25.3693  -31.3794   26.1377 C   0  0  0  0  0  0
  -27.0453  -30.2914   24.6431 C   0  0  0  0  0  0
  -27.6055  -32.4350   25.7512 C   0  0  0  0  0  0
  -27.5568  -37.1764   24.8467 C   0  0  0  0  0  0
  -21.4332  -29.3049   22.3549 N   0  0  0  0  0  0
  -26.4276  -37.3712   23.9413 N   0  0  0  0  0  0
  -24.7460  -30.9978   22.0873 N   0  0  0  0  0  0
  -23.4225  -28.8026   23.3013 O   0  0  0  0  0  0
  -28.1952  -25.8494   20.2695 O   0  0  0  0  0  0
  -26.5699  -34.8887   22.4611 O   0  0  0  0  0  0
  -23.5680  -32.1230   23.6863 O   0  0  0  0  0  0
  -28.0654  -20.0872   20.4447 C   0  0  0  0  0  0
  -30.1871  -20.8992   20.2085 C   0  0  0  0  0  0
  -29.4350  -19.6494   20.3427 C   0  0  0  0  0  0
  -27.5850  -21.4945   20.4004 C   0  0  0  0  0  0
  -28.4361  -22.6853   20.2630 C   0  0  0  0  0  0
  -25.0773  -19.9930   22.0108 C   0  0  0  0  0  0
  -23.6870  -20.9694   20.1536 C   0  0  0  0  0  0
  -26.0730  -21.7604   20.4476 C   0  0  0  0  0  0
  -30.1680  -18.0645   20.3542 C   0  0  0  0  0  0
  -27.8025  -24.2963   19.9783 C   0  0  0  0  0  0
  -25.1054  -20.5598   20.5797 C   0  0  0  0  0  0
  -29.7554  -22.2577   20.1589 N   0  0  0  0  0  0
  -29.7345  -16.4741   20.4607 N   0  0  0  0  0  0
  -31.4600  -12.9539   19.1922 H   0  0  0  0  0  0
  -30.4875  -11.8526   20.1177 H   0  0  0  0  0  0
  -29.8991  -11.7382   17.6701 H   0  0  0  0  0  0
  -29.5709  -13.4538   17.6525 H   0  0  0  0  0  0
  -28.0253  -11.2729   19.0760 H   0  0  0  0  0  0
  -27.4080  -12.3511   17.8507 H   0  0  0  0  0  0
  -27.5362  -14.2420   19.3352 H   0  0  0  0  0  0
  -28.8030  -12.4853   21.4921 H   0  0  0  0  0  0
  -28.3020  -14.1500   21.6957 H   0  0  0  0  0  0
  -25.2779   -9.5681   22.4763 H   0  0  0  0  0  0
  -24.0008   -7.4635   22.7478 H   0  0  0  0  0  0
  -21.0856   -8.8783   19.8951 H   0  0  0  0  0  0
  -22.3717  -10.9679   19.6168 H   0  0  0  0  0  0
  -21.2009   -7.6150   23.9714 H   0  0  0  0  0  0
  -21.1482   -6.0523   25.9076 H   0  0  0  0  0  0
  -22.0599   -2.7608   23.2840 H   0  0  0  0  0  0
  -22.4056  -11.9846   22.4843 H   0  0  0  0  0  0
  -21.1033  -13.1181   22.2661 H   0  0  0  0  0  0
  -24.6323  -15.8469   20.5264 H   0  0  0  0  0  0
  -26.2426  -15.6375   20.0621 H   0  0  0  0  0  0
  -26.7370  -32.5158   23.0917 H   0  0  0  0  0  0
  -25.0095  -33.9515   25.0230 H   0  0  0  0  0  0
  -22.7839  -31.2736   21.3577 H   0  0  0  0  0  0
  -23.3763  -35.9534   23.3282 H   0  0  0  0  0  0
  -24.3571  -36.8885   22.2067 H   0  0  0  0  0  0
  -23.7230  -37.6391   23.6715 H   0  0  0  0  0  0
  -26.2198  -31.3890   20.6242 H   0  0  0  0  0  0
  -26.9032  -30.6995   22.0559 H   0  0  0  0  0  0
  -28.1392  -28.6191   21.2923 H   0  0  0  0  0  0
  -25.8682  -25.7812   18.9674 H   0  0  0  0  0  0
  -24.0010  -27.2942   18.9377 H   0  0  0  0  0  0
  -23.8630  -30.5363   19.3922 H   0  0  0  0  0  0
  -22.8207  -29.2186   19.8280 H   0  0  0  0  0  0
  -25.1323  -36.1779   25.0793 H   0  0  0  0  0  0
  -21.0036  -28.3356   24.1321 H   0  0  0  0  0  0
  -20.5694  -26.2371   23.3645 H   0  0  0  0  0  0
  -21.6664  -26.7422   22.1202 H   0  0  0  0  0  0
  -19.6933  -25.6278   21.1277 H   0  0  0  0  0  0
  -19.6709  -27.3166   20.6735 H   0  0  0  0  0  0
  -17.4225  -26.6700   21.4021 H   0  0  0  0  0  0
  -18.0337  -26.0102   22.9028 H   0  0  0  0  0  0
  -19.7971  -30.7325   24.2200 H   0  0  0  0  0  0
  -17.5039  -31.6275   24.5171 H   0  0  0  0  0  0
  -15.5376  -30.2976   23.7697 H   0  0  0  0  0  0
  -15.8704  -28.0812   22.7105 H   0  0  0  0  0  0
  -24.5887  -30.7125   25.7694 H   0  0  0  0  0  0
  -24.8867  -32.2998   26.4676 H   0  0  0  0  0  0
  -25.7931  -30.9048   27.0236 H   0  0  0  0  0  0
  -26.3120  -29.6598   24.1407 H   0  0  0  0  0  0
  -27.3965  -29.7266   25.5076 H   0  0  0  0  0  0
  -27.9064  -30.4108   23.9855 H   0  0  0  0  0  0
  -27.2625  -33.3695   26.1968 H   0  0  0  0  0  0
  -28.3925  -32.6846   25.0382 H   0  0  0  0  0  0
  -28.0656  -31.8559   26.5529 H   0  0  0  0  0  0
  -28.2569  -38.0074   24.7514 H   0  0  0  0  0  0
  -28.1074  -36.2602   24.6287 H   0  0  0  0  0  0
  -27.2291  -37.1399   25.8871 H   0  0  0  0  0  0
  -20.9582  -29.8741   21.6681 H   0  0  0  0  0  0
  -26.0124  -38.2769   24.1426 H   0  0  0  0  0  0
  -27.3555  -19.2830   20.5436 H   0  0  0  0  0  0
  -31.2590  -20.8059   20.1140 H   0  0  0  0  0  0
  -24.4376  -19.1118   22.0713 H   0  0  0  0  0  0
  -24.6916  -20.7279   22.7183 H   0  0  0  0  0  0
  -26.0662  -19.6993   22.3610 H   0  0  0  0  0  0
  -22.9945  -20.1301   20.2263 H   0  0  0  0  0  0
  -23.6683  -21.3146   19.1189 H   0  0  0  0  0  0
  -23.2989  -21.7748   20.7783 H   0  0  0  0  0  0
  -25.8292  -22.2890   19.5244 H   0  0  0  0  0  0
  -25.8650  -22.4545   21.2630 H   0  0  0  0  0  0
  -30.9109  -18.1566   21.1475 H   0  0  0  0  0  0
  -30.7709  -18.0795   19.4455 H   0  0  0  0  0  0
  -26.8161  -24.2566   20.4320 H   0  0  0  0  0  0
  -27.6127  -24.2826   18.9051 H   0  0  0  0  0  0
  -25.3968  -19.7768   19.8795 H   0  0  0  0  0  0
  -28.7439  -16.3334   20.5909 H   0  0  0  0  0  0
  1 25  1  0  0  0
  1 30  2  0  0  0
  1 83  1  0  0  0
  2  3  1  0  0  0
  2 25  1  0  0  0
  2 84  1  0  0  0
  2 85  1  0  0  0
  3  4  1  0  0  0
  3 86  1  0  0  0
  3 87  1  0  0  0
  4  5  1  0  0  0
  4 88  1  0  0  0
  4 89  1  0  0  0
  5  6  1  0  0  0
  5 26  1  0  0  0
  5 90  1  0  0  0
  6 25  1  0  0  0
  6 91  1  0  0  0
  6 92  1  0  0  0
  7  8  2  0  0  0
  7 26  1  0  0  0
  7 29  1  0  0  0
  8  9  1  0  0  0
  8 22  1  0  0  0
  9 10  1  0  0  0
  9 27  2  0  0  0
 10 11  2  0  0  0
 10 15  1  0  0  0
 11 12  1  0  0  0
 11 93  1  0  0  0
 12 13  2  0  0  0
 12 94  1  0  0  0
 13 14  1  0  0  0
 13 31  1  0  0  0
 14 15  2  0  0  0
 14 95  1  0  0  0
 15 96  1  0  0  0
 16 17  2  0  0  0
 16 21  1  0  0  0
 16 31  1  0  0  0
 17 18  1  0  0  0
 17 97  1  0  0  0
 18 19  2  0  0  0
 18 98  1  0  0  0
 19 20  1  0  0  0
 19 24  1  0  0  0
 20 21  2  0  0  0
 20 99  1  0  0  0
 21 23  1  0  0  0
 22 28  1  0  0  0
 22 32  2  0  0  0
 26 27  1  0  0  0
 28100  1  0  0  0
 28101  1  0  0  0
 29102  1  0  0  0
 29103  1  0  0  0
 33 34  1  0  0  0
 33 66  1  0  0  0
 33 70  2  0  0  0
 34 36  1  0  0  0
 34 59  1  0  0  0
 34104  1  0  0  0
 35 44  2  0  0  0
 35 45  1  0  0  0
 35 68  1  0  0  0
 36 56  1  0  0  0
 36105  1  0  0  0
 37 39  1  0  0  0
 37 47  1  0  0  0
 37 66  1  0  0  0
 37106  1  0  0  0
 38 43  2  0  0  0
 38 46  1  0  0  0
 38 47  1  0  0  0
 39 64  1  0  0  0
 39 67  2  0  0  0
 40 52  1  0  0  0
 40 53  2  0  0  0
 40 58  1  0  0  0
 41107  1  0  0  0
 41108  1  0  0  0
 41109  1  0  0  0
 41 48  1  0  0  0
 42 43  1  0  0  0
 42 66  1  0  0  0
 42110  1  0  0  0
 42111  1  0  0  0
 43 44  1  0  0  0
 44112  1  0  0  0
 45 46  2  0  0  0
 45113  1  0  0  0
 46114  1  0  0  0
 47115  1  0  0  0
 47116  1  0  0  0
 48 56  1  0  0  0
 48 65  1  0  0  0
 48117  1  0  0  0
 49 50  1  0  0  0
 49 53  1  0  0  0
 49 64  1  0  0  0
 49118  1  0  0  0
 50 51  1  0  0  0
 50119  1  0  0  0
 50120  1  0  0  0
 51 52  1  0  0  0
 51121  1  0  0  0
 51122  1  0  0  0
 52123  1  0  0  0
 52124  1  0  0  0
 53 54  1  0  0  0
 54 55  2  0  0  0
 54125  1  0  0  0
 55 57  1  0  0  0
 55126  1  0  0  0
 56 69  2  0  0  0
 57 58  2  0  0  0
 57127  1  0  0  0
 58128  1  0  0  0
 59 60  1  0  0  0
 59 61  1  0  0  0
 59 62  1  0  0  0
 60129  1  0  0  0
 60130  1  0  0  0
 60131  1  0  0  0
 61132  1  0  0  0
 61133  1  0  0  0
 61134  1  0  0  0
 62135  1  0  0  0
 62136  1  0  0  0
 62137  1  0  0  0
 63 65  1  0  0  0
 63138  1  0  0  0
 63139  1  0  0  0
 63140  1  0  0  0
 64141  1  0  0  0
 65142  1  0  0  0
 68 80  1  0  0  0
 71 73  2  0  0  0
 71 74  1  0  0  0
 71143  1  0  0  0
 72 73  1  0  0  0
 72 82  2  0  0  0
 72144  1  0  0  0
 73 79  1  0  0  0
 74 75  2  0  0  0
 74 78  1  0  0  0
 75 80  1  0  0  0
 75 82  1  0  0  0
 76145  1  0  0  0
 76146  1  0  0  0
 76147  1  0  0  0
 76 81  1  0  0  0
 77 81  1  0  0  0
 77148  1  0  0  0
 77149  1  0  0  0
 77150  1  0  0  0
 78 81  1  0  0  0
 78151  1  0  0  0
 78152  1  0  0  0
 79 83  1  0  0  0
 79153  1  0  0  0
 79154  1  0  0  0
 80155  1  0  0  0
 80156  1  0  0  0
 81157  1  0  0  0
 83158  1  0  0  0
M  ISO  4   1 100  68 101  80 101  83 100
M  END
> <chiral flag>
0

> <version>
0

> <s_m_source_file>
/data/baiqing/PycharmProjects/Reinvent-master-3.2/result/LINK_invent/BTK/process_docking_weight1_custom_sum_contain_oxygen_bond_distance_aromatic_linkinvent_7_9_3/rearranged_h_0104.sdf

> <i_m_source_file_index>
62

> <r_mmod_Potential_Energy-OPLS-2005>
986.324768066406

> <r_mmod_Stretch_Energy-OPLS-2005>
475.895477294922

> <r_mmod_Bend_Energy-OPLS-2005>
448.937683105469

> <r_mmod_Torsional_Energy-OPLS-2005>
206.944473266602

> <r_mmod_Improper_Torsional_Energy-OPLS-2005>
5.43417072296143

> <r_mmod_Van_der_Waal_Energy-OPLS-2005>
140.393661499023

> <r_mmod_Electrostatic_Energy-OPLS-2005>
-463.271240234375

> <r_mmod_Solvation_Energy-OPLS-2005>
-231.751129150391

> <b_mmod_Minimization_Converged-OPLS-2005>
0

> <r_mmod_RMS_Derivative-OPLS-2005>
0.626729369163513

$$$$
62
                    3D
 Structure written by MMmdl.
172180  0  0  1  0            999 V2000
  -30.5797  -14.7477   20.4574 C   0  0  0  0  0  0
  -30.4436  -12.4605   19.4477 C   0  0  0  0  0  0
  -29.5129  -12.5122   18.2174 C   0  0  0  0  0  0
  -28.0363  -12.3334   18.6340 C   0  0  0  0  0  0
  -27.6425  -13.2255   19.8422 C   0  0  2  0  0  0
  -28.6917  -13.1417   20.9695 C   0  0  0  0  0  0
  -25.2521  -13.8179   20.5656 C   0  0  0  0  0  0
  -24.1841  -13.0438   20.9247 C   0  0  0  0  0  0
  -24.6412  -11.6912   20.8758 C   0  0  0  0  0  0
  -23.9085  -10.4283   21.0396 C   0  0  0  0  0  0
  -24.3650   -9.4204   21.9168 C   0  0  0  0  0  0
  -23.6332   -8.2233   22.0741 C   0  0  0  0  0  0
  -22.4299   -8.0279   21.3557 C   0  0  0  0  0  0
  -21.9931   -9.0248   20.4650 C   0  0  0  0  0  0
  -22.7264  -10.2120   20.3057 C   0  0  0  0  0  0
  -21.6855   -6.0752   22.5294 C   0  0  0  0  0  0
  -21.4008   -6.5650   23.8230 C   0  0  0  0  0  0
  -21.3664   -5.6804   24.9184 C   0  0  0  0  0  0
  -21.6047   -4.3072   24.7228 C   0  0  0  0  0  0
  -21.8829   -3.8165   23.4349 C   0  0  0  0  0  0
  -21.9192   -4.6981   22.3414 C   0  0  0  0  0  0
  -22.7847  -13.5216   21.1907 C   0  0  0  0  0  0
  -22.1658   -4.2167   21.0983 F   0  0  0  0  0  0
  -21.5624   -3.4558   25.7734 F   0  0  0  0  0  0
  -29.9858  -13.5116   20.3815 N   0  0  0  0  0  0
  -26.2956  -12.9361   20.3248 N   0  0  0  0  0  0
  -25.9331  -11.6525   20.5759 N   0  0  0  0  0  0
  -22.0463  -12.8188   22.0428 N   0  0  0  0  0  0
  -25.4168  -15.1897   20.3948 N   0  0  0  0  0  0
  -31.7775  -14.8900   20.2004 O   0  0  0  0  0  0
  -21.6649   -6.8890   21.4261 O   0  0  0  0  0  0
  -22.3521  -14.5493   20.6730 O   0  0  0  0  0  0
  -24.6321  -31.8570   23.1989 C   0  0  0  0  0  0
  -25.9127  -32.4788   23.8348 C   0  0  1  0  0  0
  -27.2096  -27.2423   20.1336 C   0  0  0  0  0  0
  -25.5908  -33.8596   24.2268 N   0  0  0  0  0  0
  -23.4301  -30.4802   21.5434 C   0  0  2  0  0  0
  -24.8744  -28.9224   20.1150 C   0  0  0  0  0  0
  -22.7515  -29.4619   22.4918 C   0  0  0  0  0  0
  -18.0290  -28.1399   22.8461 C   0  0  0  0  0  0
  -24.1480  -36.7266   23.2631 C   0  0  0  0  0  0
  -25.9784  -30.7617   21.3836 C   0  0  0  0  0  0
  -26.0475  -29.3827   20.7250 C   0  0  0  0  0  0
  -27.2157  -28.5526   20.7258 C   0  0  0  0  0  0
  -26.0178  -26.8641   19.4753 C   0  0  0  0  0  0
  -24.8632  -27.6715   19.4815 C   0  0  0  0  0  0
  -23.6497  -29.8139   20.1606 C   0  0  0  0  0  0
  -25.4115  -36.3105   24.0328 C   0  0  1  0  0  0
  -20.5896  -28.3724   23.1234 C   0  0  2  0  0  0
  -20.6799  -26.9437   22.5392 C   0  0  0  0  0  0
  -19.5793  -26.6396   21.5180 C   0  0  0  0  0  0
  -18.1957  -26.7939   22.1575 C   0  0  0  0  0  0
  -19.1549  -28.8865   23.2852 C   0  0  0  0  0  0
  -18.9468  -30.1451   23.8915 C   0  0  0  0  0  0
  -17.6483  -30.6599   24.0552 C   0  0  0  0  0  0
  -25.9060  -34.9473   23.5107 C   0  0  0  0  0  0
  -16.5366  -29.9111   23.6325 C   0  0  0  0  0  0
  -16.7282  -28.6513   23.0356 C   0  0  0  0  0  0
  -26.4483  -31.6629   25.0750 C   0  0  0  0  0  0
  -25.3661  -31.3770   26.1432 C   0  0  0  0  0  0
  -27.0318  -30.3057   24.6223 C   0  0  0  0  0  0
  -27.6094  -32.4318   25.7493 C   0  0  0  0  0  0
  -27.5592  -37.1790   24.8451 C   0  0  0  0  0  0
  -21.4217  -29.3065   22.3632 N   0  0  0  0  0  0
  -26.4291  -37.3810   23.9413 N   0  0  0  0  0  0
  -24.6993  -31.0515   22.0974 N   0  0  0  0  0  0
  -23.4191  -28.8165   23.3037 O   0  0  0  0  0  0
  -28.2938  -26.3313   20.2138 O   0  0  0  0  0  0
  -26.5657  -34.8940   22.4696 O   0  0  0  0  0  0
  -23.5459  -32.1378   23.7271 O   0  0  0  0  0  0
  -28.1099  -21.6628   19.1394 C   0  0  0  0  0  0
  -28.9745  -22.1661   20.1529 C   0  0  0  0  0  0
  -28.2979  -20.3153   18.9317 C   0  0  0  0  0  0
  -29.6301  -20.9930   20.6117 C   0  0  0  0  0  0
  -30.5228  -24.2085   20.2883 C   0  0  0  0  0  0
  -28.5377  -19.3156   16.6208 C   0  0  0  0  0  0
  -26.2459  -19.9061   17.4462 C   0  0  0  0  0  0
  -30.3693  -21.6185   22.9870 C   0  0  0  0  0  0
  -32.0992  -20.8209   21.3040 C   0  0  0  0  0  0
  -29.9119  -18.4289   19.7371 C   0  0  0  0  0  0
  -29.9405  -17.3264   20.9173 C   0  0  0  0  0  0
  -28.0956  -24.8553   19.9307 C   0  0  0  0  0  0
  -29.0942  -23.7283   20.5530 C   0  0  1  0  0  0
  -27.6517  -19.4437   17.8735 C   0  0  0  0  0  0
  -30.6223  -20.7676   21.7348 C   0  0  0  0  0  0
  -29.2802  -19.8473   19.8199 N   0  0  0  0  0  0
  -29.7353  -15.8344   20.6225 N   0  0  0  0  0  0
  -31.4793  -12.6080   19.1386 H   0  0  0  0  0  0
  -30.4041  -11.4795   19.9236 H   0  0  0  0  0  0
  -29.7947  -11.7411   17.4993 H   0  0  0  0  0  0
  -29.6381  -13.4685   17.7066 H   0  0  0  0  0  0
  -27.8924  -11.2840   18.8931 H   0  0  0  0  0  0
  -27.3758  -12.5288   17.7891 H   0  0  0  0  0  0
  -27.6347  -14.2506   19.4701 H   0  0  0  0  0  0
  -28.7363  -12.1335   21.3826 H   0  0  0  0  0  0
  -28.4319  -13.8014   21.7984 H   0  0  0  0  0  0
  -25.2775   -9.5712   22.4767 H   0  0  0  0  0  0
  -24.0071   -7.4631   22.7448 H   0  0  0  0  0  0
  -21.0877   -8.8773   19.8952 H   0  0  0  0  0  0
  -22.3717  -10.9679   19.6194 H   0  0  0  0  0  0
  -21.1988   -7.6155   23.9750 H   0  0  0  0  0  0
  -21.1473   -6.0513   25.9089 H   0  0  0  0  0  0
  -22.0594   -2.7638   23.2843 H   0  0  0  0  0  0
  -22.4027  -11.9856   22.4871 H   0  0  0  0  0  0
  -21.1066  -13.1201   22.2565 H   0  0  0  0  0  0
  -24.6386  -15.8343   20.4755 H   0  0  0  0  0  0
  -26.2389  -15.6215   19.9933 H   0  0  0  0  0  0
  -26.7193  -32.5423   23.1091 H   0  0  0  0  0  0
  -25.0053  -33.9749   25.0409 H   0  0  0  0  0  0
  -22.7274  -31.3029   21.3937 H   0  0  0  0  0  0
  -23.3807  -35.9527   23.3262 H   0  0  0  0  0  0
  -24.3576  -36.8928   22.2051 H   0  0  0  0  0  0
  -23.7145  -37.6413   23.6680 H   0  0  0  0  0  0
  -26.1153  -31.5168   20.6092 H   0  0  0  0  0  0
  -26.8573  -30.8138   22.0158 H   0  0  0  0  0  0
  -28.1077  -28.8937   21.2306 H   0  0  0  0  0  0
  -25.9433  -25.9158   18.9669 H   0  0  0  0  0  0
  -23.9624  -27.3122   19.0027 H   0  0  0  0  0  0
  -23.7868  -30.5877   19.4042 H   0  0  0  0  0  0
  -22.7671  -29.2512   19.8512 H   0  0  0  0  0  0
  -25.1305  -36.1965   25.0823 H   0  0  0  0  0  0
  -20.9961  -28.3313   24.1361 H   0  0  0  0  0  0
  -20.5663  -26.2352   23.3613 H   0  0  0  0  0  0
  -21.6682  -26.7472   22.1210 H   0  0  0  0  0  0
  -19.6974  -25.6295   21.1246 H   0  0  0  0  0  0
  -19.6749  -27.3188   20.6692 H   0  0  0  0  0  0
  -17.4235  -26.6669   21.3966 H   0  0  0  0  0  0
  -18.0370  -26.0075   22.8971 H   0  0  0  0  0  0
  -19.7952  -30.7229   24.2325 H   0  0  0  0  0  0
  -17.5051  -31.6293   24.5139 H   0  0  0  0  0  0
  -15.5374  -30.3030   23.7641 H   0  0  0  0  0  0
  -15.8666  -28.0824   22.7116 H   0  0  0  0  0  0
  -24.5905  -30.7058   25.7724 H   0  0  0  0  0  0
  -24.8738  -32.2912   26.4762 H   0  0  0  0  0  0
  -25.7912  -30.9012   27.0277 H   0  0  0  0  0  0
  -26.2901  -29.6824   24.1207 H   0  0  0  0  0  0
  -27.3978  -29.7316   25.4745 H   0  0  0  0  0  0
  -27.8799  -30.4380   23.9498 H   0  0  0  0  0  0
  -27.2819  -33.3661   26.2067 H   0  0  0  0  0  0
  -28.3899  -32.6783   25.0281 H   0  0  0  0  0  0
  -28.0767  -31.8405   26.5382 H   0  0  0  0  0  0
  -28.2604  -38.0102   24.7580 H   0  0  0  0  0  0
  -28.1105  -36.2650   24.6193 H   0  0  0  0  0  0
  -27.2326  -37.1344   25.8857 H   0  0  0  0  0  0
  -20.9426  -29.8751   21.6793 H   0  0  0  0  0  0
  -26.0180  -38.2871   24.1481 H   0  0  0  0  0  0
  -27.4261  -22.2627   18.5563 H   0  0  0  0  0  0
  -31.2519  -23.5810   20.7884 H   0  0  0  0  0  0
  -30.6712  -25.2228   20.6580 H   0  0  0  0  0  0
  -30.7412  -24.2019   19.2204 H   0  0  0  0  0  0
  -29.5322  -18.9416   16.8594 H   0  0  0  0  0  0
  -28.6646  -20.2814   16.1278 H   0  0  0  0  0  0
  -28.1000  -18.6279   15.8953 H   0  0  0  0  0  0
  -25.5619  -19.9570   18.2935 H   0  0  0  0  0  0
  -25.8122  -19.2047   16.7305 H   0  0  0  0  0  0
  -26.2613  -20.8842   16.9621 H   0  0  0  0  0  0
  -29.3508  -21.4780   23.3527 H   0  0  0  0  0  0
  -30.5245  -22.6801   22.8099 H   0  0  0  0  0  0
  -31.0437  -21.3277   23.7943 H   0  0  0  0  0  0
  -32.2910  -20.1952   20.4330 H   0  0  0  0  0  0
  -32.7459  -20.4553   22.1029 H   0  0  0  0  0  0
  -32.4369  -21.8258   21.0641 H   0  0  0  0  0  0
  -29.4990  -17.9192   18.8723 H   0  0  0  0  0  0
  -30.9499  -18.5848   19.4445 H   0  0  0  0  0  0
  -29.1728  -17.5951   21.6420 H   0  0  0  0  0  0
  -30.8842  -17.4270   21.4578 H   0  0  0  0  0  0
  -27.0927  -24.5664   20.2462 H   0  0  0  0  0  0
  -28.1134  -24.7524   18.8441 H   0  0  0  0  0  0
  -28.9197  -23.7684   21.6276 H   0  0  0  0  0  0
  -27.5082  -18.4457   18.2890 H   0  0  0  0  0  0
  -30.4713  -19.7481   22.0863 H   0  0  0  0  0  0
  -28.7682  -15.5481   20.6706 H   0  0  0  0  0  0
  1 25  1  0  0  0
  1 30  2  0  0  0
  1 87  1  0  0  0
  2  3  1  0  0  0
  2 25  1  0  0  0
  2 88  1  0  0  0
  2 89  1  0  0  0
  3  4  1  0  0  0
  3 90  1  0  0  0
  3 91  1  0  0  0
  4  5  1  0  0  0
  4 92  1  0  0  0
  4 93  1  0  0  0
  5  6  1  0  0  0
  5 26  1  0  0  0
  5 94  1  0  0  0
  6 25  1  0  0  0
  6 95  1  0  0  0
  6 96  1  0  0  0
  7  8  2  0  0  0
  7 26  1  0  0  0
  7 29  1  0  0  0
  8  9  1  0  0  0
  8 22  1  0  0  0
  9 10  1  0  0  0
  9 27  2  0  0  0
 10 11  2  0  0  0
 10 15  1  0  0  0
 11 12  1  0  0  0
 11 97  1  0  0  0
 12 13  2  0  0  0
 12 98  1  0  0  0
 13 14  1  0  0  0
 13 31  1  0  0  0
 14 15  2  0  0  0
 14 99  1  0  0  0
 15100  1  0  0  0
 16 17  2  0  0  0
 16 21  1  0  0  0
 16 31  1  0  0  0
 17 18  1  0  0  0
 17101  1  0  0  0
 18 19  2  0  0  0
 18102  1  0  0  0
 19 20  1  0  0  0
 19 24  1  0  0  0
 20 21  2  0  0  0
 20103  1  0  0  0
 21 23  1  0  0  0
 22 28  1  0  0  0
 22 32  2  0  0  0
 26 27  1  0  0  0
 28104  1  0  0  0
 28105  1  0  0  0
 29106  1  0  0  0
 29107  1  0  0  0
 33 34  1  0  0  0
 33 66  1  0  0  0
 33 70  2  0  0  0
 34 36  1  0  0  0
 34 59  1  0  0  0
 34108  1  0  0  0
 35 44  2  0  0  0
 35 45  1  0  0  0
 35 68  1  0  0  0
 36 56  1  0  0  0
 36109  1  0  0  0
 37 39  1  0  0  0
 37 47  1  0  0  0
 37 66  1  0  0  0
 37110  1  0  0  0
 38 43  2  0  0  0
 38 46  1  0  0  0
 38 47  1  0  0  0
 39 64  1  0  0  0
 39 67  2  0  0  0
 40 52  1  0  0  0
 40 53  2  0  0  0
 40 58  1  0  0  0
 41111  1  0  0  0
 41112  1  0  0  0
 41113  1  0  0  0
 41 48  1  0  0  0
 42 43  1  0  0  0
 42 66  1  0  0  0
 42114  1  0  0  0
 42115  1  0  0  0
 43 44  1  0  0  0
 44116  1  0  0  0
 45 46  2  0  0  0
 45117  1  0  0  0
 46118  1  0  0  0
 47119  1  0  0  0
 47120  1  0  0  0
 48 56  1  0  0  0
 48 65  1  0  0  0
 48121  1  0  0  0
 49 50  1  0  0  0
 49 53  1  0  0  0
 49 64  1  0  0  0
 49122  1  0  0  0
 50 51  1  0  0  0
 50123  1  0  0  0
 50124  1  0  0  0
 51 52  1  0  0  0
 51125  1  0  0  0
 51126  1  0  0  0
 52127  1  0  0  0
 52128  1  0  0  0
 53 54  1  0  0  0
 54 55  2  0  0  0
 54129  1  0  0  0
 55 57  1  0  0  0
 55130  1  0  0  0
 56 69  2  0  0  0
 57 58  2  0  0  0
 57131  1  0  0  0
 58132  1  0  0  0
 59 60  1  0  0  0
 59 61  1  0  0  0
 59 62  1  0  0  0
 60133  1  0  0  0
 60134  1  0  0  0
 60135  1  0  0  0
 61136  1  0  0  0
 61137  1  0  0  0
 61138  1  0  0  0
 62139  1  0  0  0
 62140  1  0  0  0
 62141  1  0  0  0
 63 65  1  0  0  0
 63142  1  0  0  0
 63143  1  0  0  0
 63144  1  0  0  0
 64145  1  0  0  0
 65146  1  0  0  0
 68 82  1  0  0  0
 71 72  1  0  0  0
 71 73  2  0  0  0
 71147  1  0  0  0
 72 74  2  0  0  0
 72 83  1  0  0  0
 73 84  1  0  0  0
 73 86  1  0  0  0
 74 85  1  0  0  0
 74 86  1  0  0  0
 75148  1  0  0  0
 75149  1  0  0  0
 75150  1  0  0  0
 75 83  1  0  0  0
 76151  1  0  0  0
 76152  1  0  0  0
 76153  1  0  0  0
 76 84  1  0  0  0
 77 84  1  0  0  0
 77154  1  0  0  0
 77155  1  0  0  0
 77156  1  0  0  0
 78157  1  0  0  0
 78158  1  0  0  0
 78159  1  0  0  0
 78 85  1  0  0  0
 79 85  1  0  0  0
 79160  1  0  0  0
 79161  1  0  0  0
 79162  1  0  0  0
 80 81  1  0  0  0
 80 86  1  0  0  0
 80163  1  0  0  0
 80164  1  0  0  0
 81 87  1  0  0  0
 81165  1  0  0  0
 81166  1  0  0  0
 82 83  1  0  0  0
 82167  1  0  0  0
 82168  1  0  0  0
 83169  1  0  0  0
 84170  1  0  0  0
 85171  1  0  0  0
 87172  1  0  0  0
M  ISO  4   1 100  68 101  82 101  87 100
M  END
> <chiral flag>
0

> <version>
0

> <s_m_source_file>
/data/baiqing/PycharmProjects/Reinvent-master-3.2/result/LINK_invent/BTK/process_docking_weight1_custom_sum_contain_oxygen_bond_distance_aromatic_linkinvent_7_9_3/rearranged_h_0104.sdf

> <i_m_source_file_index>
63

> <r_mmod_Potential_Energy-OPLS-2005>
159.647705078125

> <r_mmod_Stretch_Energy-OPLS-2005>
141.197372436523

> <r_mmod_Bend_Energy-OPLS-2005>
199.991653442383

> <r_mmod_Torsional_Energy-OPLS-2005>
243.411956787109

> <r_mmod_Improper_Torsional_Energy-OPLS-2005>
6.11008071899414

> <r_mmod_Van_der_Waal_Energy-OPLS-2005>
113.225700378418

> <r_mmod_Electrostatic_Energy-OPLS-2005>
-436.923919677734

> <r_mmod_Solvation_Energy-OPLS-2005>
-203.011596679688

> <b_mmod_Minimization_Converged-OPLS-2005>
0

> <r_mmod_RMS_Derivative-OPLS-2005>
3.93092942237854

$$$$
63
                    3D
 Structure written by MMmdl.
170177  0  0  1  0            999 V2000
  -30.6323  -14.6568   20.4554 C   0  0  0  0  0  0
  -30.4237  -12.3945   19.4552 C   0  0  0  0  0  0
  -29.4976  -12.4827   18.2230 C   0  0  0  0  0  0
  -28.0231  -12.3247   18.6418 C   0  0  0  0  0  0
  -27.6430  -13.2181   19.8533 C   0  0  2  0  0  0
  -28.6896  -13.1152   20.9845 C   0  0  0  0  0  0
  -25.2526  -13.8168   20.5706 C   0  0  0  0  0  0
  -24.1798  -13.0432   20.9208 C   0  0  0  0  0  0
  -24.6354  -11.6906   20.8743 C   0  0  0  0  0  0
  -23.9022  -10.4292   21.0402 C   0  0  0  0  0  0
  -24.3588   -9.4210   21.9176 C   0  0  0  0  0  0
  -23.6279   -8.2239   22.0742 C   0  0  0  0  0  0
  -22.4263   -8.0269   21.3533 C   0  0  0  0  0  0
  -21.9891   -9.0231   20.4634 C   0  0  0  0  0  0
  -22.7197  -10.2120   20.3047 C   0  0  0  0  0  0
  -21.6860   -6.0723   22.5271 C   0  0  0  0  0  0
  -21.4016   -6.5632   23.8198 C   0  0  0  0  0  0
  -21.3657   -5.6787   24.9166 C   0  0  0  0  0  0
  -21.6049   -4.3048   24.7222 C   0  0  0  0  0  0
  -21.8823   -3.8136   23.4342 C   0  0  0  0  0  0
  -21.9193   -4.6952   22.3399 C   0  0  0  0  0  0
  -22.7824  -13.5227   21.1867 C   0  0  0  0  0  0
  -22.1668   -4.2136   21.0979 F   0  0  0  0  0  0
  -21.5623   -3.4533   25.7735 F   0  0  0  0  0  0
  -29.9967  -13.4442   20.4036 N   0  0  0  0  0  0
  -26.2935  -12.9347   20.3300 N   0  0  0  0  0  0
  -25.9281  -11.6498   20.5761 N   0  0  0  0  0  0
  -22.0472  -12.8216   22.0424 N   0  0  0  0  0  0
  -25.4249  -15.1887   20.4117 N   0  0  0  0  0  0
  -31.8199  -14.7604   20.1368 O   0  0  0  0  0  0
  -21.6640   -6.8859   21.4226 O   0  0  0  0  0  0
  -22.3517  -14.5541   20.6728 O   0  0  0  0  0  0
  -24.6222  -31.8616   23.2029 C   0  0  0  0  0  0
  -25.9053  -32.4799   23.8365 C   0  0  1  0  0  0
  -27.2128  -27.3319   20.1300 C   0  0  0  0  0  0
  -25.5898  -33.8592   24.2291 N   0  0  0  0  0  0
  -23.4162  -30.4874   21.5422 C   0  0  2  0  0  0
  -24.8596  -28.9336   20.1206 C   0  0  0  0  0  0
  -22.7448  -29.4657   22.4917 C   0  0  0  0  0  0
  -18.0290  -28.1414   22.8510 C   0  0  0  0  0  0
  -24.1473  -36.7288   23.2652 C   0  0  0  0  0  0
  -25.9547  -30.7998   21.3684 C   0  0  0  0  0  0
  -26.0282  -29.4215   20.7229 C   0  0  0  0  0  0
  -27.2110  -28.6316   20.7194 C   0  0  0  0  0  0
  -26.0302  -26.8858   19.5096 C   0  0  0  0  0  0
  -24.8597  -27.6677   19.5104 C   0  0  0  0  0  0
  -23.6321  -29.8193   20.1577 C   0  0  0  0  0  0
  -25.4113  -36.3096   24.0342 C   0  0  1  0  0  0
  -20.5894  -28.3696   23.1294 C   0  0  2  0  0  0
  -20.6786  -26.9423   22.5412 C   0  0  0  0  0  0
  -19.5758  -26.6403   21.5226 C   0  0  0  0  0  0
  -18.1929  -26.7964   22.1635 C   0  0  0  0  0  0
  -19.1549  -28.8874   23.2915 C   0  0  0  0  0  0
  -18.9479  -30.1485   23.8927 C   0  0  0  0  0  0
  -17.6482  -30.6624   24.0583 C   0  0  0  0  0  0
  -25.9042  -34.9465   23.5112 C   0  0  0  0  0  0
  -16.5372  -29.9130   23.6336 C   0  0  0  0  0  0
  -16.7278  -28.6552   23.0345 C   0  0  0  0  0  0
  -26.4481  -31.6602   25.0716 C   0  0  0  0  0  0
  -25.3723  -31.3750   26.1447 C   0  0  0  0  0  0
  -27.0314  -30.3045   24.6119 C   0  0  0  0  0  0
  -27.6051  -32.4330   25.7486 C   0  0  0  0  0  0
  -27.5584  -37.1807   24.8482 C   0  0  0  0  0  0
  -21.4163  -29.3080   22.3686 N   0  0  0  0  0  0
  -26.4289  -37.3788   23.9424 N   0  0  0  0  0  0
  -24.6832  -31.0656   22.0955 N   0  0  0  0  0  0
  -23.4183  -28.8176   23.2974 O   0  0  0  0  0  0
  -28.3400  -26.5171   20.0838 O   0  0  0  0  0  0
  -26.5599  -34.8927   22.4677 O   0  0  0  0  0  0
  -23.5378  -32.1370   23.7389 O   0  0  0  0  0  0
  -31.8407  -21.5110   21.0277 C   0  0  0  0  0  0
  -26.5519  -23.4199   20.5642 C   0  0  0  0  0  0
  -31.4653  -19.8328   18.1494 C   0  0  0  0  0  0
  -29.0835  -19.5003   17.7337 C   0  0  0  0  0  0
  -31.0747  -20.1713   21.0138 C   0  0  0  0  0  0
  -29.0375  -22.6702   20.4415 C   0  0  0  0  0  0
  -28.6833  -21.0995   20.4579 C   0  0  0  0  0  0
  -29.3118  -18.4486   20.4678 C   0  0  0  0  0  0
  -30.3279  -17.2015   20.3454 C   0  0  0  0  0  0
  -28.3426  -25.2489   20.8290 C   0  0  0  0  0  0
  -27.9801  -23.8391   20.1604 C   0  0  2  0  0  0
  -29.7994  -19.9692   20.1178 C   0  0  2  0  0  0
  -29.8659  -15.7866   20.6198 N   0  0  0  0  0  0
  -30.0876  -20.1173   18.6404 N   0  3  0  0  0  0
  -31.4659  -12.5047   19.1521 H   0  0  0  0  0  0
  -30.3491  -11.4114   19.9233 H   0  0  0  0  0  0
  -29.7609  -11.7107   17.4985 H   0  0  0  0  0  0
  -29.6363  -13.4386   17.7154 H   0  0  0  0  0  0
  -27.8684  -11.2751   18.8976 H   0  0  0  0  0  0
  -27.3616  -12.5270   17.7982 H   0  0  0  0  0  0
  -27.6493  -14.2446   19.4867 H   0  0  0  0  0  0
  -28.7075  -12.1073   21.4025 H   0  0  0  0  0  0
  -28.4433  -13.7838   21.8106 H   0  0  0  0  0  0
  -25.2723   -9.5708   22.4752 H   0  0  0  0  0  0
  -23.9996   -7.4636   22.7466 H   0  0  0  0  0  0
  -21.0821   -8.8726   19.8944 H   0  0  0  0  0  0
  -22.3630  -10.9650   19.6162 H   0  0  0  0  0  0
  -21.2016   -7.6143   23.9700 H   0  0  0  0  0  0
  -21.1475   -6.0519   25.9066 H   0  0  0  0  0  0
  -22.0607   -2.7599   23.2845 H   0  0  0  0  0  0
  -22.4097  -11.9875   22.4803 H   0  0  0  0  0  0
  -21.1078  -13.1218   22.2621 H   0  0  0  0  0  0
  -24.6601  -15.8446   20.5296 H   0  0  0  0  0  0
  -26.2678  -15.6226   20.0580 H   0  0  0  0  0  0
  -26.7115  -32.5488   23.1120 H   0  0  0  0  0  0
  -25.0064  -33.9758   25.0447 H   0  0  0  0  0  0
  -22.7129  -31.3096   21.3981 H   0  0  0  0  0  0
  -23.3741  -35.9609   23.3313 H   0  0  0  0  0  0
  -24.3583  -36.8884   22.2069 H   0  0  0  0  0  0
  -23.7208  -37.6499   23.6644 H   0  0  0  0  0  0
  -26.0758  -31.5567   20.5924 H   0  0  0  0  0  0
  -26.8423  -30.8582   21.9868 H   0  0  0  0  0  0
  -28.1132  -29.0093   21.1824 H   0  0  0  0  0  0
  -26.0159  -25.9279   19.0119 H   0  0  0  0  0  0
  -23.9617  -27.2888   19.0391 H   0  0  0  0  0  0
  -23.7655  -30.5950   19.4020 H   0  0  0  0  0  0
  -22.7491  -29.2551   19.8456 H   0  0  0  0  0  0
  -25.1284  -36.1965   25.0833 H   0  0  0  0  0  0
  -21.0034  -28.3281   24.1396 H   0  0  0  0  0  0
  -20.5708  -26.2310   23.3612 H   0  0  0  0  0  0
  -21.6649  -26.7463   22.1202 H   0  0  0  0  0  0
  -19.6900  -25.6307   21.1260 H   0  0  0  0  0  0
  -19.6703  -27.3224   20.6761 H   0  0  0  0  0  0
  -17.4203  -26.6732   21.4026 H   0  0  0  0  0  0
  -18.0322  -26.0130   22.9054 H   0  0  0  0  0  0
  -19.7955  -30.7310   24.2291 H   0  0  0  0  0  0
  -17.5034  -31.6298   24.5195 H   0  0  0  0  0  0
  -15.5373  -30.3050   23.7647 H   0  0  0  0  0  0
  -15.8679  -28.0889   22.7018 H   0  0  0  0  0  0
  -24.5901  -30.7083   25.7801 H   0  0  0  0  0  0
  -24.8918  -32.2914   26.4869 H   0  0  0  0  0  0
  -25.8067  -30.8958   27.0217 H   0  0  0  0  0  0
  -26.2864  -29.6828   24.1144 H   0  0  0  0  0  0
  -27.4052  -29.7283   25.4592 H   0  0  0  0  0  0
  -27.8700  -30.4391   23.9288 H   0  0  0  0  0  0
  -27.2669  -33.3637   26.2062 H   0  0  0  0  0  0
  -28.3872  -32.6867   25.0310 H   0  0  0  0  0  0
  -28.0681  -31.8432   26.5410 H   0  0  0  0  0  0
  -28.2607  -38.0099   24.7520 H   0  0  0  0  0  0
  -28.1059  -36.2627   24.6295 H   0  0  0  0  0  0
  -27.2299  -37.1458   25.8884 H   0  0  0  0  0  0
  -20.9295  -29.8837   21.6957 H   0  0  0  0  0  0
  -26.0163  -38.2852   24.1442 H   0  0  0  0  0  0
  -32.8720  -21.3409   21.3382 H   0  0  0  0  0  0
  -31.4292  -22.2069   21.7547 H   0  0  0  0  0  0
  -31.8847  -22.0126   20.0631 H   0  0  0  0  0  0
  -26.1876  -22.5820   19.9704 H   0  0  0  0  0  0
  -25.8409  -24.2319   20.4214 H   0  0  0  0  0  0
  -26.4988  -23.1345   21.6150 H   0  0  0  0  0  0
  -31.5245  -20.0281   17.0776 H   0  0  0  0  0  0
  -31.7590  -18.7970   18.2971 H   0  0  0  0  0  0
  -32.2275  -20.4638   18.5980 H   0  0  0  0  0  0
  -29.1996  -19.8855   16.7200 H   0  0  0  0  0  0
  -28.0558  -19.7055   18.0309 H   0  0  0  0  0  0
  -29.2056  -18.4180   17.6843 H   0  0  0  0  0  0
  -30.8088  -19.9448   22.0465 H   0  0  0  0  0  0
  -31.8161  -19.4169   20.7560 H   0  0  0  0  0  0
  -29.8478  -22.8436   19.7359 H   0  0  0  0  0  0
  -29.4436  -22.8875   21.4269 H   0  0  0  0  0  0
  -27.8209  -20.9413   19.8130 H   0  0  0  0  0  0
  -28.2910  -20.8839   21.4525 H   0  0  0  0  0  0
  -28.9675  -18.4621   21.5016 H   0  0  0  0  0  0
  -28.4077  -18.2138   19.9082 H   0  0  0  0  0  0
  -31.1800  -17.3651   21.0064 H   0  0  0  0  0  0
  -30.7319  -17.1824   19.3345 H   0  0  0  0  0  0
  -29.3663  -25.1722   21.1952 H   0  0  0  0  0  0
  -27.7542  -25.3775   21.7401 H   0  0  0  0  0  0
  -27.9699  -23.9956   19.0817 H   0  0  0  0  0  0
  -28.8913  -15.6450   20.8395 H   0  0  0  0  0  0
  -29.9824  -21.1083   18.4784 H   0  0  0  0  0  0
  1 25  1  0  0  0
  1 30  2  0  0  0
  1 83  1  0  0  0
  2  3  1  0  0  0
  2 25  1  0  0  0
  2 85  1  0  0  0
  2 86  1  0  0  0
  3  4  1  0  0  0
  3 87  1  0  0  0
  3 88  1  0  0  0
  4  5  1  0  0  0
  4 89  1  0  0  0
  4 90  1  0  0  0
  5  6  1  0  0  0
  5 26  1  0  0  0
  5 91  1  0  0  0
  6 25  1  0  0  0
  6 92  1  0  0  0
  6 93  1  0  0  0
  7  8  2  0  0  0
  7 26  1  0  0  0
  7 29  1  0  0  0
  8  9  1  0  0  0
  8 22  1  0  0  0
  9 10  1  0  0  0
  9 27  2  0  0  0
 10 11  2  0  0  0
 10 15  1  0  0  0
 11 12  1  0  0  0
 11 94  1  0  0  0
 12 13  2  0  0  0
 12 95  1  0  0  0
 13 14  1  0  0  0
 13 31  1  0  0  0
 14 15  2  0  0  0
 14 96  1  0  0  0
 15 97  1  0  0  0
 16 17  2  0  0  0
 16 21  1  0  0  0
 16 31  1  0  0  0
 17 18  1  0  0  0
 17 98  1  0  0  0
 18 19  2  0  0  0
 18 99  1  0  0  0
 19 20  1  0  0  0
 19 24  1  0  0  0
 20 21  2  0  0  0
 20100  1  0  0  0
 21 23  1  0  0  0
 22 28  1  0  0  0
 22 32  2  0  0  0
 26 27  1  0  0  0
 28101  1  0  0  0
 28102  1  0  0  0
 29103  1  0  0  0
 29104  1  0  0  0
 33 34  1  0  0  0
 33 66  1  0  0  0
 33 70  2  0  0  0
 34 36  1  0  0  0
 34 59  1  0  0  0
 34105  1  0  0  0
 35 44  2  0  0  0
 35 45  1  0  0  0
 35 68  1  0  0  0
 36 56  1  0  0  0
 36106  1  0  0  0
 37 39  1  0  0  0
 37 47  1  0  0  0
 37 66  1  0  0  0
 37107  1  0  0  0
 38 43  2  0  0  0
 38 46  1  0  0  0
 38 47  1  0  0  0
 39 64  1  0  0  0
 39 67  2  0  0  0
 40 52  1  0  0  0
 40 53  2  0  0  0
 40 58  1  0  0  0
 41108  1  0  0  0
 41109  1  0  0  0
 41110  1  0  0  0
 41 48  1  0  0  0
 42 43  1  0  0  0
 42 66  1  0  0  0
 42111  1  0  0  0
 42112  1  0  0  0
 43 44  1  0  0  0
 44113  1  0  0  0
 45 46  2  0  0  0
 45114  1  0  0  0
 46115  1  0  0  0
 47116  1  0  0  0
 47117  1  0  0  0
 48 56  1  0  0  0
 48 65  1  0  0  0
 48118  1  0  0  0
 49 50  1  0  0  0
 49 53  1  0  0  0
 49 64  1  0  0  0
 49119  1  0  0  0
 50 51  1  0  0  0
 50120  1  0  0  0
 50121  1  0  0  0
 51 52  1  0  0  0
 51122  1  0  0  0
 51123  1  0  0  0
 52124  1  0  0  0
 52125  1  0  0  0
 53 54  1  0  0  0
 54 55  2  0  0  0
 54126  1  0  0  0
 55 57  1  0  0  0
 55127  1  0  0  0
 56 69  2  0  0  0
 57 58  2  0  0  0
 57128  1  0  0  0
 58129  1  0  0  0
 59 60  1  0  0  0
 59 61  1  0  0  0
 59 62  1  0  0  0
 60130  1  0  0  0
 60131  1  0  0  0
 60132  1  0  0  0
 61133  1  0  0  0
 61134  1  0  0  0
 61135  1  0  0  0
 62136  1  0  0  0
 62137  1  0  0  0
 62138  1  0  0  0
 63 65  1  0  0  0
 63139  1  0  0  0
 63140  1  0  0  0
 63141  1  0  0  0
 64142  1  0  0  0
 65143  1  0  0  0
 68 80  1  0  0  0
 71 75  1  0  0  0
 71144  1  0  0  0
 71145  1  0  0  0
 71146  1  0  0  0
 72147  1  0  0  0
 72148  1  0  0  0
 72149  1  0  0  0
 72 81  1  0  0  0
 73150  1  0  0  0
 73151  1  0  0  0
 73152  1  0  0  0
 73 84  1  0  0  0
 74 84  1  0  0  0
 74153  1  0  0  0
 74154  1  0  0  0
 74155  1  0  0  0
 75156  1  0  0  0
 75157  1  0  0  0
 75 82  1  0  0  0
 76 77  1  0  0  0
 76 81  1  0  0  0
 76158  1  0  0  0
 76159  1  0  0  0
 77 82  1  0  0  0
 77160  1  0  0  0
 77161  1  0  0  0
 78 79  1  0  0  0
 78 82  1  0  0  0
 78162  1  0  0  0
 78163  1  0  0  0
 79 83  1  0  0  0
 79164  1  0  0  0
 79165  1  0  0  0
 80 81  1  0  0  0
 80166  1  0  0  0
 80167  1  0  0  0
 81168  1  0  0  0
 82 84  1  0  0  0
 83169  1  0  0  0
 84170  1  0  0  0
M  CHG  1  84   1
M  ISO  4   1 100  68 101  80 101  83 100
M  END
> <chiral flag>
0

> <version>
0

> <s_m_source_file>
/data/baiqing/PycharmProjects/Reinvent-master-3.2/result/LINK_invent/BTK/process_docking_weight1_custom_sum_contain_oxygen_bond_distance_aromatic_linkinvent_7_9_3/rearranged_h_0104.sdf

> <i_m_source_file_index>
64

> <r_mmod_Potential_Energy-OPLS-2005>
106.835243225098

> <r_mmod_Stretch_Energy-OPLS-2005>
104.693298339844

> <r_mmod_Bend_Energy-OPLS-2005>
183.405471801758

> <r_mmod_Torsional_Energy-OPLS-2005>
297.696838378906

> <r_mmod_Improper_Torsional_Energy-OPLS-2005>
5.96225786209106

> <r_mmod_Van_der_Waal_Energy-OPLS-2005>
135.360870361328

> <r_mmod_Electrostatic_Energy-OPLS-2005>
-236.574264526367

> <r_mmod_Solvation_Energy-OPLS-2005>
-432.457824707031

> <b_mmod_Minimization_Converged-OPLS-2005>
0

> <r_mmod_RMS_Derivative-OPLS-2005>
3.07027101516724

$$$$
64
                    3D
 Structure written by MMmdl.
155163  0  0  1  0            999 V2000
  -30.5509  -14.9868   20.3671 C   0  0  0  0  0  0
  -30.4326  -12.6059   19.4954 C   0  0  0  0  0  0
  -29.5247  -12.5456   18.2478 C   0  0  0  0  0  0
  -28.0557  -12.3301   18.6611 C   0  0  0  0  0  0
  -27.6273  -13.2621   19.8280 C   0  0  2  0  0  0
  -28.6719  -13.3180   20.9617 C   0  0  0  0  0  0
  -25.2442  -13.8231   20.5719 C   0  0  0  0  0  0
  -24.1774  -13.0436   20.9226 C   0  0  0  0  0  0
  -24.6434  -11.6924   20.8744 C   0  0  0  0  0  0
  -23.9127  -10.4279   21.0396 C   0  0  0  0  0  0
  -24.3674   -9.4188   21.9178 C   0  0  0  0  0  0
  -23.6333   -8.2241   22.0761 C   0  0  0  0  0  0
  -22.4303   -8.0302   21.3574 C   0  0  0  0  0  0
  -21.9940   -9.0270   20.4659 C   0  0  0  0  0  0
  -22.7298  -10.2130   20.3049 C   0  0  0  0  0  0
  -21.6845   -6.0769   22.5288 C   0  0  0  0  0  0
  -21.4016   -6.5663   23.8230 C   0  0  0  0  0  0
  -21.3641   -5.6797   24.9180 C   0  0  0  0  0  0
  -21.6034   -4.3067   24.7204 C   0  0  0  0  0  0
  -21.8809   -3.8173   23.4318 C   0  0  0  0  0  0
  -21.9177   -4.7000   22.3385 C   0  0  0  0  0  0
  -22.7779  -13.5206   21.1851 C   0  0  0  0  0  0
  -22.1656   -4.2192   21.0954 F   0  0  0  0  0  0
  -21.5613   -3.4532   25.7710 F   0  0  0  0  0  0
  -29.9438  -13.7276   20.3513 N   0  0  0  0  0  0
  -26.2880  -12.9502   20.3199 N   0  0  0  0  0  0
  -25.9363  -11.6613   20.5709 N   0  0  0  0  0  0
  -22.0418  -12.8220   22.0426 N   0  0  0  0  0  0
  -25.4085  -15.1962   20.4159 N   0  0  0  0  0  0
  -31.7673  -14.9828   20.1398 O   0  0  0  0  0  0
  -21.6647   -6.8923   21.4265 O   0  0  0  0  0  0
  -22.3462  -14.5502   20.6665 O   0  0  0  0  0  0
  -24.6498  -31.8393   23.1827 C   0  0  0  0  0  0
  -25.9253  -32.4650   23.8231 C   0  0  1  0  0  0
  -27.2280  -27.1017   20.1370 C   0  0  0  0  0  0
  -25.5978  -33.8452   24.2140 N   0  0  0  0  0  0
  -23.4543  -30.4572   21.5305 C   0  0  2  0  0  0
  -24.9063  -28.8762   20.1099 C   0  0  0  0  0  0
  -22.7587  -29.4523   22.4830 C   0  0  0  0  0  0
  -18.0316  -28.1398   22.8482 C   0  0  0  0  0  0
  -24.1500  -36.7240   23.2641 C   0  0  0  0  0  0
  -26.0131  -30.7015   21.3867 C   0  0  0  0  0  0
  -26.0869  -29.3095   20.7262 C   0  0  0  0  0  0
  -27.2467  -28.4387   20.7217 C   0  0  0  0  0  0
  -26.0140  -26.7759   19.4935 C   0  0  0  0  0  0
  -24.8850  -27.6248   19.4778 C   0  0  0  0  0  0
  -23.6830  -29.7829   20.1513 C   0  0  0  0  0  0
  -25.4131  -36.2981   24.0294 C   0  0  1  0  0  0
  -20.5929  -28.3737   23.1232 C   0  0  2  0  0  0
  -20.6795  -26.9429   22.5411 C   0  0  0  0  0  0
  -19.5756  -26.6385   21.5226 C   0  0  0  0  0  0
  -18.1941  -26.7943   22.1630 C   0  0  0  0  0  0
  -19.1565  -28.8888   23.2848 C   0  0  0  0  0  0
  -18.9483  -30.1486   23.8860 C   0  0  0  0  0  0
  -17.6477  -30.6595   24.0569 C   0  0  0  0  0  0
  -25.9093  -34.9367   23.5028 C   0  0  0  0  0  0
  -16.5368  -29.9085   23.6333 C   0  0  0  0  0  0
  -16.7304  -28.6504   23.0355 C   0  0  0  0  0  0
  -26.4532  -31.6548   25.0712 C   0  0  0  0  0  0
  -25.3687  -31.3781   26.1391 C   0  0  0  0  0  0
  -27.0413  -30.2929   24.6353 C   0  0  0  0  0  0
  -27.6047  -32.4323   25.7512 C   0  0  0  0  0  0
  -27.5562  -37.1775   24.8449 C   0  0  0  0  0  0
  -21.4274  -29.3045   22.3587 N   0  0  0  0  0  0
  -26.4271  -37.3715   23.9390 N   0  0  0  0  0  0
  -24.7257  -31.0211   22.0875 N   0  0  0  0  0  0
  -23.4212  -28.8083   23.3002 O   0  0  0  0  0  0
  -28.2777  -26.0982   20.1795 O   0  0  0  0  0  0
  -26.5685  -34.8887   22.4605 O   0  0  0  0  0  0
  -23.5609  -32.1273   23.7022 O   0  0  0  0  0  0
  -30.8470  -20.4083   19.4592 C   0  0  0  0  0  0
  -31.3255  -18.0032   19.5818 C   0  0  0  0  0  0
  -31.7094  -19.3145   19.2267 C   0  0  0  0  0  0
  -29.5837  -20.2177   20.0413 C   0  0  0  0  0  0
  -30.0780  -17.7048   20.1689 C   0  0  0  0  0  0
  -33.0523  -19.5417   18.5612 C   0  0  0  0  0  0
  -29.8280  -23.4501   21.4999 C   0  0  0  0  0  0
  -28.5979  -21.5580   20.1671 C   0  0  0  0  0  0
  -28.0057  -24.5541   19.9977 C   0  0  0  0  0  0
  -29.0502  -23.2127   20.2030 C   0  0  1  0  0  0
  -29.2381  -18.8599   20.3676 N   0  0  0  0  0  0
  -29.7950  -16.2070   20.4545 N   0  0  0  0  0  0
  -31.4752  -12.7324   19.2000 H   0  0  0  0  0  0
  -30.4022  -11.6604   20.0397 H   0  0  0  0  0  0
  -29.8532  -11.7535   17.5736 H   0  0  0  0  0  0
  -29.6154  -13.4762   17.6856 H   0  0  0  0  0  0
  -27.9496  -11.2884   18.9668 H   0  0  0  0  0  0
  -27.3959  -12.4673   17.8041 H   0  0  0  0  0  0
  -27.5819  -14.2612   19.3920 H   0  0  0  0  0  0
  -28.7616  -12.3537   21.4594 H   0  0  0  0  0  0
  -28.3758  -14.0313   21.7311 H   0  0  0  0  0  0
  -25.2826   -9.5656   22.4739 H   0  0  0  0  0  0
  -24.0033   -7.4617   22.7464 H   0  0  0  0  0  0
  -21.0882   -8.8794   19.8970 H   0  0  0  0  0  0
  -22.3781  -10.9662   19.6137 H   0  0  0  0  0  0
  -21.2056   -7.6171   23.9760 H   0  0  0  0  0  0
  -21.1464   -6.0520   25.9090 H   0  0  0  0  0  0
  -22.0613   -2.7644   23.2781 H   0  0  0  0  0  0
  -22.4078  -11.9924   22.4857 H   0  0  0  0  0  0
  -21.1013  -13.1249   22.2580 H   0  0  0  0  0  0
  -24.6364  -15.8432   20.5328 H   0  0  0  0  0  0
  -26.2520  -15.6411   20.0781 H   0  0  0  0  0  0
  -26.7335  -32.5239   23.0973 H   0  0  0  0  0  0
  -25.0075  -33.9551   25.0253 H   0  0  0  0  0  0
  -22.7604  -31.2847   21.3716 H   0  0  0  0  0  0
  -23.3740  -35.9592   23.3277 H   0  0  0  0  0  0
  -24.3591  -36.8916   22.2064 H   0  0  0  0  0  0
  -23.7303  -37.6442   23.6716 H   0  0  0  0  0  0
  -26.1757  -31.4569   20.6173 H   0  0  0  0  0  0
  -26.8799  -30.7501   22.0332 H   0  0  0  0  0  0
  -28.1462  -28.7674   21.2223 H   0  0  0  0  0  0
  -25.9030  -25.8177   19.0087 H   0  0  0  0  0  0
  -23.9843  -27.2865   18.9834 H   0  0  0  0  0  0
  -23.8192  -30.5552   19.3930 H   0  0  0  0  0  0
  -22.7967  -29.2263   19.8402 H   0  0  0  0  0  0
  -25.1329  -36.1772   25.0787 H   0  0  0  0  0  0
  -21.0030  -28.3332   24.1349 H   0  0  0  0  0  0
  -20.5707  -26.2337   23.3631 H   0  0  0  0  0  0
  -21.6664  -26.7436   22.1195 H   0  0  0  0  0  0
  -19.6919  -25.6285   21.1276 H   0  0  0  0  0  0
  -19.6703  -27.3176   20.6734 H   0  0  0  0  0  0
  -17.4218  -26.6703   21.4029 H   0  0  0  0  0  0
  -18.0328  -26.0095   22.9030 H   0  0  0  0  0  0
  -19.7954  -30.7325   24.2203 H   0  0  0  0  0  0
  -17.5021  -31.6265   24.5183 H   0  0  0  0  0  0
  -15.5360  -30.2975   23.7671 H   0  0  0  0  0  0
  -15.8706  -28.0824   22.7064 H   0  0  0  0  0  0
  -24.5846  -30.7163   25.7690 H   0  0  0  0  0  0
  -24.8914  -32.2998   26.4725 H   0  0  0  0  0  0
  -25.7940  -30.8987   27.0220 H   0  0  0  0  0  0
  -26.3058  -29.6628   24.1344 H   0  0  0  0  0  0
  -27.3971  -29.7252   25.4961 H   0  0  0  0  0  0
  -27.8979  -30.4116   23.9716 H   0  0  0  0  0  0
  -27.2617  -33.3633   26.2016 H   0  0  0  0  0  0
  -28.3901  -32.6867   25.0390 H   0  0  0  0  0  0
  -28.0661  -31.8506   26.5495 H   0  0  0  0  0  0
  -28.2548  -38.0094   24.7485 H   0  0  0  0  0  0
  -28.1088  -36.2623   24.6275 H   0  0  0  0  0  0
  -27.2283  -37.1420   25.8852 H   0  0  0  0  0  0
  -20.9483  -29.8747   21.6757 H   0  0  0  0  0  0
  -26.0110  -38.2769   24.1399 H   0  0  0  0  0  0
  -31.1483  -21.4024   19.1578 H   0  0  0  0  0  0
  -32.0276  -17.2135   19.3637 H   0  0  0  0  0  0
  -33.4551  -20.5186   18.8239 H   0  0  0  0  0  0
  -32.9587  -19.4826   17.4752 H   0  0  0  0  0  0
  -33.7795  -18.7916   18.8730 H   0  0  0  0  0  0
  -30.6218  -22.7135   21.6304 H   0  0  0  0  0  0
  -29.1648  -23.3861   22.3634 H   0  0  0  0  0  0
  -30.2929  -24.4360   21.5053 H   0  0  0  0  0  0
  -27.9589  -21.3796   21.0313 H   0  0  0  0  0  0
  -27.9246  -21.4566   19.3178 H   0  0  0  0  0  0
  -27.1345  -24.3452   20.6170 H   0  0  0  0  0  0
  -27.6451  -24.4585   18.9732 H   0  0  0  0  0  0
  -29.7750  -23.3160   19.3943 H   0  0  0  0  0  0
  -28.8317  -16.0330   20.6931 H   0  0  0  0  0  0
  1 25  1  0  0  0
  1 30  2  0  0  0
  1 82  1  0  0  0
  2  3  1  0  0  0
  2 25  1  0  0  0
  2 83  1  0  0  0
  2 84  1  0  0  0
  3  4  1  0  0  0
  3 85  1  0  0  0
  3 86  1  0  0  0
  4  5  1  0  0  0
  4 87  1  0  0  0
  4 88  1  0  0  0
  5  6  1  0  0  0
  5 26  1  0  0  0
  5 89  1  0  0  0
  6 25  1  0  0  0
  6 90  1  0  0  0
  6 91  1  0  0  0
  7  8  2  0  0  0
  7 26  1  0  0  0
  7 29  1  0  0  0
  8  9  1  0  0  0
  8 22  1  0  0  0
  9 10  1  0  0  0
  9 27  2  0  0  0
 10 11  2  0  0  0
 10 15  1  0  0  0
 11 12  1  0  0  0
 11 92  1  0  0  0
 12 13  2  0  0  0
 12 93  1  0  0  0
 13 14  1  0  0  0
 13 31  1  0  0  0
 14 15  2  0  0  0
 14 94  1  0  0  0
 15 95  1  0  0  0
 16 17  2  0  0  0
 16 21  1  0  0  0
 16 31  1  0  0  0
 17 18  1  0  0  0
 17 96  1  0  0  0
 18 19  2  0  0  0
 18 97  1  0  0  0
 19 20  1  0  0  0
 19 24  1  0  0  0
 20 21  2  0  0  0
 20 98  1  0  0  0
 21 23  1  0  0  0
 22 28  1  0  0  0
 22 32  2  0  0  0
 26 27  1  0  0  0
 28 99  1  0  0  0
 28100  1  0  0  0
 29101  1  0  0  0
 29102  1  0  0  0
 33 34  1  0  0  0
 33 66  1  0  0  0
 33 70  2  0  0  0
 34 36  1  0  0  0
 34 59  1  0  0  0
 34103  1  0  0  0
 35 44  2  0  0  0
 35 45  1  0  0  0
 35 68  1  0  0  0
 36 56  1  0  0  0
 36104  1  0  0  0
 37 39  1  0  0  0
 37 47  1  0  0  0
 37 66  1  0  0  0
 37105  1  0  0  0
 38 43  2  0  0  0
 38 46  1  0  0  0
 38 47  1  0  0  0
 39 64  1  0  0  0
 39 67  2  0  0  0
 40 52  1  0  0  0
 40 53  2  0  0  0
 40 58  1  0  0  0
 41106  1  0  0  0
 41107  1  0  0  0
 41108  1  0  0  0
 41 48  1  0  0  0
 42 43  1  0  0  0
 42 66  1  0  0  0
 42109  1  0  0  0
 42110  1  0  0  0
 43 44  1  0  0  0
 44111  1  0  0  0
 45 46  2  0  0  0
 45112  1  0  0  0
 46113  1  0  0  0
 47114  1  0  0  0
 47115  1  0  0  0
 48 56  1  0  0  0
 48 65  1  0  0  0
 48116  1  0  0  0
 49 50  1  0  0  0
 49 53  1  0  0  0
 49 64  1  0  0  0
 49117  1  0  0  0
 50 51  1  0  0  0
 50118  1  0  0  0
 50119  1  0  0  0
 51 52  1  0  0  0
 51120  1  0  0  0
 51121  1  0  0  0
 52122  1  0  0  0
 52123  1  0  0  0
 53 54  1  0  0  0
 54 55  2  0  0  0
 54124  1  0  0  0
 55 57  1  0  0  0
 55125  1  0  0  0
 56 69  2  0  0  0
 57 58  2  0  0  0
 57126  1  0  0  0
 58127  1  0  0  0
 59 60  1  0  0  0
 59 61  1  0  0  0
 59 62  1  0  0  0
 60128  1  0  0  0
 60129  1  0  0  0
 60130  1  0  0  0
 61131  1  0  0  0
 61132  1  0  0  0
 61133  1  0  0  0
 62134  1  0  0  0
 62135  1  0  0  0
 62136  1  0  0  0
 63 65  1  0  0  0
 63137  1  0  0  0
 63138  1  0  0  0
 63139  1  0  0  0
 64140  1  0  0  0
 65141  1  0  0  0
 68 79  1  0  0  0
 71 73  2  0  0  0
 71 74  1  0  0  0
 71142  1  0  0  0
 72 73  1  0  0  0
 72 75  2  0  0  0
 72143  1  0  0  0
 73 76  1  0  0  0
 74 78  1  0  0  0
 74 81  2  0  0  0
 75 81  1  0  0  0
 75 82  1  0  0  0
 76144  1  0  0  0
 76145  1  0  0  0
 76146  1  0  0  0
 77147  1  0  0  0
 77148  1  0  0  0
 77149  1  0  0  0
 77 80  1  0  0  0
 78 80  1  0  0  0
 78150  1  0  0  0
 78151  1  0  0  0
 79 80  1  0  0  0
 79152  1  0  0  0
 79153  1  0  0  0
 80154  1  0  0  0
 82155  1  0  0  0
M  ISO  4   1 100  68 101  79 101  82 100
M  END
> <chiral flag>
0

> <version>
0

> <s_m_source_file>
/data/baiqing/PycharmProjects/Reinvent-master-3.2/result/LINK_invent/BTK/process_docking_weight1_custom_sum_contain_oxygen_bond_distance_aromatic_linkinvent_7_9_3/rearranged_h_0104.sdf

> <i_m_source_file_index>
65

> <r_mmod_Potential_Energy-OPLS-2005>
446.475280761719

> <r_mmod_Stretch_Energy-OPLS-2005>
313.793823242188

> <r_mmod_Bend_Energy-OPLS-2005>
274.374877929688

> <r_mmod_Torsional_Energy-OPLS-2005>
219.517120361328

> <r_mmod_Improper_Torsional_Energy-OPLS-2005>
4.13218307495117

> <r_mmod_Van_der_Waal_Energy-OPLS-2005>
132.01383972168

> <r_mmod_Electrostatic_Energy-OPLS-2005>
-501.201538085938

> <r_mmod_Solvation_Energy-OPLS-2005>
-215.615447998047

> <b_mmod_Minimization_Converged-OPLS-2005>
0

> <r_mmod_RMS_Derivative-OPLS-2005>
4.10699272155762

$$$$
65
                    3D
 Structure written by MMmdl.
143150  0  0  1  0            999 V2000
  -30.1640  -16.0036   20.2898 C   0  0  0  0  0  0
  -30.3923  -13.3526   19.5628 C   0  0  0  0  0  0
  -29.5651  -12.7616   18.3725 C   0  0  0  0  0  0
  -28.1687  -12.3226   18.8265 C   0  0  0  0  0  0
  -27.5855  -13.3502   19.8161 C   0  0  2  0  0  0
  -28.5706  -13.8335   20.9191 C   0  0  0  0  0  0
  -25.2257  -13.8350   20.5849 C   0  0  0  0  0  0
  -24.1687  -13.0444   20.9308 C   0  0  0  0  0  0
  -24.6446  -11.6972   20.8758 C   0  0  0  0  0  0
  -23.9156  -10.4301   21.0381 C   0  0  0  0  0  0
  -24.3678   -9.4213   21.9170 C   0  0  0  0  0  0
  -23.6330   -8.2258   22.0750 C   0  0  0  0  0  0
  -22.4308   -8.0298   21.3544 C   0  0  0  0  0  0
  -21.9962   -9.0273   20.4640 C   0  0  0  0  0  0
  -22.7314  -10.2141   20.3040 C   0  0  0  0  0  0
  -21.6865   -6.0748   22.5278 C   0  0  0  0  0  0
  -21.4024   -6.5647   23.8212 C   0  0  0  0  0  0
  -21.3663   -5.6797   24.9172 C   0  0  0  0  0  0
  -21.6045   -4.3059   24.7221 C   0  0  0  0  0  0
  -21.8818   -3.8153   23.4341 C   0  0  0  0  0  0
  -21.9197   -4.6973   22.3399 C   0  0  0  0  0  0
  -22.7689  -13.5140   21.1931 C   0  0  0  0  0  0
  -22.1664   -4.2158   21.0976 F   0  0  0  0  0  0
  -21.5626   -3.4541   25.7733 F   0  0  0  0  0  0
  -29.6928  -14.5675   20.2542 N   0  0  0  0  0  0
  -26.2757  -12.9763   20.3305 N   0  0  0  0  0  0
  -25.9411  -11.6785   20.5688 N   0  0  0  0  0  0
  -22.0368  -12.8104   22.0483 N   0  0  0  0  0  0
  -25.3797  -15.2099   20.4295 N   0  0  0  0  0  0
  -31.3979  -15.8838   20.0962 O   0  0  0  0  0  0
  -21.6659   -6.8900   21.4244 O   0  0  0  0  0  0
  -22.3351  -14.5434   20.6768 O   0  0  0  0  0  0
  -24.7075  -31.7691   23.1293 C   0  0  0  0  0  0
  -25.9534  -32.4313   23.7937 C   0  0  1  0  0  0
  -27.2414  -26.4435   20.2360 C   0  0  0  0  0  0
  -25.6008  -33.8155   24.1796 N   0  0  0  0  0  0
  -23.5463  -30.3579   21.4882 C   0  0  2  0  0  0
  -25.0090  -28.6452   20.1193 C   0  0  0  0  0  0
  -22.7877  -29.4145   22.4631 C   0  0  0  0  0  0
  -18.0355  -28.1433   22.8442 C   0  0  0  0  0  0
  -24.1497  -36.7087   23.2658 C   0  0  0  0  0  0
  -26.1359  -30.4146   21.4352 C   0  0  0  0  0  0
  -26.1982  -28.9510   20.7891 C   0  0  0  0  0  0
  -27.2813  -27.8840   20.8131 C   0  0  0  0  0  0
  -26.0223  -26.4167   19.4915 C   0  0  0  0  0  0
  -24.9761  -27.4078   19.4456 C   0  0  0  0  0  0
  -23.8151  -29.6302   20.1340 C   0  0  0  0  0  0
  -25.4157  -36.2807   24.0261 C   0  0  1  0  0  0
  -20.6001  -28.3805   23.1093 C   0  0  2  0  0  0
  -20.6805  -26.9439   22.5409 C   0  0  0  0  0  0
  -19.5786  -26.6360   21.5219 C   0  0  0  0  0  0
  -18.1969  -26.7955   22.1615 C   0  0  0  0  0  0
  -19.1627  -28.8950   23.2740 C   0  0  0  0  0  0
  -18.9528  -30.1527   23.8796 C   0  0  0  0  0  0
  -17.6515  -30.6609   24.0544 C   0  0  0  0  0  0
  -25.9154  -34.9203   23.4887 C   0  0  0  0  0  0
  -16.5403  -29.9085   23.6357 C   0  0  0  0  0  0
  -16.7333  -28.6509   23.0373 C   0  0  0  0  0  0
  -26.4633  -31.6463   25.0670 C   0  0  0  0  0  0
  -25.3629  -31.3854   26.1235 C   0  0  0  0  0  0
  -27.0611  -30.2773   24.6766 C   0  0  0  0  0  0
  -27.6030  -32.4392   25.7501 C   0  0  0  0  0  0
  -27.5558  -37.1696   24.8464 C   0  0  0  0  0  0
  -21.4500  -29.2997   22.3381 N   0  0  0  0  0  0
  -26.4259  -37.3599   23.9410 N   0  0  0  0  0  0
  -24.8228  -30.8874   22.0691 N   0  0  0  0  0  0
  -23.4199  -28.7794   23.3101 O   0  0  0  0  0  0
  -28.1673  -25.1091   20.3722 O   0  0  0  0  0  0
  -26.5834  -34.8833   22.4532 O   0  0  0  0  0  0
  -23.6039  -32.0891   23.6080 O   0  0  0  0  0  0
  -29.0485  -19.3496   18.4949 C   0  0  0  0  0  0
  -28.7144  -21.2637   20.5492 C   0  0  0  0  0  0
  -28.2754  -23.2522   19.9855 C   0  0  0  0  0  0
  -29.3848  -19.3459   19.9902 C   0  0  1  0  0  0
  -29.4135  -17.4701   20.3667 N   0  0  0  0  0  0
  -31.3613  -13.6551   19.1652 H   0  0  0  0  0  0
  -30.6322  -12.5718   20.2869 H   0  0  0  0  0  0
  -30.0942  -11.9250   17.9141 H   0  0  0  0  0  0
  -29.4679  -13.5245   17.5987 H   0  0  0  0  0  0
  -28.2600  -11.3545   19.3204 H   0  0  0  0  0  0
  -27.5075  -12.1774   17.9712 H   0  0  0  0  0  0
  -27.4025  -14.2239   19.1885 H   0  0  0  0  0  0
  -28.9056  -13.0128   21.5554 H   0  0  0  0  0  0
  -28.0636  -14.5352   21.5828 H   0  0  0  0  0  0
  -25.2815   -9.5685   22.4759 H   0  0  0  0  0  0
  -24.0026   -7.4653   22.7481 H   0  0  0  0  0  0
  -21.0889   -8.8806   19.8948 H   0  0  0  0  0  0
  -22.3772  -10.9681   19.6152 H   0  0  0  0  0  0
  -21.2021   -7.6156   23.9718 H   0  0  0  0  0  0
  -21.1485   -6.0527   25.9076 H   0  0  0  0  0  0
  -22.0592   -2.7615   23.2839 H   0  0  0  0  0  0
  -22.4027  -11.9788   22.4878 H   0  0  0  0  0  0
  -21.0969  -13.1079   22.2681 H   0  0  0  0  0  0
  -24.6054  -15.8559   20.5387 H   0  0  0  0  0  0
  -26.2214  -15.6540   20.0868 H   0  0  0  0  0  0
  -26.7642  -32.4721   23.0662 H   0  0  0  0  0  0
  -25.0021  -33.9149   24.9861 H   0  0  0  0  0  0
  -22.8864  -31.2015   21.2755 H   0  0  0  0  0  0
  -23.3786  -35.9386   23.3243 H   0  0  0  0  0  0
  -24.3556  -36.8845   22.2089 H   0  0  0  0  0  0
  -23.7231  -37.6223   23.6809 H   0  0  0  0  0  0
  -26.3667  -31.1217   20.6374 H   0  0  0  0  0  0
  -26.9765  -30.4913   22.1116 H   0  0  0  0  0  0
  -28.1632  -28.1298   21.3876 H   0  0  0  0  0  0
  -25.8156  -25.4961   18.9641 H   0  0  0  0  0  0
  -24.0872  -27.1612   18.8812 H   0  0  0  0  0  0
  -24.0083  -30.3792   19.3653 H   0  0  0  0  0  0
  -22.9153  -29.1072   19.8056 H   0  0  0  0  0  0
  -25.1378  -36.1529   25.0749 H   0  0  0  0  0  0
  -21.0075  -28.3451   24.1223 H   0  0  0  0  0  0
  -20.5643  -26.2437   23.3696 H   0  0  0  0  0  0
  -21.6665  -26.7339   22.1244 H   0  0  0  0  0  0
  -19.6938  -25.6245   21.1314 H   0  0  0  0  0  0
  -19.6737  -27.3116   20.6706 H   0  0  0  0  0  0
  -17.4241  -26.6700   21.4017 H   0  0  0  0  0  0
  -18.0348  -26.0120   22.9032 H   0  0  0  0  0  0
  -19.8004  -30.7367   24.2123 H   0  0  0  0  0  0
  -17.5064  -31.6279   24.5166 H   0  0  0  0  0  0
  -15.5399  -30.2957   23.7737 H   0  0  0  0  0  0
  -15.8734  -28.0793   22.7148 H   0  0  0  0  0  0
  -24.5856  -30.7165   25.7522 H   0  0  0  0  0  0
  -24.8776  -32.3097   26.4376 H   0  0  0  0  0  0
  -25.7743  -30.9198   27.0200 H   0  0  0  0  0  0
  -26.3380  -29.6302   24.1794 H   0  0  0  0  0  0
  -27.3967  -29.7331   25.5604 H   0  0  0  0  0  0
  -27.9385  -30.3839   24.0386 H   0  0  0  0  0  0
  -27.2533  -33.3792   26.1781 H   0  0  0  0  0  0
  -28.3985  -32.6798   25.0436 H   0  0  0  0  0  0
  -28.0541  -31.8730   26.5659 H   0  0  0  0  0  0
  -28.2517  -38.0044   24.7530 H   0  0  0  0  0  0
  -28.1112  -36.2564   24.6268 H   0  0  0  0  0  0
  -27.2275  -37.1296   25.8864 H   0  0  0  0  0  0
  -20.9868  -29.8610   21.6369 H   0  0  0  0  0  0
  -26.0061  -38.2631   24.1440 H   0  0  0  0  0  0
  -29.3023  -20.3074   18.0395 H   0  0  0  0  0  0
  -27.9836  -19.1799   18.3338 H   0  0  0  0  0  0
  -29.5980  -18.5769   17.9561 H   0  0  0  0  0  0
  -27.7852  -21.0066   21.0577 H   0  0  0  0  0  0
  -29.3931  -21.4550   21.3804 H   0  0  0  0  0  0
  -27.3066  -23.1182   19.5040 H   0  0  0  0  0  0
  -28.9576  -23.3382   19.1399 H   0  0  0  0  0  0
  -30.4613  -19.5173   20.0331 H   0  0  0  0  0  0
  -28.4680  -17.2311   20.6352 H   0  0  0  0  0  0
  1 25  1  0  0  0
  1 30  2  0  0  0
  1 75  1  0  0  0
  2  3  1  0  0  0
  2 25  1  0  0  0
  2 76  1  0  0  0
  2 77  1  0  0  0
  3  4  1  0  0  0
  3 78  1  0  0  0
  3 79  1  0  0  0
  4  5  1  0  0  0
  4 80  1  0  0  0
  4 81  1  0  0  0
  5  6  1  0  0  0
  5 26  1  0  0  0
  5 82  1  0  0  0
  6 25  1  0  0  0
  6 83  1  0  0  0
  6 84  1  0  0  0
  7  8  2  0  0  0
  7 26  1  0  0  0
  7 29  1  0  0  0
  8  9  1  0  0  0
  8 22  1  0  0  0
  9 10  1  0  0  0
  9 27  2  0  0  0
 10 11  2  0  0  0
 10 15  1  0  0  0
 11 12  1  0  0  0
 11 85  1  0  0  0
 12 13  2  0  0  0
 12 86  1  0  0  0
 13 14  1  0  0  0
 13 31  1  0  0  0
 14 15  2  0  0  0
 14 87  1  0  0  0
 15 88  1  0  0  0
 16 17  2  0  0  0
 16 21  1  0  0  0
 16 31  1  0  0  0
 17 18  1  0  0  0
 17 89  1  0  0  0
 18 19  2  0  0  0
 18 90  1  0  0  0
 19 20  1  0  0  0
 19 24  1  0  0  0
 20 21  2  0  0  0
 20 91  1  0  0  0
 21 23  1  0  0  0
 22 28  1  0  0  0
 22 32  2  0  0  0
 26 27  1  0  0  0
 28 92  1  0  0  0
 28 93  1  0  0  0
 29 94  1  0  0  0
 29 95  1  0  0  0
 33 34  1  0  0  0
 33 66  1  0  0  0
 33 70  2  0  0  0
 34 36  1  0  0  0
 34 59  1  0  0  0
 34 96  1  0  0  0
 35 44  2  0  0  0
 35 45  1  0  0  0
 35 68  1  0  0  0
 36 56  1  0  0  0
 36 97  1  0  0  0
 37 39  1  0  0  0
 37 47  1  0  0  0
 37 66  1  0  0  0
 37 98  1  0  0  0
 38 43  2  0  0  0
 38 46  1  0  0  0
 38 47  1  0  0  0
 39 64  1  0  0  0
 39 67  2  0  0  0
 40 52  1  0  0  0
 40 53  2  0  0  0
 40 58  1  0  0  0
 41 99  1  0  0  0
 41100  1  0  0  0
 41101  1  0  0  0
 41 48  1  0  0  0
 42 43  1  0  0  0
 42 66  1  0  0  0
 42102  1  0  0  0
 42103  1  0  0  0
 43 44  1  0  0  0
 44104  1  0  0  0
 45 46  2  0  0  0
 45105  1  0  0  0
 46106  1  0  0  0
 47107  1  0  0  0
 47108  1  0  0  0
 48 56  1  0  0  0
 48 65  1  0  0  0
 48109  1  0  0  0
 49 50  1  0  0  0
 49 53  1  0  0  0
 49 64  1  0  0  0
 49110  1  0  0  0
 50 51  1  0  0  0
 50111  1  0  0  0
 50112  1  0  0  0
 51 52  1  0  0  0
 51113  1  0  0  0
 51114  1  0  0  0
 52115  1  0  0  0
 52116  1  0  0  0
 53 54  1  0  0  0
 54 55  2  0  0  0
 54117  1  0  0  0
 55 57  1  0  0  0
 55118  1  0  0  0
 56 69  2  0  0  0
 57 58  2  0  0  0
 57119  1  0  0  0
 58120  1  0  0  0
 59 60  1  0  0  0
 59 61  1  0  0  0
 59 62  1  0  0  0
 60121  1  0  0  0
 60122  1  0  0  0
 60123  1  0  0  0
 61124  1  0  0  0
 61125  1  0  0  0
 61126  1  0  0  0
 62127  1  0  0  0
 62128  1  0  0  0
 62129  1  0  0  0
 63 65  1  0  0  0
 63130  1  0  0  0
 63131  1  0  0  0
 63132  1  0  0  0
 64133  1  0  0  0
 65134  1  0  0  0
 68 73  1  0  0  0
 71135  1  0  0  0
 71136  1  0  0  0
 71137  1  0  0  0
 71 74  1  0  0  0
 72 73  1  0  0  0
 72 74  1  0  0  0
 72138  1  0  0  0
 72139  1  0  0  0
 73140  1  0  0  0
 73141  1  0  0  0
 74 75  1  0  0  0
 74142  1  0  0  0
 75143  1  0  0  0
M  ISO  4   1 100  68 101  73 101  75 100
M  END
> <chiral flag>
0

> <version>
0

> <s_m_source_file>
/data/baiqing/PycharmProjects/Reinvent-master-3.2/result/LINK_invent/BTK/process_docking_weight1_custom_sum_contain_oxygen_bond_distance_aromatic_linkinvent_7_9_3/rearranged_h_0104.sdf

> <i_m_source_file_index>
66

> <r_mmod_Potential_Energy-OPLS-2005>
4160.39990234375

> <r_mmod_Stretch_Energy-OPLS-2005>
1938.98266601562

> <r_mmod_Bend_Energy-OPLS-2005>
891.2353515625

> <r_mmod_Torsional_Energy-OPLS-2005>
225.909072875977

> <r_mmod_Improper_Torsional_Energy-OPLS-2005>
4.00446653366089

> <r_mmod_Van_der_Waal_Energy-OPLS-2005>
112.343627929688

> <r_mmod_Electrostatic_Energy-OPLS-2005>
-332.167144775391

> <r_mmod_Solvation_Energy-OPLS-2005>
-217.999374389648

> <b_mmod_Minimization_Converged-OPLS-2005>
0

> <r_mmod_RMS_Derivative-OPLS-2005>
0.210489928722382

$$$$
66
                    3D
 Structure written by MMmdl.
162170  0  0  1  0            999 V2000
  -30.5806  -14.7503   20.5394 C   0  0  0  0  0  0
  -30.4595  -12.4842   19.4438 C   0  0  0  0  0  0
  -29.5074  -12.5600   18.2224 C   0  0  0  0  0  0
  -28.0310  -12.3562   18.6359 C   0  0  0  0  0  0
  -27.6571  -13.2018   19.8811 C   0  0  2  0  0  0
  -28.7281  -13.0045   20.9826 C   0  0  0  0  0  0
  -25.2509  -13.8086   20.5614 C   0  0  0  0  0  0
  -24.1821  -13.0358   20.9260 C   0  0  0  0  0  0
  -24.6418  -11.6860   20.8852 C   0  0  0  0  0  0
  -23.9094  -10.4235   21.0451 C   0  0  0  0  0  0
  -24.3640   -9.4127   21.9217 C   0  0  0  0  0  0
  -23.6313   -8.2168   22.0740 C   0  0  0  0  0  0
  -22.4299   -8.0241   21.3523 C   0  0  0  0  0  0
  -21.9945   -9.0231   20.4632 C   0  0  0  0  0  0
  -22.7282  -10.2104   20.3067 C   0  0  0  0  0  0
  -21.6821   -6.0736   22.5289 C   0  0  0  0  0  0
  -21.3985   -6.5635   23.8231 C   0  0  0  0  0  0
  -21.3670   -5.6783   24.9197 C   0  0  0  0  0  0
  -21.6054   -4.3052   24.7247 C   0  0  0  0  0  0
  -21.8818   -3.8156   23.4371 C   0  0  0  0  0  0
  -21.9173   -4.6968   22.3420 C   0  0  0  0  0  0
  -22.7844  -13.5165   21.1916 C   0  0  0  0  0  0
  -22.1660   -4.2152   21.1001 F   0  0  0  0  0  0
  -21.5641   -3.4543   25.7767 F   0  0  0  0  0  0
  -30.0016  -13.4910   20.4366 N   0  0  0  0  0  0
  -26.3022  -12.9274   20.3494 N   0  0  0  0  0  0
  -25.9364  -11.6452   20.5952 N   0  0  0  0  0  0
  -22.0509  -12.8135   22.0487 N   0  0  0  0  0  0
  -25.3932  -15.1763   20.3641 N   0  0  0  0  0  0
  -31.7320  -14.8659   20.1072 O   0  0  0  0  0  0
  -21.6618   -6.8875   21.4247 O   0  0  0  0  0  0
  -22.3521  -14.5448   20.6740 O   0  0  0  0  0  0
  -24.6276  -31.8560   23.2022 C   0  0  0  0  0  0
  -25.9100  -32.4771   23.8358 C   0  0  1  0  0  0
  -27.2298  -27.2875   20.1111 C   0  0  0  0  0  0
  -25.5885  -33.8575   24.2272 N   0  0  0  0  0  0
  -23.4249  -30.4810   21.5442 C   0  0  2  0  0  0
  -24.8734  -28.9302   20.1117 C   0  0  0  0  0  0
  -22.7480  -29.4619   22.4915 C   0  0  0  0  0  0
  -18.0287  -28.1406   22.8483 C   0  0  0  0  0  0
  -24.1488  -36.7300   23.2639 C   0  0  0  0  0  0
  -25.9698  -30.7740   21.3812 C   0  0  0  0  0  0
  -26.0431  -29.3991   20.7217 C   0  0  0  0  0  0
  -27.2203  -28.5873   20.7166 C   0  0  0  0  0  0
  -26.0380  -26.8887   19.4586 C   0  0  0  0  0  0
  -24.8742  -27.6821   19.4723 C   0  0  0  0  0  0
  -23.6423  -29.8139   20.1607 C   0  0  0  0  0  0
  -25.4121  -36.3091   24.0322 C   0  0  1  0  0  0
  -20.5893  -28.3709   23.1267 C   0  0  2  0  0  0
  -20.6788  -26.9427   22.5414 C   0  0  0  0  0  0
  -19.5759  -26.6393   21.5222 C   0  0  0  0  0  0
  -18.1932  -26.7952   22.1626 C   0  0  0  0  0  0
  -19.1542  -28.8871   23.2872 C   0  0  0  0  0  0
  -18.9466  -30.1471   23.8896 C   0  0  0  0  0  0
  -17.6469  -30.6605   24.0579 C   0  0  0  0  0  0
  -25.9031  -34.9446   23.5099 C   0  0  0  0  0  0
  -16.5358  -29.9114   23.6333 C   0  0  0  0  0  0
  -16.7273  -28.6528   23.0359 C   0  0  0  0  0  0
  -26.4497  -31.6593   25.0731 C   0  0  0  0  0  0
  -25.3700  -31.3778   26.1431 C   0  0  0  0  0  0
  -27.0334  -30.2999   24.6217 C   0  0  0  0  0  0
  -27.6032  -32.4358   25.7505 C   0  0  0  0  0  0
  -27.5595  -37.1801   24.8458 C   0  0  0  0  0  0
  -21.4194  -29.3046   22.3642 N   0  0  0  0  0  0
  -26.4310  -37.3784   23.9398 N   0  0  0  0  0  0
  -24.6929  -31.0562   22.0977 N   0  0  0  0  0  0
  -23.4174  -28.8143   23.3003 O   0  0  0  0  0  0
  -28.3457  -26.4220   20.1833 O   0  0  0  0  0  0
  -26.5636  -34.8927   22.4689 O   0  0  0  0  0  0
  -23.5424  -32.1372   23.7312 O   0  0  0  0  0  0
  -30.0029  -18.7827   21.2441 C   0  0  0  0  0  0
  -30.0645  -19.3889   19.1261 C   0  0  0  0  0  0
  -29.9340  -19.9363   20.3772 C   0  0  0  0  0  0
  -30.0930  -17.5765   20.5470 C   0  0  0  0  0  0
  -28.3689  -16.1049   21.4093 C   0  0  0  0  0  0
  -31.7057  -17.0389   17.5392 C   0  0  0  0  0  0
  -29.3166  -17.5562   16.8782 C   0  0  0  0  0  0
  -29.1639  -23.8493   20.4968 C   0  0  0  0  0  0
  -28.2055  -24.9685   19.8458 C   0  0  0  0  0  0
  -29.0783  -22.3127   19.9971 C   0  0  0  0  0  0
  -29.8854  -16.1131   21.1321 C   0  0  1  0  0  0
  -30.2470  -17.1138   18.0228 C   0  0  0  0  0  0
  -30.1316  -17.9813   19.2000 N   0  0  0  0  0  0
  -29.8339  -21.2983   20.7648 O   0  0  0  0  0  0
  -31.4899  -12.6444   19.1303 H   0  0  0  0  0  0
  -30.4535  -11.4801   19.8750 H   0  0  0  0  0  0
  -29.7974  -11.8312   17.4652 H   0  0  0  0  0  0
  -29.6053  -13.5422   17.7551 H   0  0  0  0  0  0
  -27.8803  -11.2973   18.8533 H   0  0  0  0  0  0
  -27.3672  -12.5954   17.8028 H   0  0  0  0  0  0
  -27.6742  -14.2351   19.5471 H   0  0  0  0  0  0
  -28.8085  -11.9410   21.2089 H   0  0  0  0  0  0
  -28.4919  -13.4072   21.9601 H   0  0  0  0  0  0
  -25.2767   -9.5596   22.4823 H   0  0  0  0  0  0
  -24.0013   -7.4541   22.7459 H   0  0  0  0  0  0
  -21.0866   -8.8785   19.8937 H   0  0  0  0  0  0
  -22.3764  -10.9680   19.6198 H   0  0  0  0  0  0
  -21.1940   -7.6124   23.9764 H   0  0  0  0  0  0
  -21.1521   -6.0494   25.9104 H   0  0  0  0  0  0
  -22.0587   -2.7617   23.2881 H   0  0  0  0  0  0
  -22.4103  -11.9736   22.4769 H   0  0  0  0  0  0
  -21.1152  -13.1177   22.2786 H   0  0  0  0  0  0
  -24.5914  -15.7973   20.3986 H   0  0  0  0  0  0
  -26.2043  -15.6123   19.9453 H   0  0  0  0  0  0
  -26.7150  -32.5449   23.1084 H   0  0  0  0  0  0
  -25.0001  -33.9742   25.0391 H   0  0  0  0  0  0
  -22.7171  -31.3005   21.3976 H   0  0  0  0  0  0
  -23.3761  -35.9622   23.3308 H   0  0  0  0  0  0
  -24.3562  -36.8927   22.2052 H   0  0  0  0  0  0
  -23.7229  -37.6494   23.6665 H   0  0  0  0  0  0
  -26.1075  -31.5313   20.6100 H   0  0  0  0  0  0
  -26.8484  -30.8228   22.0139 H   0  0  0  0  0  0
  -28.1166  -28.9371   21.2109 H   0  0  0  0  0  0
  -25.9752  -25.9476   18.9333 H   0  0  0  0  0  0
  -23.9789  -27.3261   18.9822 H   0  0  0  0  0  0
  -23.7644  -30.5887   19.4020 H   0  0  0  0  0  0
  -22.7603  -29.2428   19.8621 H   0  0  0  0  0  0
  -25.1304  -36.1969   25.0819 H   0  0  0  0  0  0
  -20.9989  -28.3319   24.1386 H   0  0  0  0  0  0
  -20.5716  -26.2318   23.3622 H   0  0  0  0  0  0
  -21.6657  -26.7464   22.1196 H   0  0  0  0  0  0
  -19.6938  -25.6299   21.1261 H   0  0  0  0  0  0
  -19.6731  -27.3199   20.6753 H   0  0  0  0  0  0
  -17.4215  -26.6686   21.4029 H   0  0  0  0  0  0
  -18.0334  -26.0100   22.9024 H   0  0  0  0  0  0
  -19.7936  -30.7288   24.2271 H   0  0  0  0  0  0
  -17.5023  -31.6282   24.5183 H   0  0  0  0  0  0
  -15.5361  -30.3031   23.7656 H   0  0  0  0  0  0
  -15.8663  -28.0857   22.7083 H   0  0  0  0  0  0
  -24.5829  -30.7198   25.7743 H   0  0  0  0  0  0
  -24.8950  -32.2970   26.4861 H   0  0  0  0  0  0
  -25.7964  -30.8915   27.0201 H   0  0  0  0  0  0
  -26.2918  -29.6762   24.1203 H   0  0  0  0  0  0
  -27.3957  -29.7273   25.4765 H   0  0  0  0  0  0
  -27.8830  -30.4288   23.9507 H   0  0  0  0  0  0
  -27.2598  -33.3630   26.2117 H   0  0  0  0  0  0
  -28.3808  -32.6973   25.0316 H   0  0  0  0  0  0
  -28.0725  -31.8467   26.5390 H   0  0  0  0  0  0
  -28.2598  -38.0112   24.7507 H   0  0  0  0  0  0
  -28.1103  -36.2630   24.6286 H   0  0  0  0  0  0
  -27.2291  -37.1452   25.8855 H   0  0  0  0  0  0
  -20.9368  -29.8737   21.6828 H   0  0  0  0  0  0
  -26.0197  -38.2861   24.1412 H   0  0  0  0  0  0
  -29.9112  -18.8364   22.3224 H   0  0  0  0  0  0
  -30.1093  -19.8847   18.1658 H   0  0  0  0  0  0
  -27.9689  -15.2943   21.9974 H   0  0  0  0  0  0
  -27.8183  -16.1960   20.4777 H   0  0  0  0  0  0
  -28.0978  -16.9752   22.0046 H   0  0  0  0  0  0
  -31.8158  -16.3162   16.7285 H   0  0  0  0  0  0
  -32.3731  -16.7332   18.3439 H   0  0  0  0  0  0
  -32.0489  -18.0074   17.1713 H   0  0  0  0  0  0
  -29.2959  -16.8090   16.0856 H   0  0  0  0  0  0
  -29.6509  -18.4873   16.4203 H   0  0  0  0  0  0
  -28.2920  -17.6902   17.2226 H   0  0  0  0  0  0
  -28.9796  -23.8533   21.5711 H   0  0  0  0  0  0
  -30.1954  -24.1809   20.3738 H   0  0  0  0  0  0
  -27.1969  -24.6385   20.0875 H   0  0  0  0  0  0
  -28.2913  -24.8958   18.7618 H   0  0  0  0  0  0
  -29.4010  -22.2625   18.9573 H   0  0  0  0  0  0
  -28.0334  -21.9979   19.9985 H   0  0  0  0  0  0
  -30.3484  -16.1387   22.1196 H   0  0  0  0  0  0
  -29.9270  -16.1135   18.3070 H   0  0  0  0  0  0
  1 25  1  0  0  0
  1 30  2  0  0  0
  1 81  1  0  0  0
  2  3  1  0  0  0
  2 25  1  0  0  0
  2 85  1  0  0  0
  2 86  1  0  0  0
  3  4  1  0  0  0
  3 87  1  0  0  0
  3 88  1  0  0  0
  4  5  1  0  0  0
  4 89  1  0  0  0
  4 90  1  0  0  0
  5  6  1  0  0  0
  5 26  1  0  0  0
  5 91  1  0  0  0
  6 25  1  0  0  0
  6 92  1  0  0  0
  6 93  1  0  0  0
  7  8  2  0  0  0
  7 26  1  0  0  0
  7 29  1  0  0  0
  8  9  1  0  0  0
  8 22  1  0  0  0
  9 10  1  0  0  0
  9 27  2  0  0  0
 10 11  2  0  0  0
 10 15  1  0  0  0
 11 12  1  0  0  0
 11 94  1  0  0  0
 12 13  2  0  0  0
 12 95  1  0  0  0
 13 14  1  0  0  0
 13 31  1  0  0  0
 14 15  2  0  0  0
 14 96  1  0  0  0
 15 97  1  0  0  0
 16 17  2  0  0  0
 16 21  1  0  0  0
 16 31  1  0  0  0
 17 18  1  0  0  0
 17 98  1  0  0  0
 18 19  2  0  0  0
 18 99  1  0  0  0
 19 20  1  0  0  0
 19 24  1  0  0  0
 20 21  2  0  0  0
 20100  1  0  0  0
 21 23  1  0  0  0
 22 28  1  0  0  0
 22 32  2  0  0  0
 26 27  1  0  0  0
 28101  1  0  0  0
 28102  1  0  0  0
 29103  1  0  0  0
 29104  1  0  0  0
 33 34  1  0  0  0
 33 66  1  0  0  0
 33 70  2  0  0  0
 34 36  1  0  0  0
 34 59  1  0  0  0
 34105  1  0  0  0
 35 44  2  0  0  0
 35 45  1  0  0  0
 35 68  1  0  0  0
 36 56  1  0  0  0
 36106  1  0  0  0
 37 39  1  0  0  0
 37 47  1  0  0  0
 37 66  1  0  0  0
 37107  1  0  0  0
 38 43  2  0  0  0
 38 46  1  0  0  0
 38 47  1  0  0  0
 39 64  1  0  0  0
 39 67  2  0  0  0
 40 52  1  0  0  0
 40 53  2  0  0  0
 40 58  1  0  0  0
 41108  1  0  0  0
 41109  1  0  0  0
 41110  1  0  0  0
 41 48  1  0  0  0
 42 43  1  0  0  0
 42 66  1  0  0  0
 42111  1  0  0  0
 42112  1  0  0  0
 43 44  1  0  0  0
 44113  1  0  0  0
 45 46  2  0  0  0
 45114  1  0  0  0
 46115  1  0  0  0
 47116  1  0  0  0
 47117  1  0  0  0
 48 56  1  0  0  0
 48 65  1  0  0  0
 48118  1  0  0  0
 49 50  1  0  0  0
 49 53  1  0  0  0
 49 64  1  0  0  0
 49119  1  0  0  0
 50 51  1  0  0  0
 50120  1  0  0  0
 50121  1  0  0  0
 51 52  1  0  0  0
 51122  1  0  0  0
 51123  1  0  0  0
 52124  1  0  0  0
 52125  1  0  0  0
 53 54  1  0  0  0
 54 55  2  0  0  0
 54126  1  0  0  0
 55 57  1  0  0  0
 55127  1  0  0  0
 56 69  2  0  0  0
 57 58  2  0  0  0
 57128  1  0  0  0
 58129  1  0  0  0
 59 60  1  0  0  0
 59 61  1  0  0  0
 59 62  1  0  0  0
 60130  1  0  0  0
 60131  1  0  0  0
 60132  1  0  0  0
 61133  1  0  0  0
 61134  1  0  0  0
 61135  1  0  0  0
 62136  1  0  0  0
 62137  1  0  0  0
 62138  1  0  0  0
 63 65  1  0  0  0
 63139  1  0  0  0
 63140  1  0  0  0
 63141  1  0  0  0
 64142  1  0  0  0
 65143  1  0  0  0
 68 79  1  0  0  0
 71 73  1  0  0  0
 71 74  2  0  0  0
 71144  1  0  0  0
 72 73  2  0  0  0
 72 83  1  0  0  0
 72145  1  0  0  0
 73 84  1  0  0  0
 74 81  1  0  0  0
 74 83  1  0  0  0
 75146  1  0  0  0
 75147  1  0  0  0
 75148  1  0  0  0
 75 81  1  0  0  0
 76149  1  0  0  0
 76150  1  0  0  0
 76151  1  0  0  0
 76 82  1  0  0  0
 77 82  1  0  0  0
 77152  1  0  0  0
 77153  1  0  0  0
 77154  1  0  0  0
 78 79  1  0  0  0
 78 80  1  0  0  0
 78155  1  0  0  0
 78156  1  0  0  0
 79157  1  0  0  0
 79158  1  0  0  0
 80 84  1  0  0  0
 80159  1  0  0  0
 80160  1  0  0  0
 81161  1  0  0  0
 82 83  1  0  0  0
 82162  1  0  0  0
M  ISO  4   1 100  68 101  79 101  81 100
M  END
> <chiral flag>
0

> <version>
0

> <s_m_source_file>
/data/baiqing/PycharmProjects/Reinvent-master-3.2/result/LINK_invent/BTK/process_docking_weight1_custom_sum_contain_oxygen_bond_distance_aromatic_linkinvent_7_9_3/rearranged_h_0104.sdf

> <i_m_source_file_index>
67

> <r_mmod_Potential_Energy-OPLS-2005>
247.982315063477

> <r_mmod_Stretch_Energy-OPLS-2005>
122.733955383301

> <r_mmod_Bend_Energy-OPLS-2005>
219.660232543945

> <r_mmod_Torsional_Energy-OPLS-2005>
222.084396362305

> <r_mmod_Improper_Torsional_Energy-OPLS-2005>
4.25441789627075

> <r_mmod_Van_der_Waal_Energy-OPLS-2005>
126.960716247559

> <r_mmod_Electrostatic_Energy-OPLS-2005>
-320.336853027344

> <r_mmod_Solvation_Energy-OPLS-2005>
-199.997909545898

> <b_mmod_Minimization_Converged-OPLS-2005>
0

> <r_mmod_RMS_Derivative-OPLS-2005>
3.81745743751526

$$$$
67
                    3D
 Structure written by MMmdl.
167174  0  0  1  0            999 V2000
  -30.3647  -15.5979   20.3078 C   0  0  0  0  0  0
  -30.4305  -13.0459   19.5508 C   0  0  0  0  0  0
  -29.5566  -12.6584   18.3244 C   0  0  0  0  0  0
  -28.1267  -12.3095   18.7620 C   0  0  0  0  0  0
  -27.6039  -13.3149   19.8141 C   0  0  2  0  0  0
  -28.6209  -13.6534   20.9338 C   0  0  0  0  0  0
  -25.2370  -13.8294   20.5777 C   0  0  0  0  0  0
  -24.1765  -13.0452   20.9242 C   0  0  0  0  0  0
  -24.6467  -11.6948   20.8731 C   0  0  0  0  0  0
  -23.9173  -10.4307   21.0384 C   0  0  0  0  0  0
  -24.3686   -9.4207   21.9181 C   0  0  0  0  0  0
  -23.6322   -8.2270   22.0773 C   0  0  0  0  0  0
  -22.4298   -8.0316   21.3560 C   0  0  0  0  0  0
  -21.9957   -9.0300   20.4664 C   0  0  0  0  0  0
  -22.7324  -10.2149   20.3050 C   0  0  0  0  0  0
  -21.6870   -6.0750   22.5274 C   0  0  0  0  0  0
  -21.4030   -6.5653   23.8217 C   0  0  0  0  0  0
  -21.3644   -5.6793   24.9167 C   0  0  0  0  0  0
  -21.6038   -4.3064   24.7219 C   0  0  0  0  0  0
  -21.8819   -3.8155   23.4336 C   0  0  0  0  0  0
  -21.9197   -4.6982   22.3396 C   0  0  0  0  0  0
  -22.7769  -13.5173   21.1861 C   0  0  0  0  0  0
  -22.1668   -4.2166   21.0974 F   0  0  0  0  0  0
  -21.5604   -3.4534   25.7725 F   0  0  0  0  0  0
  -29.8209  -14.2406   20.2910 N   0  0  0  0  0  0
  -26.2839  -12.9655   20.3231 N   0  0  0  0  0  0
  -25.9426  -11.6712   20.5691 N   0  0  0  0  0  0
  -22.0422  -12.8175   22.0408 N   0  0  0  0  0  0
  -25.3945  -15.2060   20.4259 N   0  0  0  0  0  0
  -31.5828  -15.5321   20.0693 O   0  0  0  0  0  0
  -21.6649   -6.8914   21.4258 O   0  0  0  0  0  0
  -22.3445  -14.5469   20.6673 O   0  0  0  0  0  0
  -24.6817  -31.8031   23.1554 C   0  0  0  0  0  0
  -25.9399  -32.4492   23.8097 C   0  0  1  0  0  0
  -27.2441  -26.7587   20.2037 C   0  0  0  0  0  0
  -25.5965  -33.8318   24.1986 N   0  0  0  0  0  0
  -23.5072  -30.4043   21.5098 C   0  0  2  0  0  0
  -24.9635  -28.7489   20.1243 C   0  0  0  0  0  0
  -22.7753  -29.4342   22.4752 C   0  0  0  0  0  0
  -18.0341  -28.1385   22.8449 C   0  0  0  0  0  0
  -24.1508  -36.7171   23.2653 C   0  0  0  0  0  0
  -26.0854  -30.5532   21.4083 C   0  0  0  0  0  0
  -26.1559  -29.1228   20.7605 C   0  0  0  0  0  0
  -27.2841  -28.1571   20.7609 C   0  0  0  0  0  0
  -26.0125  -26.5732   19.5297 C   0  0  0  0  0  0
  -24.9280  -27.4974   19.4855 C   0  0  0  0  0  0
  -23.7561  -29.6962   20.1473 C   0  0  0  0  0  0
  -25.4151  -36.2914   24.0291 C   0  0  1  0  0  0
  -20.5974  -28.3756   23.1122 C   0  0  2  0  0  0
  -20.6809  -26.9410   22.5395 C   0  0  0  0  0  0
  -19.5794  -26.6354   21.5201 C   0  0  0  0  0  0
  -18.1976  -26.7925   22.1602 C   0  0  0  0  0  0
  -19.1607  -28.8898   23.2764 C   0  0  0  0  0  0
  -18.9518  -30.1476   23.8809 C   0  0  0  0  0  0
  -17.6513  -30.6577   24.0533 C   0  0  0  0  0  0
  -25.9123  -34.9299   23.4988 C   0  0  0  0  0  0
  -16.5395  -29.9055   23.6336 C   0  0  0  0  0  0
  -16.7328  -28.6476   23.0360 C   0  0  0  0  0  0
  -26.4573  -31.6504   25.0712 C   0  0  0  0  0  0
  -25.3665  -31.3753   26.1338 C   0  0  0  0  0  0
  -27.0497  -30.2857   24.6564 C   0  0  0  0  0  0
  -27.6038  -32.4357   25.7491 C   0  0  0  0  0  0
  -27.5597  -37.1702   24.8450 C   0  0  0  0  0  0
  -21.4412  -29.3030   22.3456 N   0  0  0  0  0  0
  -26.4279  -37.3666   23.9430 N   0  0  0  0  0  0
  -24.7817  -30.9511   22.0782 N   0  0  0  0  0  0
  -23.4208  -28.7931   23.3062 O   0  0  0  0  0  0
  -28.2558  -25.5998   20.1941 O   0  0  0  0  0  0
  -26.5794  -34.8858   22.4631 O   0  0  0  0  0  0
  -23.5824  -32.1080   23.6520 O   0  0  0  0  0  0
  -31.9747  -20.9750   18.6520 C   0  0  0  0  0  0
  -33.6617  -22.0535   20.1973 C   0  0  0  0  0  0
  -27.9086  -20.1260   21.3246 C   0  0  0  0  0  0
  -30.2536  -22.1055   22.4724 C   0  0  0  0  0  0
  -30.4018  -19.6927   22.8618 C   0  0  0  0  0  0
  -28.8607  -22.1911   19.9347 C   0  0  0  0  0  0
  -29.7296  -18.6848   19.9726 C   0  0  0  0  0  0
  -28.1387  -23.8889   20.4665 C   0  0  0  0  0  0
  -32.1952  -21.6112   20.0403 C   0  0  0  0  0  0
  -29.2542  -20.4398   20.6528 C   0  0  2  0  0  0
  -30.4090  -20.7479   21.7279 C   0  0  0  0  0  0
  -29.6384  -16.9663   20.4026 N   0  0  0  0  0  0
  -31.7863  -20.6847   21.1331 N   0  3  0  0  0  0
  -31.4369  -13.2777   19.1966 H   0  0  0  0  0  0
  -30.5564  -12.1962   20.2224 H   0  0  0  0  0  0
  -30.0022  -11.8230   17.7822 H   0  0  0  0  0  0
  -29.5278  -13.4992   17.6309 H   0  0  0  0  0  0
  -28.1432  -11.3049   19.1888 H   0  0  0  0  0  0
  -27.4616  -12.2722   17.8980 H   0  0  0  0  0  0
  -27.4666  -14.2373   19.2472 H   0  0  0  0  0  0
  -28.8584  -12.7810   21.5445 H   0  0  0  0  0  0
  -28.1905  -14.3964   21.6088 H   0  0  0  0  0  0
  -25.2828   -9.5657   22.4767 H   0  0  0  0  0  0
  -23.9989   -7.4662   22.7519 H   0  0  0  0  0  0
  -21.0868   -8.8868   19.8987 H   0  0  0  0  0  0
  -22.3813  -10.9701   19.6163 H   0  0  0  0  0  0
  -21.2054   -7.6160   23.9728 H   0  0  0  0  0  0
  -21.1449   -6.0520   25.9071 H   0  0  0  0  0  0
  -22.0611   -2.7626   23.2837 H   0  0  0  0  0  0
  -22.4037  -11.9840   22.4799 H   0  0  0  0  0  0
  -21.1052  -13.1243   22.2611 H   0  0  0  0  0  0
  -24.6205  -15.8502   20.5468 H   0  0  0  0  0  0
  -26.2399  -15.6583   20.1046 H   0  0  0  0  0  0
  -26.7495  -32.4969   23.0812 H   0  0  0  0  0  0
  -24.9944  -33.9354   25.0018 H   0  0  0  0  0  0
  -22.8330  -31.2416   21.3172 H   0  0  0  0  0  0
  -23.3810  -35.9453   23.3216 H   0  0  0  0  0  0
  -24.3593  -36.8951   22.2093 H   0  0  0  0  0  0
  -23.7224  -37.6294   23.6806 H   0  0  0  0  0  0
  -26.2800  -31.2778   20.6172 H   0  0  0  0  0  0
  -26.9398  -30.6183   22.0716 H   0  0  0  0  0  0
  -28.1930  -28.4515   21.2638 H   0  0  0  0  0  0
  -25.8625  -25.6246   19.0334 H   0  0  0  0  0  0
  -24.0283  -27.1991   18.9639 H   0  0  0  0  0  0
  -23.9169  -30.4521   19.3772 H   0  0  0  0  0  0
  -22.8610  -29.1534   19.8350 H   0  0  0  0  0  0
  -25.1332  -36.1687   25.0773 H   0  0  0  0  0  0
  -21.0050  -28.3397   24.1248 H   0  0  0  0  0  0
  -20.5669  -26.2376   23.3657 H   0  0  0  0  0  0
  -21.6667  -26.7355   22.1203 H   0  0  0  0  0  0
  -19.6953  -25.6253   21.1262 H   0  0  0  0  0  0
  -19.6738  -27.3133   20.6700 H   0  0  0  0  0  0
  -17.4239  -26.6661   21.3998 H   0  0  0  0  0  0
  -18.0338  -26.0074   22.8999 H   0  0  0  0  0  0
  -19.8014  -30.7282   24.2159 H   0  0  0  0  0  0
  -17.5088  -31.6259   24.5127 H   0  0  0  0  0  0
  -15.5398  -30.2921   23.7743 H   0  0  0  0  0  0
  -15.8731  -28.0776   22.7114 H   0  0  0  0  0  0
  -24.5899  -30.7040   25.7644 H   0  0  0  0  0  0
  -24.8772  -32.2922   26.4636 H   0  0  0  0  0  0
  -25.7866  -30.9021   27.0236 H   0  0  0  0  0  0
  -26.3194  -29.6463   24.1581 H   0  0  0  0  0  0
  -27.3961  -29.7281   25.5281 H   0  0  0  0  0  0
  -27.9162  -30.3988   24.0048 H   0  0  0  0  0  0
  -27.2635  -33.3761   26.1829 H   0  0  0  0  0  0
  -28.3939  -32.6755   25.0371 H   0  0  0  0  0  0
  -28.0612  -31.8659   26.5590 H   0  0  0  0  0  0
  -28.2471  -38.0123   24.7626 H   0  0  0  0  0  0
  -28.1219  -36.2650   24.6107 H   0  0  0  0  0  0
  -27.2319  -37.1126   25.8838 H   0  0  0  0  0  0
  -20.9719  -29.8720   21.6557 H   0  0  0  0  0  0
  -26.0116  -38.2701   24.1516 H   0  0  0  0  0  0
  -32.2242  -21.6701   17.8507 H   0  0  0  0  0  0
  -30.9415  -20.6833   18.4814 H   0  0  0  0  0  0
  -32.5952  -20.0880   18.5204 H   0  0  0  0  0  0
  -33.9420  -22.7244   19.3817 H   0  0  0  0  0  0
  -34.3599  -21.2177   20.1818 H   0  0  0  0  0  0
  -33.8165  -22.6075   21.1234 H   0  0  0  0  0  0
  -27.1420  -19.9643   20.5678 H   0  0  0  0  0  0
  -27.5741  -20.9400   21.9672 H   0  0  0  0  0  0
  -27.9544  -19.2175   21.9228 H   0  0  0  0  0  0
  -29.2759  -22.1987   22.9424 H   0  0  0  0  0  0
  -30.4009  -22.9860   21.8505 H   0  0  0  0  0  0
  -30.9840  -22.1967   23.2796 H   0  0  0  0  0  0
  -29.5119  -19.7682   23.4897 H   0  0  0  0  0  0
  -31.2520  -19.8361   23.5314 H   0  0  0  0  0  0
  -30.4620  -18.6705   22.4944 H   0  0  0  0  0  0
  -29.7377  -22.4912   19.3760 H   0  0  0  0  0  0
  -28.1975  -21.9441   19.1058 H   0  0  0  0  0  0
  -30.7764  -18.7534   19.6841 H   0  0  0  0  0  0
  -29.2330  -18.6888   19.0004 H   0  0  0  0  0  0
  -28.2702  -23.8748   21.5481 H   0  0  0  0  0  0
  -27.0646  -23.7293   20.3730 H   0  0  0  0  0  0
  -31.6431  -22.5406   20.1174 H   0  0  0  0  0  0
  -28.6835  -16.7701   20.6660 H   0  0  0  0  0  0
  -32.4231  -20.8581   21.8946 H   0  0  0  0  0  0
  -31.9741  -19.7431   20.8268 H   0  0  0  0  0  0
  1 25  1  0  0  0
  1 30  2  0  0  0
  1 82  1  0  0  0
  2  3  1  0  0  0
  2 25  1  0  0  0
  2 84  1  0  0  0
  2 85  1  0  0  0
  3  4  1  0  0  0
  3 86  1  0  0  0
  3 87  1  0  0  0
  4  5  1  0  0  0
  4 88  1  0  0  0
  4 89  1  0  0  0
  5  6  1  0  0  0
  5 26  1  0  0  0
  5 90  1  0  0  0
  6 25  1  0  0  0
  6 91  1  0  0  0
  6 92  1  0  0  0
  7  8  2  0  0  0
  7 26  1  0  0  0
  7 29  1  0  0  0
  8  9  1  0  0  0
  8 22  1  0  0  0
  9 10  1  0  0  0
  9 27  2  0  0  0
 10 11  2  0  0  0
 10 15  1  0  0  0
 11 12  1  0  0  0
 11 93  1  0  0  0
 12 13  2  0  0  0
 12 94  1  0  0  0
 13 14  1  0  0  0
 13 31  1  0  0  0
 14 15  2  0  0  0
 14 95  1  0  0  0
 15 96  1  0  0  0
 16 17  2  0  0  0
 16 21  1  0  0  0
 16 31  1  0  0  0
 17 18  1  0  0  0
 17 97  1  0  0  0
 18 19  2  0  0  0
 18 98  1  0  0  0
 19 20  1  0  0  0
 19 24  1  0  0  0
 20 21  2  0  0  0
 20 99  1  0  0  0
 21 23  1  0  0  0
 22 28  1  0  0  0
 22 32  2  0  0  0
 26 27  1  0  0  0
 28100  1  0  0  0
 28101  1  0  0  0
 29102  1  0  0  0
 29103  1  0  0  0
 33 34  1  0  0  0
 33 66  1  0  0  0
 33 70  2  0  0  0
 34 36  1  0  0  0
 34 59  1  0  0  0
 34104  1  0  0  0
 35 44  2  0  0  0
 35 45  1  0  0  0
 35 68  1  0  0  0
 36 56  1  0  0  0
 36105  1  0  0  0
 37 39  1  0  0  0
 37 47  1  0  0  0
 37 66  1  0  0  0
 37106  1  0  0  0
 38 43  2  0  0  0
 38 46  1  0  0  0
 38 47  1  0  0  0
 39 64  1  0  0  0
 39 67  2  0  0  0
 40 52  1  0  0  0
 40 53  2  0  0  0
 40 58  1  0  0  0
 41107  1  0  0  0
 41108  1  0  0  0
 41109  1  0  0  0
 41 48  1  0  0  0
 42 43  1  0  0  0
 42 66  1  0  0  0
 42110  1  0  0  0
 42111  1  0  0  0
 43 44  1  0  0  0
 44112  1  0  0  0
 45 46  2  0  0  0
 45113  1  0  0  0
 46114  1  0  0  0
 47115  1  0  0  0
 47116  1  0  0  0
 48 56  1  0  0  0
 48 65  1  0  0  0
 48117  1  0  0  0
 49 50  1  0  0  0
 49 53  1  0  0  0
 49 64  1  0  0  0
 49118  1  0  0  0
 50 51  1  0  0  0
 50119  1  0  0  0
 50120  1  0  0  0
 51 52  1  0  0  0
 51121  1  0  0  0
 51122  1  0  0  0
 52123  1  0  0  0
 52124  1  0  0  0
 53 54  1  0  0  0
 54 55  2  0  0  0
 54125  1  0  0  0
 55 57  1  0  0  0
 55126  1  0  0  0
 56 69  2  0  0  0
 57 58  2  0  0  0
 57127  1  0  0  0
 58128  1  0  0  0
 59 60  1  0  0  0
 59 61  1  0  0  0
 59 62  1  0  0  0
 60129  1  0  0  0
 60130  1  0  0  0
 60131  1  0  0  0
 61132  1  0  0  0
 61133  1  0  0  0
 61134  1  0  0  0
 62135  1  0  0  0
 62136  1  0  0  0
 62137  1  0  0  0
 63 65  1  0  0  0
 63138  1  0  0  0
 63139  1  0  0  0
 63140  1  0  0  0
 64141  1  0  0  0
 65142  1  0  0  0
 68 78  1  0  0  0
 71143  1  0  0  0
 71144  1  0  0  0
 71145  1  0  0  0
 71 79  1  0  0  0
 72 79  1  0  0  0
 72146  1  0  0  0
 72147  1  0  0  0
 72148  1  0  0  0
 73149  1  0  0  0
 73150  1  0  0  0
 73151  1  0  0  0
 73 80  1  0  0  0
 74152  1  0  0  0
 74153  1  0  0  0
 74154  1  0  0  0
 74 81  1  0  0  0
 75 81  1  0  0  0
 75155  1  0  0  0
 75156  1  0  0  0
 75157  1  0  0  0
 76 78  1  0  0  0
 76 80  1  0  0  0
 76158  1  0  0  0
 76159  1  0  0  0
 77 80  1  0  0  0
 77 82  1  0  0  0
 77160  1  0  0  0
 77161  1  0  0  0
 78162  1  0  0  0
 78163  1  0  0  0
 79 83  1  0  0  0
 79164  1  0  0  0
 80 81  1  0  0  0
 81 83  1  0  0  0
 82165  1  0  0  0
 83166  1  0  0  0
 83167  1  0  0  0
M  CHG  1  83   1
M  ISO  4   1 100  68 101  78 101  82 100
M  END
> <chiral flag>
0

> <version>
0

> <s_m_source_file>
/data/baiqing/PycharmProjects/Reinvent-master-3.2/result/LINK_invent/BTK/process_docking_weight1_custom_sum_contain_oxygen_bond_distance_aromatic_linkinvent_7_9_3/rearranged_h_0104.sdf

> <i_m_source_file_index>
68

> <r_mmod_Potential_Energy-OPLS-2005>
2303.06713867188

> <r_mmod_Stretch_Energy-OPLS-2005>
1125.40295410156

> <r_mmod_Bend_Energy-OPLS-2005>
668.131774902344

> <r_mmod_Torsional_Energy-OPLS-2005>
293.562286376953

> <r_mmod_Improper_Torsional_Energy-OPLS-2005>
4.03465175628662

> <r_mmod_Van_der_Waal_Energy-OPLS-2005>
123.053619384766

> <r_mmod_Electrostatic_Energy-OPLS-2005>
-278.513549804688

> <r_mmod_Solvation_Energy-OPLS-2005>
-441.829650878906

> <b_mmod_Minimization_Converged-OPLS-2005>
0

> <r_mmod_RMS_Derivative-OPLS-2005>
4.3592734336853

$$$$
68
                    3D
 Structure written by MMmdl.
146153  0  0  1  0            999 V2000
  -30.1594  -16.0066   20.2966 C   0  0  0  0  0  0
  -30.3938  -13.3595   19.5608 C   0  0  0  0  0  0
  -29.5670  -12.7633   18.3719 C   0  0  0  0  0  0
  -28.1713  -12.3208   18.8268 C   0  0  0  0  0  0
  -27.5869  -13.3480   19.8169 C   0  0  2  0  0  0
  -28.5711  -13.8276   20.9221 C   0  0  0  0  0  0
  -25.2262  -13.8335   20.5850 C   0  0  0  0  0  0
  -24.1683  -13.0437   20.9294 C   0  0  0  0  0  0
  -24.6443  -11.6961   20.8741 C   0  0  0  0  0  0
  -23.9154  -10.4287   21.0361 C   0  0  0  0  0  0
  -24.3684   -9.4202   21.9156 C   0  0  0  0  0  0
  -23.6326   -8.2254   22.0761 C   0  0  0  0  0  0
  -22.4310   -8.0293   21.3553 C   0  0  0  0  0  0
  -21.9947   -9.0269   20.4652 C   0  0  0  0  0  0
  -22.7304  -10.2132   20.3025 C   0  0  0  0  0  0
  -21.6865   -6.0738   22.5271 C   0  0  0  0  0  0
  -21.4018   -6.5638   23.8202 C   0  0  0  0  0  0
  -21.3674   -5.6795   24.9164 C   0  0  0  0  0  0
  -21.6050   -4.3052   24.7210 C   0  0  0  0  0  0
  -21.8815   -3.8146   23.4335 C   0  0  0  0  0  0
  -21.9197   -4.6966   22.3389 C   0  0  0  0  0  0
  -22.7684  -13.5145   21.1885 C   0  0  0  0  0  0
  -22.1661   -4.2146   21.0965 F   0  0  0  0  0  0
  -21.5633   -3.4539   25.7726 F   0  0  0  0  0  0
  -29.6906  -14.5697   20.2584 N   0  0  0  0  0  0
  -26.2757  -12.9748   20.3298 N   0  0  0  0  0  0
  -25.9409  -11.6779   20.5687 N   0  0  0  0  0  0
  -22.0348  -12.8148   22.0448 N   0  0  0  0  0  0
  -25.3832  -15.2072   20.4298 N   0  0  0  0  0  0
  -31.3936  -15.8901   20.1029 O   0  0  0  0  0  0
  -21.6661   -6.8888   21.4242 O   0  0  0  0  0  0
  -22.3354  -14.5428   20.6691 O   0  0  0  0  0  0
  -24.7071  -31.7703   23.1293 C   0  0  0  0  0  0
  -25.9524  -32.4329   23.7943 C   0  0  1  0  0  0
  -27.2513  -26.4466   20.2363 C   0  0  0  0  0  0
  -25.5990  -33.8170   24.1804 N   0  0  0  0  0  0
  -23.5467  -30.3590   21.4880 C   0  0  2  0  0  0
  -25.0115  -28.6445   20.1240 C   0  0  0  0  0  0
  -22.7869  -29.4159   22.4625 C   0  0  0  0  0  0
  -18.0352  -28.1442   22.8451 C   0  0  0  0  0  0
  -24.1491  -36.7079   23.2661 C   0  0  0  0  0  0
  -26.1373  -30.4167   21.4368 C   0  0  0  0  0  0
  -26.2023  -28.9529   20.7904 C   0  0  0  0  0  0
  -27.2883  -27.8890   20.8128 C   0  0  0  0  0  0
  -26.0314  -26.4185   19.4925 C   0  0  0  0  0  0
  -24.9822  -27.4059   19.4503 C   0  0  0  0  0  0
  -23.8171  -29.6287   20.1355 C   0  0  0  0  0  0
  -25.4161  -36.2822   24.0263 C   0  0  1  0  0  0
  -20.5998  -28.3812   23.1088 C   0  0  2  0  0  0
  -20.6804  -26.9446   22.5409 C   0  0  0  0  0  0
  -19.5784  -26.6368   21.5219 C   0  0  0  0  0  0
  -18.1968  -26.7963   22.1621 C   0  0  0  0  0  0
  -19.1625  -28.8961   23.2745 C   0  0  0  0  0  0
  -18.9525  -30.1535   23.8812 C   0  0  0  0  0  0
  -17.6511  -30.6624   24.0552 C   0  0  0  0  0  0
  -25.9156  -34.9213   23.4901 C   0  0  0  0  0  0
  -16.5400  -29.9100   23.6363 C   0  0  0  0  0  0
  -16.7331  -28.6515   23.0393 C   0  0  0  0  0  0
  -26.4636  -31.6475   25.0671 C   0  0  0  0  0  0
  -25.3615  -31.3859   26.1214 C   0  0  0  0  0  0
  -27.0594  -30.2775   24.6774 C   0  0  0  0  0  0
  -27.6047  -32.4397   25.7494 C   0  0  0  0  0  0
  -27.5563  -37.1697   24.8466 C   0  0  0  0  0  0
  -21.4490  -29.3005   22.3367 N   0  0  0  0  0  0
  -26.4268  -37.3609   23.9409 N   0  0  0  0  0  0
  -24.8228  -30.8894   22.0684 N   0  0  0  0  0  0
  -23.4193  -28.7817   23.3096 O   0  0  0  0  0  0
  -28.1811  -25.1154   20.3733 O   0  0  0  0  0  0
  -26.5845  -34.8831   22.4548 O   0  0  0  0  0  0
  -23.6035  -32.0893   23.6081 O   0  0  0  0  0  0
  -29.8586  -21.5589   21.6057 C   0  0  0  0  0  0
  -27.4525  -20.9328   21.3300 C   0  0  0  0  0  0
  -29.3582  -19.3477   19.9976 C   0  0  0  0  0  0
  -28.3205  -23.2590   19.9813 C   0  0  0  0  0  0
  -28.7484  -21.2770   20.5833 C   0  0  0  0  0  0
  -29.4074  -17.4719   20.3748 N   0  0  0  0  0  0
  -31.3588  -13.6699   19.1605 H   0  0  0  0  0  0
  -30.6461  -12.5808   20.2828 H   0  0  0  0  0  0
  -30.1009  -11.9284   17.9140 H   0  0  0  0  0  0
  -29.4664  -13.5234   17.5950 H   0  0  0  0  0  0
  -28.2661  -11.3556   19.3266 H   0  0  0  0  0  0
  -27.5107  -12.1667   17.9716 H   0  0  0  0  0  0
  -27.4078  -14.2247   19.1923 H   0  0  0  0  0  0
  -28.9061  -13.0012   21.5506 H   0  0  0  0  0  0
  -28.0650  -14.5223   21.5939 H   0  0  0  0  0  0
  -25.2828   -9.5683   22.4737 H   0  0  0  0  0  0
  -24.0028   -7.4654   22.7507 H   0  0  0  0  0  0
  -21.0867   -8.8790   19.8976 H   0  0  0  0  0  0
  -22.3749  -10.9669   19.6130 H   0  0  0  0  0  0
  -21.2014   -7.6150   23.9693 H   0  0  0  0  0  0
  -21.1506   -6.0529   25.9065 H   0  0  0  0  0  0
  -22.0586   -2.7609   23.2819 H   0  0  0  0  0  0
  -22.4024  -11.9876   22.4911 H   0  0  0  0  0  0
  -21.0946  -13.1137   22.2608 H   0  0  0  0  0  0
  -24.6116  -15.8560   20.5398 H   0  0  0  0  0  0
  -26.2267  -15.6463   20.0871 H   0  0  0  0  0  0
  -26.7624  -32.4746   23.0661 H   0  0  0  0  0  0
  -24.9987  -33.9177   24.9857 H   0  0  0  0  0  0
  -22.8875  -31.2030   21.2738 H   0  0  0  0  0  0
  -23.3791  -35.9370   23.3275 H   0  0  0  0  0  0
  -24.3522  -36.8811   22.2082 H   0  0  0  0  0  0
  -23.7222  -37.6222   23.6790 H   0  0  0  0  0  0
  -26.3726  -31.1273   20.6441 H   0  0  0  0  0  0
  -26.9739  -30.4924   22.1173 H   0  0  0  0  0  0
  -28.1712  -28.1405   21.3827 H   0  0  0  0  0  0
  -25.8333  -25.4996   18.9576 H   0  0  0  0  0  0
  -24.0933  -27.1579   18.8870 H   0  0  0  0  0  0
  -24.0098  -30.3776   19.3661 H   0  0  0  0  0  0
  -22.9185  -29.1037   19.8069 H   0  0  0  0  0  0
  -25.1388  -36.1557   25.0754 H   0  0  0  0  0  0
  -21.0086  -28.3474   24.1211 H   0  0  0  0  0  0
  -20.5626  -26.2457   23.3701 H   0  0  0  0  0  0
  -21.6663  -26.7336   22.1256 H   0  0  0  0  0  0
  -19.6928  -25.6246   21.1331 H   0  0  0  0  0  0
  -19.6742  -27.3114   20.6698 H   0  0  0  0  0  0
  -17.4236  -26.6716   21.4026 H   0  0  0  0  0  0
  -18.0350  -26.0122   22.9035 H   0  0  0  0  0  0
  -19.8001  -30.7368   24.2154 H   0  0  0  0  0  0
  -17.5065  -31.6294   24.5168 H   0  0  0  0  0  0
  -15.5400  -30.2986   23.7723 H   0  0  0  0  0  0
  -15.8728  -28.0796   22.7182 H   0  0  0  0  0  0
  -24.5831  -30.7207   25.7455 H   0  0  0  0  0  0
  -24.8770  -32.3100   26.4369 H   0  0  0  0  0  0
  -25.7693  -30.9157   27.0169 H   0  0  0  0  0  0
  -26.3335  -29.6316   24.1822 H   0  0  0  0  0  0
  -27.3953  -29.7338   25.5616 H   0  0  0  0  0  0
  -27.9369  -30.3828   24.0391 H   0  0  0  0  0  0
  -27.2567  -33.3800   26.1783 H   0  0  0  0  0  0
  -28.3994  -32.6801   25.0417 H   0  0  0  0  0  0
  -28.0566  -31.8721   26.5639 H   0  0  0  0  0  0
  -28.2550  -38.0019   24.7511 H   0  0  0  0  0  0
  -28.1096  -36.2538   24.6317 H   0  0  0  0  0  0
  -27.2261  -37.1352   25.8862 H   0  0  0  0  0  0
  -20.9850  -29.8618   21.6355 H   0  0  0  0  0  0
  -26.0084  -38.2654   24.1418 H   0  0  0  0  0  0
  -30.0686  -20.6819   22.2186 H   0  0  0  0  0  0
  -29.5941  -22.3781   22.2743 H   0  0  0  0  0  0
  -30.7843  -21.8340   21.0964 H   0  0  0  0  0  0
  -27.5834  -20.0723   21.9871 H   0  0  0  0  0  0
  -26.6531  -20.6908   20.6283 H   0  0  0  0  0  0
  -27.1123  -21.7691   21.9410 H   0  0  0  0  0  0
  -30.4033  -19.5148   19.7349 H   0  0  0  0  0  0
  -28.8678  -19.2894   19.0248 H   0  0  0  0  0  0
  -27.4231  -23.1217   19.3776 H   0  0  0  0  0  0
  -29.1029  -23.3676   19.2306 H   0  0  0  0  0  0
  -28.4630  -17.2303   20.6449 H   0  0  0  0  0  0
  1 25  1  0  0  0
  1 30  2  0  0  0
  1 76  1  0  0  0
  2  3  1  0  0  0
  2 25  1  0  0  0
  2 77  1  0  0  0
  2 78  1  0  0  0
  3  4  1  0  0  0
  3 79  1  0  0  0
  3 80  1  0  0  0
  4  5  1  0  0  0
  4 81  1  0  0  0
  4 82  1  0  0  0
  5  6  1  0  0  0
  5 26  1  0  0  0
  5 83  1  0  0  0
  6 25  1  0  0  0
  6 84  1  0  0  0
  6 85  1  0  0  0
  7  8  2  0  0  0
  7 26  1  0  0  0
  7 29  1  0  0  0
  8  9  1  0  0  0
  8 22  1  0  0  0
  9 10  1  0  0  0
  9 27  2  0  0  0
 10 11  2  0  0  0
 10 15  1  0  0  0
 11 12  1  0  0  0
 11 86  1  0  0  0
 12 13  2  0  0  0
 12 87  1  0  0  0
 13 14  1  0  0  0
 13 31  1  0  0  0
 14 15  2  0  0  0
 14 88  1  0  0  0
 15 89  1  0  0  0
 16 17  2  0  0  0
 16 21  1  0  0  0
 16 31  1  0  0  0
 17 18  1  0  0  0
 17 90  1  0  0  0
 18 19  2  0  0  0
 18 91  1  0  0  0
 19 20  1  0  0  0
 19 24  1  0  0  0
 20 21  2  0  0  0
 20 92  1  0  0  0
 21 23  1  0  0  0
 22 28  1  0  0  0
 22 32  2  0  0  0
 26 27  1  0  0  0
 28 93  1  0  0  0
 28 94  1  0  0  0
 29 95  1  0  0  0
 29 96  1  0  0  0
 33 34  1  0  0  0
 33 66  1  0  0  0
 33 70  2  0  0  0
 34 36  1  0  0  0
 34 59  1  0  0  0
 34 97  1  0  0  0
 35 44  2  0  0  0
 35 45  1  0  0  0
 35 68  1  0  0  0
 36 56  1  0  0  0
 36 98  1  0  0  0
 37 39  1  0  0  0
 37 47  1  0  0  0
 37 66  1  0  0  0
 37 99  1  0  0  0
 38 43  2  0  0  0
 38 46  1  0  0  0
 38 47  1  0  0  0
 39 64  1  0  0  0
 39 67  2  0  0  0
 40 52  1  0  0  0
 40 53  2  0  0  0
 40 58  1  0  0  0
 41100  1  0  0  0
 41101  1  0  0  0
 41102  1  0  0  0
 41 48  1  0  0  0
 42 43  1  0  0  0
 42 66  1  0  0  0
 42103  1  0  0  0
 42104  1  0  0  0
 43 44  1  0  0  0
 44105  1  0  0  0
 45 46  2  0  0  0
 45106  1  0  0  0
 46107  1  0  0  0
 47108  1  0  0  0
 47109  1  0  0  0
 48 56  1  0  0  0
 48 65  1  0  0  0
 48110  1  0  0  0
 49 50  1  0  0  0
 49 53  1  0  0  0
 49 64  1  0  0  0
 49111  1  0  0  0
 50 51  1  0  0  0
 50112  1  0  0  0
 50113  1  0  0  0
 51 52  1  0  0  0
 51114  1  0  0  0
 51115  1  0  0  0
 52116  1  0  0  0
 52117  1  0  0  0
 53 54  1  0  0  0
 54 55  2  0  0  0
 54118  1  0  0  0
 55 57  1  0  0  0
 55119  1  0  0  0
 56 69  2  0  0  0
 57 58  2  0  0  0
 57120  1  0  0  0
 58121  1  0  0  0
 59 60  1  0  0  0
 59 61  1  0  0  0
 59 62  1  0  0  0
 60122  1  0  0  0
 60123  1  0  0  0
 60124  1  0  0  0
 61125  1  0  0  0
 61126  1  0  0  0
 61127  1  0  0  0
 62128  1  0  0  0
 62129  1  0  0  0
 62130  1  0  0  0
 63 65  1  0  0  0
 63131  1  0  0  0
 63132  1  0  0  0
 63133  1  0  0  0
 64134  1  0  0  0
 65135  1  0  0  0
 68 74  1  0  0  0
 71136  1  0  0  0
 71137  1  0  0  0
 71138  1  0  0  0
 71 75  1  0  0  0
 72 75  1  0  0  0
 72139  1  0  0  0
 72140  1  0  0  0
 72141  1  0  0  0
 73 75  1  0  0  0
 73 76  1  0  0  0
 73142  1  0  0  0
 73143  1  0  0  0
 74 75  1  0  0  0
 74144  1  0  0  0
 74145  1  0  0  0
 76146  1  0  0  0
M  ISO  4   1 100  68 101  74 101  76 100
M  END
> <chiral flag>
0

> <version>
0

> <s_m_source_file>
/data/baiqing/PycharmProjects/Reinvent-master-3.2/result/LINK_invent/BTK/process_docking_weight1_custom_sum_contain_oxygen_bond_distance_aromatic_linkinvent_7_9_3/rearranged_h_0104.sdf

> <i_m_source_file_index>
69

> <r_mmod_Potential_Energy-OPLS-2005>
4154.009765625

> <r_mmod_Stretch_Energy-OPLS-2005>
1946.06066894531

> <r_mmod_Bend_Energy-OPLS-2005>
907.354675292969

> <r_mmod_Torsional_Energy-OPLS-2005>
237.135360717773

> <r_mmod_Improper_Torsional_Energy-OPLS-2005>
4.05898284912109

> <r_mmod_Van_der_Waal_Energy-OPLS-2005>
111.919425964355

> <r_mmod_Electrostatic_Energy-OPLS-2005>
-373.071075439453

> <r_mmod_Solvation_Energy-OPLS-2005>
-217.193542480469

> <b_mmod_Minimization_Converged-OPLS-2005>
0

> <r_mmod_RMS_Derivative-OPLS-2005>
2.43039011955261

$$$$
69
                    3D
 Structure written by MMmdl.
157165  0  0  1  0            999 V2000
  -30.5107  -15.0655   20.4723 C   0  0  0  0  0  0
  -30.4521  -12.7016   19.4726 C   0  0  0  0  0  0
  -29.5212  -12.5532   18.2433 C   0  0  0  0  0  0
  -28.0604  -12.2981   18.6653 C   0  0  0  0  0  0
  -27.6226  -13.2283   19.8241 C   0  0  2  0  0  0
  -28.6784  -13.2437   20.9514 C   0  0  0  0  0  0
  -25.2395  -13.8085   20.5669 C   0  0  0  0  0  0
  -24.1731  -13.0339   20.9241 C   0  0  0  0  0  0
  -24.6354  -11.6836   20.8754 C   0  0  0  0  0  0
  -23.9039  -10.4231   21.0415 C   0  0  0  0  0  0
  -24.3598   -9.4154   21.9189 C   0  0  0  0  0  0
  -23.6278   -8.2188   22.0745 C   0  0  0  0  0  0
  -22.4260   -8.0239   21.3530 C   0  0  0  0  0  0
  -21.9897   -9.0205   20.4629 C   0  0  0  0  0  0
  -22.7221  -10.2083   20.3049 C   0  0  0  0  0  0
  -21.6835   -6.0721   22.5288 C   0  0  0  0  0  0
  -21.3995   -6.5624   23.8221 C   0  0  0  0  0  0
  -21.3668   -5.6779   24.9186 C   0  0  0  0  0  0
  -21.6056   -4.3042   24.7235 C   0  0  0  0  0  0
  -21.8808   -3.8133   23.4351 C   0  0  0  0  0  0
  -21.9182   -4.6953   22.3410 C   0  0  0  0  0  0
  -22.7758  -13.5154   21.1892 C   0  0  0  0  0  0
  -22.1651   -4.2144   21.0986 F   0  0  0  0  0  0
  -21.5648   -3.4530   25.7746 F   0  0  0  0  0  0
  -29.9120  -13.7893   20.3573 N   0  0  0  0  0  0
  -26.2831  -12.9316   20.3166 N   0  0  0  0  0  0
  -25.9274  -11.6463   20.5675 N   0  0  0  0  0  0
  -22.0373  -12.8201   22.0468 N   0  0  0  0  0  0
  -25.3857  -15.1806   20.4038 N   0  0  0  0  0  0
  -31.7238  -15.0754   20.2199 O   0  0  0  0  0  0
  -21.6603   -6.8856   21.4246 O   0  0  0  0  0  0
  -22.3475  -14.5456   20.6706 O   0  0  0  0  0  0
  -24.6469  -31.8417   23.1826 C   0  0  0  0  0  0
  -25.9230  -32.4693   23.8241 C   0  0  1  0  0  0
  -27.2266  -27.0950   20.1947 C   0  0  0  0  0  0
  -25.5956  -33.8498   24.2180 N   0  0  0  0  0  0
  -23.4520  -30.4560   21.5286 C   0  0  2  0  0  0
  -24.9030  -28.8577   20.1267 C   0  0  0  0  0  0
  -22.7587  -29.4539   22.4854 C   0  0  0  0  0  0
  -18.0315  -28.1406   22.8481 C   0  0  0  0  0  0
  -24.1474  -36.7236   23.2643 C   0  0  0  0  0  0
  -26.0070  -30.7046   21.3821 C   0  0  0  0  0  0
  -26.0780  -29.3032   20.7435 C   0  0  0  0  0  0
  -27.2420  -28.4418   20.7489 C   0  0  0  0  0  0
  -26.0237  -26.7461   19.5476 C   0  0  0  0  0  0
  -24.8885  -27.5936   19.5114 C   0  0  0  0  0  0
  -23.6831  -29.7705   20.1532 C   0  0  0  0  0  0
  -25.4109  -36.3036   24.0326 C   0  0  1  0  0  0
  -20.5930  -28.3731   23.1222 C   0  0  2  0  0  0
  -20.6793  -26.9433   22.5391 C   0  0  0  0  0  0
  -19.5762  -26.6387   21.5205 C   0  0  0  0  0  0
  -18.1946  -26.7939   22.1620 C   0  0  0  0  0  0
  -19.1573  -28.8880   23.2847 C   0  0  0  0  0  0
  -18.9485  -30.1482   23.8874 C   0  0  0  0  0  0
  -17.6481  -30.6592   24.0559 C   0  0  0  0  0  0
  -25.9067  -34.9408   23.5058 C   0  0  0  0  0  0
  -16.5373  -29.9089   23.6338 C   0  0  0  0  0  0
  -16.7300  -28.6503   23.0360 C   0  0  0  0  0  0
  -26.4531  -31.6573   25.0693 C   0  0  0  0  0  0
  -25.3721  -31.3762   26.1392 C   0  0  0  0  0  0
  -27.0403  -30.2980   24.6272 C   0  0  0  0  0  0
  -27.6084  -32.4312   25.7477 C   0  0  0  0  0  0
  -27.5570  -37.1779   24.8471 C   0  0  0  0  0  0
  -21.4272  -29.3049   22.3593 N   0  0  0  0  0  0
  -26.4268  -37.3755   23.9431 N   0  0  0  0  0  0
  -24.7221  -31.0246   22.0859 N   0  0  0  0  0  0
  -23.4208  -28.8117   23.3040 O   0  0  0  0  0  0
  -28.3372  -26.1738   20.1179 O   0  0  0  0  0  0
  -26.5642  -34.8905   22.4635 O   0  0  0  0  0  0
  -23.5581  -32.1301   23.7035 O   0  0  0  0  0  0
  -28.9604  -20.4031   20.8937 C   0  0  0  0  0  0
  -29.7706  -21.3125   19.0976 C   0  0  0  0  0  0
  -28.9404  -21.6952   20.1222 C   0  0  0  0  0  0
  -29.7420  -19.3290   20.3434 C   0  0  0  0  0  0
  -26.6786  -22.8717   20.6457 C   0  0  0  0  0  0
  -31.1216  -19.3930   18.2276 C   0  0  0  0  0  0
  -28.3940  -16.4149   21.0263 C   0  0  0  0  0  0
  -30.3754  -17.8227   20.7520 C   0  0  0  0  0  0
  -28.5142  -24.7139   20.6873 C   0  0  0  0  0  0
  -28.0917  -23.1628   20.1238 C   0  0  1  0  0  0
  -30.2231  -19.9829   19.2038 N   0  0  0  0  0  0
  -29.8008  -16.3355   20.6431 N   0  0  0  0  0  0
  -31.4584  -12.9285   19.1187 H   0  0  0  0  0  0
  -30.5446  -11.7573   20.0111 H   0  0  0  0  0  0
  -29.8707  -11.7460   17.5980 H   0  0  0  0  0  0
  -29.5764  -13.4640   17.6438 H   0  0  0  0  0  0
  -27.9846  -11.2578   18.9821 H   0  0  0  0  0  0
  -27.3938  -12.4035   17.8085 H   0  0  0  0  0  0
  -27.5721  -14.2117   19.3657 H   0  0  0  0  0  0
  -28.8359  -12.2286   21.3189 H   0  0  0  0  0  0
  -28.3523  -13.7922   21.8278 H   0  0  0  0  0  0
  -25.2736   -9.5653   22.4768 H   0  0  0  0  0  0
  -23.9989   -7.4593   22.7483 H   0  0  0  0  0  0
  -21.0816   -8.8722   19.8955 H   0  0  0  0  0  0
  -22.3672  -10.9617   19.6156 H   0  0  0  0  0  0
  -21.1951   -7.6126   23.9737 H   0  0  0  0  0  0
  -21.1523   -6.0499   25.9102 H   0  0  0  0  0  0
  -22.0579   -2.7598   23.2843 H   0  0  0  0  0  0
  -22.3947  -11.9869   22.4901 H   0  0  0  0  0  0
  -21.0974  -13.1237   22.2617 H   0  0  0  0  0  0
  -24.6070  -15.8192   20.5230 H   0  0  0  0  0  0
  -26.2254  -15.6373   20.0748 H   0  0  0  0  0  0
  -26.7309  -32.5302   23.0989 H   0  0  0  0  0  0
  -25.0155  -33.9604   25.0364 H   0  0  0  0  0  0
  -22.7562  -31.2813   21.3664 H   0  0  0  0  0  0
  -23.3750  -35.9553   23.3302 H   0  0  0  0  0  0
  -24.3561  -36.8864   22.2054 H   0  0  0  0  0  0
  -23.7194  -37.6425   23.6661 H   0  0  0  0  0  0
  -26.1576  -31.4457   20.5950 H   0  0  0  0  0  0
  -26.8795  -30.7711   22.0193 H   0  0  0  0  0  0
  -28.1500  -28.7959   21.2151 H   0  0  0  0  0  0
  -25.9592  -25.7832   19.0594 H   0  0  0  0  0  0
  -23.9942  -27.2476   19.0125 H   0  0  0  0  0  0
  -23.8297  -30.5358   19.3900 H   0  0  0  0  0  0
  -22.7942  -29.2175   19.8444 H   0  0  0  0  0  0
  -25.1305  -36.1857   25.0817 H   0  0  0  0  0  0
  -21.0041  -28.3320   24.1337 H   0  0  0  0  0  0
  -20.5678  -26.2356   23.3622 H   0  0  0  0  0  0
  -21.6664  -26.7422   22.1209 H   0  0  0  0  0  0
  -19.6912  -25.6291   21.1255 H   0  0  0  0  0  0
  -19.6690  -27.3179   20.6720 H   0  0  0  0  0  0
  -17.4223  -26.6699   21.4019 H   0  0  0  0  0  0
  -18.0343  -26.0083   22.9019 H   0  0  0  0  0  0
  -19.7960  -30.7314   24.2221 H   0  0  0  0  0  0
  -17.5026  -31.6271   24.5180 H   0  0  0  0  0  0
  -15.5374  -30.2984   23.7655 H   0  0  0  0  0  0
  -15.8703  -28.0814   22.7082 H   0  0  0  0  0  0
  -24.5900  -30.7110   25.7710 H   0  0  0  0  0  0
  -24.8895  -32.2939   26.4760 H   0  0  0  0  0  0
  -25.7993  -30.8971   27.0211 H   0  0  0  0  0  0
  -26.3017  -29.6695   24.1274 H   0  0  0  0  0  0
  -27.4041  -29.7290   25.4840 H   0  0  0  0  0  0
  -27.8914  -30.4256   23.9580 H   0  0  0  0  0  0
  -27.2725  -33.3646   26.2003 H   0  0  0  0  0  0
  -28.3914  -32.6807   25.0307 H   0  0  0  0  0  0
  -28.0726  -31.8458   26.5427 H   0  0  0  0  0  0
  -28.2599  -38.0069   24.7543 H   0  0  0  0  0  0
  -28.1057  -36.2607   24.6273 H   0  0  0  0  0  0
  -27.2302  -37.1409   25.8879 H   0  0  0  0  0  0
  -20.9486  -29.8738   21.6752 H   0  0  0  0  0  0
  -26.0137  -38.2827   24.1441 H   0  0  0  0  0  0
  -28.4206  -20.2747   21.8227 H   0  0  0  0  0  0
  -30.0709  -21.8937   18.2350 H   0  0  0  0  0  0
  -26.2158  -22.0523   20.0951 H   0  0  0  0  0  0
  -26.0314  -23.7434   20.5429 H   0  0  0  0  0  0
  -26.6996  -22.5962   21.7013 H   0  0  0  0  0  0
  -30.7640  -18.4050   17.9388 H   0  0  0  0  0  0
  -32.1216  -19.3082   18.6529 H   0  0  0  0  0  0
  -31.1776  -20.0145   17.3342 H   0  0  0  0  0  0
  -28.0810  -17.4252   21.2903 H   0  0  0  0  0  0
  -28.1658  -15.8239   21.9085 H   0  0  0  0  0  0
  -27.7735  -16.1353   20.1873 H   0  0  0  0  0  0
  -30.6402  -17.9050   21.8069 H   0  0  0  0  0  0
  -31.3544  -17.7554   20.2801 H   0  0  0  0  0  0
  -29.6011  -24.6588   20.7616 H   0  0  0  0  0  0
  -28.2031  -24.7698   21.7307 H   0  0  0  0  0  0
  -27.9789  -23.3406   19.0537 H   0  0  0  0  0  0
  1 25  1  0  0  0
  1 30  2  0  0  0
  1 82  1  0  0  0
  2  3  1  0  0  0
  2 25  1  0  0  0
  2 83  1  0  0  0
  2 84  1  0  0  0
  3  4  1  0  0  0
  3 85  1  0  0  0
  3 86  1  0  0  0
  4  5  1  0  0  0
  4 87  1  0  0  0
  4 88  1  0  0  0
  5  6  1  0  0  0
  5 26  1  0  0  0
  5 89  1  0  0  0
  6 25  1  0  0  0
  6 90  1  0  0  0
  6 91  1  0  0  0
  7  8  2  0  0  0
  7 26  1  0  0  0
  7 29  1  0  0  0
  8  9  1  0  0  0
  8 22  1  0  0  0
  9 10  1  0  0  0
  9 27  2  0  0  0
 10 11  2  0  0  0
 10 15  1  0  0  0
 11 12  1  0  0  0
 11 92  1  0  0  0
 12 13  2  0  0  0
 12 93  1  0  0  0
 13 14  1  0  0  0
 13 31  1  0  0  0
 14 15  2  0  0  0
 14 94  1  0  0  0
 15 95  1  0  0  0
 16 17  2  0  0  0
 16 21  1  0  0  0
 16 31  1  0  0  0
 17 18  1  0  0  0
 17 96  1  0  0  0
 18 19  2  0  0  0
 18 97  1  0  0  0
 19 20  1  0  0  0
 19 24  1  0  0  0
 20 21  2  0  0  0
 20 98  1  0  0  0
 21 23  1  0  0  0
 22 28  1  0  0  0
 22 32  2  0  0  0
 26 27  1  0  0  0
 28 99  1  0  0  0
 28100  1  0  0  0
 29101  1  0  0  0
 29102  1  0  0  0
 33 34  1  0  0  0
 33 66  1  0  0  0
 33 70  2  0  0  0
 34 36  1  0  0  0
 34 59  1  0  0  0
 34103  1  0  0  0
 35 44  2  0  0  0
 35 45  1  0  0  0
 35 68  1  0  0  0
 36 56  1  0  0  0
 36104  1  0  0  0
 37 39  1  0  0  0
 37 47  1  0  0  0
 37 66  1  0  0  0
 37105  1  0  0  0
 38 43  2  0  0  0
 38 46  1  0  0  0
 38 47  1  0  0  0
 39 64  1  0  0  0
 39 67  2  0  0  0
 40 52  1  0  0  0
 40 53  2  0  0  0
 40 58  1  0  0  0
 41106  1  0  0  0
 41107  1  0  0  0
 41108  1  0  0  0
 41 48  1  0  0  0
 42 43  1  0  0  0
 42 66  1  0  0  0
 42109  1  0  0  0
 42110  1  0  0  0
 43 44  1  0  0  0
 44111  1  0  0  0
 45 46  2  0  0  0
 45112  1  0  0  0
 46113  1  0  0  0
 47114  1  0  0  0
 47115  1  0  0  0
 48 56  1  0  0  0
 48 65  1  0  0  0
 48116  1  0  0  0
 49 50  1  0  0  0
 49 53  1  0  0  0
 49 64  1  0  0  0
 49117  1  0  0  0
 50 51  1  0  0  0
 50118  1  0  0  0
 50119  1  0  0  0
 51 52  1  0  0  0
 51120  1  0  0  0
 51121  1  0  0  0
 52122  1  0  0  0
 52123  1  0  0  0
 53 54  1  0  0  0
 54 55  2  0  0  0
 54124  1  0  0  0
 55 57  1  0  0  0
 55125  1  0  0  0
 56 69  2  0  0  0
 57 58  2  0  0  0
 57126  1  0  0  0
 58127  1  0  0  0
 59 60  1  0  0  0
 59 61  1  0  0  0
 59 62  1  0  0  0
 60128  1  0  0  0
 60129  1  0  0  0
 60130  1  0  0  0
 61131  1  0  0  0
 61132  1  0  0  0
 61133  1  0  0  0
 62134  1  0  0  0
 62135  1  0  0  0
 62136  1  0  0  0
 63 65  1  0  0  0
 63137  1  0  0  0
 63138  1  0  0  0
 63139  1  0  0  0
 64140  1  0  0  0
 65141  1  0  0  0
 68 79  1  0  0  0
 71 73  1  0  0  0
 71 74  2  0  0  0
 71142  1  0  0  0
 72 73  2  0  0  0
 72 81  1  0  0  0
 72143  1  0  0  0
 73 80  1  0  0  0
 74 78  1  0  0  0
 74 81  1  0  0  0
 75144  1  0  0  0
 75145  1  0  0  0
 75146  1  0  0  0
 75 80  1  0  0  0
 76 81  1  0  0  0
 76147  1  0  0  0
 76148  1  0  0  0
 76149  1  0  0  0
 77 82  1  0  0  0
 77150  1  0  0  0
 77151  1  0  0  0
 77152  1  0  0  0
 78 82  1  0  0  0
 78153  1  0  0  0
 78154  1  0  0  0
 79 80  1  0  0  0
 79155  1  0  0  0
 79156  1  0  0  0
 80157  1  0  0  0
M  ISO  4   1 100  68 101  79 101  82 100
M  END
> <chiral flag>
0

> <version>
0

> <s_m_source_file>
/data/baiqing/PycharmProjects/Reinvent-master-3.2/result/LINK_invent/BTK/process_docking_weight1_custom_sum_contain_oxygen_bond_distance_aromatic_linkinvent_7_9_3/rearranged_h_0104.sdf

> <i_m_source_file_index>
70

> <r_mmod_Potential_Energy-OPLS-2005>
822.609130859375

> <r_mmod_Stretch_Energy-OPLS-2005>
328.166687011719

> <r_mmod_Bend_Energy-OPLS-2005>
381.887237548828

> <r_mmod_Torsional_Energy-OPLS-2005>
276.026763916016

> <r_mmod_Improper_Torsional_Energy-OPLS-2005>
7.67451333999634

> <r_mmod_Van_der_Waal_Energy-OPLS-2005>
117.248878479004

> <r_mmod_Electrostatic_Energy-OPLS-2005>
-320.740600585938

> <r_mmod_Solvation_Energy-OPLS-2005>
-204.471878051758

> <b_mmod_Minimization_Converged-OPLS-2005>
0

> <r_mmod_RMS_Derivative-OPLS-2005>
2.72760581970215

$$$$
70
                    3D
 Structure written by MMmdl.
184193  0  0  1  0            999 V2000
  -30.7836  -14.4922   20.5071 C   0  0  0  0  0  0
  -30.3993  -12.3157   19.4352 C   0  0  0  0  0  0
  -29.4898  -12.4831   18.2030 C   0  0  0  0  0  0
  -28.0079  -12.3579   18.6163 C   0  0  0  0  0  0
  -27.6465  -13.2260   19.8558 C   0  0  2  0  0  0
  -28.7066  -13.0768   20.9730 C   0  0  0  0  0  0
  -25.2317  -13.8078   20.5504 C   0  0  0  0  0  0
  -24.1722  -13.0357   20.9189 C   0  0  0  0  0  0
  -24.6399  -11.6875   20.8779 C   0  0  0  0  0  0
  -23.9109  -10.4258   21.0439 C   0  0  0  0  0  0
  -24.3635   -9.4174   21.9237 C   0  0  0  0  0  0
  -23.6277   -8.2222   22.0777 C   0  0  0  0  0  0
  -22.4276   -8.0252   21.3558 C   0  0  0  0  0  0
  -21.9937   -9.0231   20.4674 C   0  0  0  0  0  0
  -22.7283  -10.2091   20.3099 C   0  0  0  0  0  0
  -21.6814   -6.0724   22.5303 C   0  0  0  0  0  0
  -21.3977   -6.5638   23.8230 C   0  0  0  0  0  0
  -21.3664   -5.6802   24.9196 C   0  0  0  0  0  0
  -21.6074   -4.3066   24.7243 C   0  0  0  0  0  0
  -21.8821   -3.8145   23.4362 C   0  0  0  0  0  0
  -21.9172   -4.6962   22.3414 C   0  0  0  0  0  0
  -22.7750  -13.5102   21.1880 C   0  0  0  0  0  0
  -22.1658   -4.2158   21.1001 F   0  0  0  0  0  0
  -21.5641   -3.4548   25.7752 F   0  0  0  0  0  0
  -30.0106  -13.3769   20.3756 N   0  0  0  0  0  0
  -26.2937  -12.9410   20.3352 N   0  0  0  0  0  0
  -25.9349  -11.6565   20.5857 N   0  0  0  0  0  0
  -22.0439  -12.8088   22.0447 N   0  0  0  0  0  0
  -25.3542  -15.1765   20.3475 N   0  0  0  0  0  0
  -31.9996  -14.4109   20.3281 O   0  0  0  0  0  0
  -21.6625   -6.8864   21.4267 O   0  0  0  0  0  0
  -22.3466  -14.5458   20.6775 O   0  0  0  0  0  0
  -24.6106  -31.8703   23.2114 C   0  0  0  0  0  0
  -25.8997  -32.4841   23.8428 C   0  0  1  0  0  0
  -27.2359  -27.4646   20.0938 C   0  0  0  0  0  0
  -25.5878  -33.8644   24.2389 N   0  0  0  0  0  0
  -23.4011  -30.4899   21.5493 C   0  0  2  0  0  0
  -24.8486  -28.9586   20.1135 C   0  0  0  0  0  0
  -22.7454  -29.4624   22.4986 C   0  0  0  0  0  0
  -18.0279  -28.1366   22.8470 C   0  0  0  0  0  0
  -24.1511  -36.7337   23.2653 C   0  0  0  0  0  0
  -25.9253  -30.8453   21.3505 C   0  0  0  0  0  0
  -26.0076  -29.4796   20.7051 C   0  0  0  0  0  0
  -27.2108  -28.7411   20.6899 C   0  0  0  0  0  0
  -26.0695  -26.9472   19.4923 C   0  0  0  0  0  0
  -24.8726  -27.6910   19.5018 C   0  0  0  0  0  0
  -23.6102  -29.8239   20.1653 C   0  0  0  0  0  0
  -25.4128  -36.3142   24.0367 C   0  0  1  0  0  0
  -20.5868  -28.3645   23.1311 C   0  0  2  0  0  0
  -20.6784  -26.9388   22.5414 C   0  0  0  0  0  0
  -19.5764  -26.6373   21.5219 C   0  0  0  0  0  0
  -18.1932  -26.7907   22.1613 C   0  0  0  0  0  0
  -19.1523  -28.8826   23.2877 C   0  0  0  0  0  0
  -18.9442  -30.1424   23.8890 C   0  0  0  0  0  0
  -17.6437  -30.6564   24.0554 C   0  0  0  0  0  0
  -25.9030  -34.9496   23.5195 C   0  0  0  0  0  0
  -16.5332  -29.9050   23.6303 C   0  0  0  0  0  0
  -16.7270  -28.6476   23.0312 C   0  0  0  0  0  0
  -26.4475  -31.6561   25.0703 C   0  0  0  0  0  0
  -25.3792  -31.3560   26.1475 C   0  0  0  0  0  0
  -27.0276  -30.3039   24.5930 C   0  0  0  0  0  0
  -27.6112  -32.4237   25.7428 C   0  0  0  0  0  0
  -27.5626  -37.1824   24.8489 C   0  0  0  0  0  0
  -21.4175  -29.3015   22.3748 N   0  0  0  0  0  0
  -26.4349  -37.3797   23.9408 N   0  0  0  0  0  0
  -24.6654  -31.0823   22.0972 N   0  0  0  0  0  0
  -23.4250  -28.8149   23.3012 O   0  0  0  0  0  0
  -28.3850  -26.7204   20.0875 O   0  0  0  0  0  0
  -26.5603  -34.8941   22.4768 O   0  0  0  0  0  0
  -23.5303  -32.1409   23.7527 O   0  0  0  0  0  0
  -29.0119  -18.3765   16.7433 C   0  0  0  0  0  0
  -29.4953  -17.4077   17.6378 C   0  0  0  0  0  0
  -30.1691  -20.1024   18.0121 C   0  0  0  0  0  0
  -29.3553  -19.7256   16.9267 C   0  0  0  0  0  0
  -30.3578  -17.7691   18.6962 C   0  0  0  0  0  0
  -30.6886  -19.1442   18.9073 C   0  0  0  0  0  0
  -27.7948  -17.6599   23.4398 C   0  0  0  0  0  0
  -29.3130  -17.4337   23.6365 C   0  0  0  0  0  0
  -27.4031  -17.7743   21.9530 C   0  0  0  0  0  0
  -29.8350  -16.2430   22.8104 C   0  0  0  0  0  0
  -27.9701  -16.5868   21.1538 C   0  0  0  0  0  0
  -29.4870  -16.5091   21.3327 C   0  0  0  0  0  0
  -28.9050  -20.7842   15.9405 C   0  0  0  0  0  0
  -31.7161  -19.5656   19.9687 C   0  0  0  0  0  0
  -31.0456  -16.6355   19.4599 C   0  0  0  0  0  0
  -31.8321  -21.0565   20.3966 C   0  0  0  0  0  0
  -28.5436  -24.4465   20.9737 C   0  0  0  0  0  0
  -30.9698  -21.4905   21.6123 C   0  0  0  0  0  0
  -29.8109  -23.6882   21.4334 C   0  0  0  0  0  0
  -28.5997  -25.9608   21.2813 C   0  0  0  0  0  0
  -30.2135  -15.7223   20.3037 N   0  0  0  0  0  0
  -29.7286  -22.2180   21.2502 N   0  3  0  0  0  0
  -31.4511  -12.3651   19.1470 H   0  0  0  0  0  0
  -30.2656  -11.3292   19.8853 H   0  0  0  0  0  0
  -29.7387  -11.7347   17.4521 H   0  0  0  0  0  0
  -29.6679  -13.4529   17.7341 H   0  0  0  0  0  0
  -27.8195  -11.3052   18.8332 H   0  0  0  0  0  0
  -27.3611  -12.6122   17.7757 H   0  0  0  0  0  0
  -27.6645  -14.2630   19.5220 H   0  0  0  0  0  0
  -28.7020  -12.0576   21.3609 H   0  0  0  0  0  0
  -28.4979  -13.7141   21.8269 H   0  0  0  0  0  0
  -25.2770   -9.5623   22.4814 H   0  0  0  0  0  0
  -24.0003   -7.4597   22.7450 H   0  0  0  0  0  0
  -21.0884   -8.8736   19.8919 H   0  0  0  0  0  0
  -22.3778  -10.9623   19.6187 H   0  0  0  0  0  0
  -21.1965   -7.6150   23.9727 H   0  0  0  0  0  0
  -21.1489   -6.0542   25.9106 H   0  0  0  0  0  0
  -22.0588   -2.7609   23.2873 H   0  0  0  0  0  0
  -22.4059  -11.9712   22.4787 H   0  0  0  0  0  0
  -21.1080  -13.1101   22.2703 H   0  0  0  0  0  0
  -24.5737  -15.8063   20.4784 H   0  0  0  0  0  0
  -26.2065  -15.6361   20.0607 H   0  0  0  0  0  0
  -26.7052  -32.5615   23.1180 H   0  0  0  0  0  0
  -25.0067  -33.9838   25.0559 H   0  0  0  0  0  0
  -22.6823  -31.3014   21.4119 H   0  0  0  0  0  0
  -23.3793  -35.9658   23.3335 H   0  0  0  0  0  0
  -24.3597  -36.8926   22.2064 H   0  0  0  0  0  0
  -23.7245  -37.6542   23.6638 H   0  0  0  0  0  0
  -26.0314  -31.5988   20.5700 H   0  0  0  0  0  0
  -26.8155  -30.9093   21.9643 H   0  0  0  0  0  0
  -28.1095  -29.1443   21.1321 H   0  0  0  0  0  0
  -26.0854  -25.9734   19.0240 H   0  0  0  0  0  0
  -23.9845  -27.2836   19.0343 H   0  0  0  0  0  0
  -23.7198  -30.5989   19.4069 H   0  0  0  0  0  0
  -22.7325  -29.2435   19.8700 H   0  0  0  0  0  0
  -25.1285  -36.2067   25.0860 H   0  0  0  0  0  0
  -20.9938  -28.3230   24.1442 H   0  0  0  0  0  0
  -20.5694  -26.2288   23.3621 H   0  0  0  0  0  0
  -21.6656  -26.7454   22.1205 H   0  0  0  0  0  0
  -19.6943  -25.6297   21.1222 H   0  0  0  0  0  0
  -19.6700  -27.3215   20.6775 H   0  0  0  0  0  0
  -17.4229  -26.6663   21.3987 H   0  0  0  0  0  0
  -18.0292  -26.0050   22.8995 H   0  0  0  0  0  0
  -19.7901  -30.7234   24.2297 H   0  0  0  0  0  0
  -17.4970  -31.6227   24.5167 H   0  0  0  0  0  0
  -15.5318  -30.2932   23.7624 H   0  0  0  0  0  0
  -15.8670  -28.0787   22.7003 H   0  0  0  0  0  0
  -24.6008  -30.6860   25.7798 H   0  0  0  0  0  0
  -24.8945  -32.2648   26.5018 H   0  0  0  0  0  0
  -25.8211  -30.8668   27.0170 H   0  0  0  0  0  0
  -26.2705  -29.6773   24.1176 H   0  0  0  0  0  0
  -27.4336  -29.7287   25.4265 H   0  0  0  0  0  0
  -27.8425  -30.4445   23.8841 H   0  0  0  0  0  0
  -27.2781  -33.3526   26.2067 H   0  0  0  0  0  0
  -28.3833  -32.6789   25.0157 H   0  0  0  0  0  0
  -28.0858  -31.8312   26.5250 H   0  0  0  0  0  0
  -28.2640  -38.0125   24.7526 H   0  0  0  0  0  0
  -28.1120  -36.2653   24.6309 H   0  0  0  0  0  0
  -27.2353  -37.1464   25.8897 H   0  0  0  0  0  0
  -20.9370  -29.8759   21.6947 H   0  0  0  0  0  0
  -26.0278  -38.2930   24.1280 H   0  0  0  0  0  0
  -28.4245  -18.0719   15.8869 H   0  0  0  0  0  0
  -29.2780  -16.3648   17.4484 H   0  0  0  0  0  0
  -30.4523  -21.1365   18.0942 H   0  0  0  0  0  0
  -27.4959  -18.5718   23.9577 H   0  0  0  0  0  0
  -27.2284  -16.8471   23.8950 H   0  0  0  0  0  0
  -29.5520  -17.2970   24.6896 H   0  0  0  0  0  0
  -29.8456  -18.3348   23.3211 H   0  0  0  0  0  0
  -27.7638  -18.7194   21.5421 H   0  0  0  0  0  0
  -26.3178  -17.8213   21.8606 H   0  0  0  0  0  0
  -29.3935  -15.3108   23.1663 H   0  0  0  0  0  0
  -30.9176  -16.1578   22.9518 H   0  0  0  0  0  0
  -27.6990  -16.6743   20.0988 H   0  0  0  0  0  0
  -27.5204  -15.6766   21.5455 H   0  0  0  0  0  0
  -29.8148  -17.5361   21.1929 H   0  0  0  0  0  0
  -28.0981  -20.4293   15.2983 H   0  0  0  0  0  0
  -29.7416  -21.0758   15.3024 H   0  0  0  0  0  0
  -28.5554  -21.6693   16.4720 H   0  0  0  0  0  0
  -32.6805  -19.2691   19.5484 H   0  0  0  0  0  0
  -31.5999  -18.9743   20.8738 H   0  0  0  0  0  0
  -31.8662  -17.0033   20.0823 H   0  0  0  0  0  0
  -31.5524  -16.0783   18.6649 H   0  0  0  0  0  0
  -31.7999  -21.7680   19.5734 H   0  0  0  0  0  0
  -32.8642  -21.1551   20.7414 H   0  0  0  0  0  0
  -27.6581  -24.0315   21.4578 H   0  0  0  0  0  0
  -28.3988  -24.3000   19.8991 H   0  0  0  0  0  0
  -31.5692  -22.1233   22.2742 H   0  0  0  0  0  0
  -30.7122  -20.6300   22.2296 H   0  0  0  0  0  0
  -30.0089  -23.9003   22.4873 H   0  0  0  0  0  0
  -30.6697  -24.0609   20.8798 H   0  0  0  0  0  0
  -29.5703  -26.2432   21.6933 H   0  0  0  0  0  0
  -27.8670  -26.2021   22.0563 H   0  0  0  0  0  0
  -28.9967  -21.8754   21.8523 H   0  0  0  0  0  0
  -29.4676  -21.9799   20.3053 H   0  0  0  0  0  0
  1 25  1  0  0  0
  1 30  2  0  0  0
  1 91  1  0  0  0
  2  3  1  0  0  0
  2 25  1  0  0  0
  2 93  1  0  0  0
  2 94  1  0  0  0
  3  4  1  0  0  0
  3 95  1  0  0  0
  3 96  1  0  0  0
  4  5  1  0  0  0
  4 97  1  0  0  0
  4 98  1  0  0  0
  5  6  1  0  0  0
  5 26  1  0  0  0
  5 99  1  0  0  0
  6 25  1  0  0  0
  6100  1  0  0  0
  6101  1  0  0  0
  7  8  2  0  0  0
  7 26  1  0  0  0
  7 29  1  0  0  0
  8  9  1  0  0  0
  8 22  1  0  0  0
  9 10  1  0  0  0
  9 27  2  0  0  0
 10 11  2  0  0  0
 10 15  1  0  0  0
 11 12  1  0  0  0
 11102  1  0  0  0
 12 13  2  0  0  0
 12103  1  0  0  0
 13 14  1  0  0  0
 13 31  1  0  0  0
 14 15  2  0  0  0
 14104  1  0  0  0
 15105  1  0  0  0
 16 17  2  0  0  0
 16 21  1  0  0  0
 16 31  1  0  0  0
 17 18  1  0  0  0
 17106  1  0  0  0
 18 19  2  0  0  0
 18107  1  0  0  0
 19 20  1  0  0  0
 19 24  1  0  0  0
 20 21  2  0  0  0
 20108  1  0  0  0
 21 23  1  0  0  0
 22 28  1  0  0  0
 22 32  2  0  0  0
 26 27  1  0  0  0
 28109  1  0  0  0
 28110  1  0  0  0
 29111  1  0  0  0
 29112  1  0  0  0
 33 34  1  0  0  0
 33 66  1  0  0  0
 33 70  2  0  0  0
 34 36  1  0  0  0
 34 59  1  0  0  0
 34113  1  0  0  0
 35 44  2  0  0  0
 35 45  1  0  0  0
 35 68  1  0  0  0
 36 56  1  0  0  0
 36114  1  0  0  0
 37 39  1  0  0  0
 37 47  1  0  0  0
 37 66  1  0  0  0
 37115  1  0  0  0
 38 43  2  0  0  0
 38 46  1  0  0  0
 38 47  1  0  0  0
 39 64  1  0  0  0
 39 67  2  0  0  0
 40 52  1  0  0  0
 40 53  2  0  0  0
 40 58  1  0  0  0
 41116  1  0  0  0
 41117  1  0  0  0
 41118  1  0  0  0
 41 48  1  0  0  0
 42 43  1  0  0  0
 42 66  1  0  0  0
 42119  1  0  0  0
 42120  1  0  0  0
 43 44  1  0  0  0
 44121  1  0  0  0
 45 46  2  0  0  0
 45122  1  0  0  0
 46123  1  0  0  0
 47124  1  0  0  0
 47125  1  0  0  0
 48 56  1  0  0  0
 48 65  1  0  0  0
 48126  1  0  0  0
 49 50  1  0  0  0
 49 53  1  0  0  0
 49 64  1  0  0  0
 49127  1  0  0  0
 50 51  1  0  0  0
 50128  1  0  0  0
 50129  1  0  0  0
 51 52  1  0  0  0
 51130  1  0  0  0
 51131  1  0  0  0
 52132  1  0  0  0
 52133  1  0  0  0
 53 54  1  0  0  0
 54 55  2  0  0  0
 54134  1  0  0  0
 55 57  1  0  0  0
 55135  1  0  0  0
 56 69  2  0  0  0
 57 58  2  0  0  0
 57136  1  0  0  0
 58137  1  0  0  0
 59 60  1  0  0  0
 59 61  1  0  0  0
 59 62  1  0  0  0
 60138  1  0  0  0
 60139  1  0  0  0
 60140  1  0  0  0
 61141  1  0  0  0
 61142  1  0  0  0
 61143  1  0  0  0
 62144  1  0  0  0
 62145  1  0  0  0
 62146  1  0  0  0
 63 65  1  0  0  0
 63147  1  0  0  0
 63148  1  0  0  0
 63149  1  0  0  0
 64150  1  0  0  0
 65151  1  0  0  0
 68 90  1  0  0  0
 71 72  2  0  0  0
 71 74  1  0  0  0
 71152  1  0  0  0
 72 75  1  0  0  0
 72153  1  0  0  0
 73 74  2  0  0  0
 73 76  1  0  0  0
 73154  1  0  0  0
 74 83  1  0  0  0
 75 76  2  0  0  0
 75 85  1  0  0  0
 76 84  1  0  0  0
 77 78  1  0  0  0
 77 79  1  0  0  0
 77155  1  0  0  0
 77156  1  0  0  0
 78 80  1  0  0  0
 78157  1  0  0  0
 78158  1  0  0  0
 79 81  1  0  0  0
 79159  1  0  0  0
 79160  1  0  0  0
 80 82  1  0  0  0
 80161  1  0  0  0
 80162  1  0  0  0
 81 82  1  0  0  0
 81163  1  0  0  0
 81164  1  0  0  0
 82 91  1  0  0  0
 82165  1  0  0  0
 83166  1  0  0  0
 83167  1  0  0  0
 83168  1  0  0  0
 84 86  1  0  0  0
 84169  1  0  0  0
 84170  1  0  0  0
 85 91  1  0  0  0
 85171  1  0  0  0
 85172  1  0  0  0
 86 88  1  0  0  0
 86173  1  0  0  0
 86174  1  0  0  0
 87 89  1  0  0  0
 87 90  1  0  0  0
 87175  1  0  0  0
 87176  1  0  0  0
 88 92  1  0  0  0
 88177  1  0  0  0
 88178  1  0  0  0
 89 92  1  0  0  0
 89179  1  0  0  0
 89180  1  0  0  0
 90181  1  0  0  0
 90182  1  0  0  0
 92183  1  0  0  0
 92184  1  0  0  0
M  CHG  1  92   1
M  ISO  4   1 100  68 101  90 101  91 100
M  END
> <chiral flag>
0

> <version>
0

> <s_m_source_file>
/data/baiqing/PycharmProjects/Reinvent-master-3.2/result/LINK_invent/BTK/process_docking_weight1_custom_sum_contain_oxygen_bond_distance_aromatic_linkinvent_7_9_3/rearranged_h_0104.sdf

> <i_m_source_file_index>
71

> <r_mmod_Potential_Energy-OPLS-2005>
121.640228271484

> <r_mmod_Stretch_Energy-OPLS-2005>
45.4906349182129

> <r_mmod_Bend_Energy-OPLS-2005>
149.399475097656

> <r_mmod_Torsional_Energy-OPLS-2005>
361.627777099609

> <r_mmod_Improper_Torsional_Energy-OPLS-2005>
22.1393356323242

> <r_mmod_Van_der_Waal_Energy-OPLS-2005>
160.90071105957

> <r_mmod_Electrostatic_Energy-OPLS-2005>
-224.788177490234

> <r_mmod_Solvation_Energy-OPLS-2005>
-430.529479980469

> <b_mmod_Minimization_Converged-OPLS-2005>
0

> <r_mmod_RMS_Derivative-OPLS-2005>
6.95660018920898

$$$$
71
                    3D
 Structure written by MMmdl.
151159  0  0  1  0            999 V2000
  -30.3890  -15.2707   20.3752 C   0  0  0  0  0  0
  -30.4342  -12.8155   19.5174 C   0  0  0  0  0  0
  -29.5363  -12.5959   18.2726 C   0  0  0  0  0  0
  -28.0809  -12.3219   18.6889 C   0  0  0  0  0  0
  -27.6099  -13.2759   19.8146 C   0  0  2  0  0  0
  -28.6390  -13.4186   20.9557 C   0  0  0  0  0  0
  -25.2400  -13.8256   20.5734 C   0  0  0  0  0  0
  -24.1768  -13.0427   20.9297 C   0  0  0  0  0  0
  -24.6424  -11.6921   20.8769 C   0  0  0  0  0  0
  -23.9114  -10.4265   21.0352 C   0  0  0  0  0  0
  -24.3642   -9.4177   21.9128 C   0  0  0  0  0  0
  -23.6312   -8.2211   22.0705 C   0  0  0  0  0  0
  -22.4275   -8.0254   21.3513 C   0  0  0  0  0  0
  -21.9917   -9.0226   20.4600 C   0  0  0  0  0  0
  -22.7270  -10.2091   20.2999 C   0  0  0  0  0  0
  -21.6871   -6.0705   22.5255 C   0  0  0  0  0  0
  -21.4030   -6.5618   23.8201 C   0  0  0  0  0  0
  -21.3664   -5.6758   24.9157 C   0  0  0  0  0  0
  -21.6027   -4.3009   24.7211 C   0  0  0  0  0  0
  -21.8840   -3.8104   23.4341 C   0  0  0  0  0  0
  -21.9223   -4.6933   22.3392 C   0  0  0  0  0  0
  -22.7770  -13.5166   21.1925 C   0  0  0  0  0  0
  -22.1663   -4.2125   21.0972 F   0  0  0  0  0  0
  -21.5651   -3.4488   25.7715 F   0  0  0  0  0  0
  -29.8662  -13.9451   20.3446 N   0  0  0  0  0  0
  -26.2792  -12.9516   20.3112 N   0  0  0  0  0  0
  -25.9336  -11.6614   20.5635 N   0  0  0  0  0  0
  -22.0400  -12.8180   22.0463 N   0  0  0  0  0  0
  -25.4119  -15.1981   20.4127 N   0  0  0  0  0  0
  -31.6087  -15.2945   20.1436 O   0  0  0  0  0  0
  -21.6650   -6.8826   21.4199 O   0  0  0  0  0  0
  -22.3426  -14.5435   20.6744 O   0  0  0  0  0  0
  -24.6658  -31.8221   23.1688 C   0  0  0  0  0  0
  -25.9335  -32.4575   23.8166 C   0  0  1  0  0  0
  -27.2070  -26.8877   20.2123 C   0  0  0  0  0  0
  -25.6016  -33.8391   24.2092 N   0  0  0  0  0  0
  -23.4835  -30.4289   21.5181 C   0  0  2  0  0  0
  -24.9365  -28.8095   20.1170 C   0  0  0  0  0  0
  -22.7717  -29.4417   22.4793 C   0  0  0  0  0  0
  -18.0306  -28.1441   22.8449 C   0  0  0  0  0  0
  -24.1492  -36.7186   23.2637 C   0  0  0  0  0  0
  -26.0525  -30.6142   21.4071 C   0  0  0  0  0  0
  -26.1188  -29.1984   20.7604 C   0  0  0  0  0  0
  -27.2474  -28.2601   20.7826 C   0  0  0  0  0  0
  -25.9979  -26.6586   19.5163 C   0  0  0  0  0  0
  -24.9054  -27.5628   19.4737 C   0  0  0  0  0  0
  -23.7290  -29.7469   20.1430 C   0  0  0  0  0  0
  -25.4128  -36.2963   24.0303 C   0  0  1  0  0  0
  -20.5942  -28.3786   23.1197 C   0  0  2  0  0  0
  -20.6819  -26.9475   22.5420 C   0  0  0  0  0  0
  -19.5818  -26.6399   21.5233 C   0  0  0  0  0  0
  -18.1973  -26.7959   22.1606 C   0  0  0  0  0  0
  -19.1575  -28.8945   23.2778 C   0  0  0  0  0  0
  -18.9497  -30.1518   23.8834 C   0  0  0  0  0  0
  -17.6498  -30.6623   24.0578 C   0  0  0  0  0  0
  -25.9116  -34.9347   23.5036 C   0  0  0  0  0  0
  -16.5380  -29.9120   23.6351 C   0  0  0  0  0  0
  -16.7289  -28.6546   23.0346 C   0  0  0  0  0  0
  -26.4582  -31.6472   25.0687 C   0  0  0  0  0  0
  -25.3716  -31.3726   26.1351 C   0  0  0  0  0  0
  -27.0520  -30.2853   24.6399 C   0  0  0  0  0  0
  -27.6095  -32.4267   25.7497 C   0  0  0  0  0  0
  -27.5588  -37.1742   24.8453 C   0  0  0  0  0  0
  -21.4375  -29.3070   22.3563 N   0  0  0  0  0  0
  -26.4270  -37.3716   23.9437 N   0  0  0  0  0  0
  -24.7553  -30.9840   22.0834 N   0  0  0  0  0  0
  -23.4264  -28.7947   23.3021 O   0  0  0  0  0  0
  -28.1944  -25.7649   20.2876 O   0  0  0  0  0  0
  -26.5741  -34.8888   22.4643 O   0  0  0  0  0  0
  -23.5719  -32.1219   23.6773 O   0  0  0  0  0  0
  -26.3588  -19.6394   20.8193 C   0  0  0  0  0  0
  -26.8960  -20.9387   20.6981 C   0  0  0  0  0  0
  -27.3733  -18.7498   20.6810 C   0  0  0  0  0  0
  -28.2487  -20.9270   20.4568 C   0  0  0  0  0  0
  -29.8362  -22.6138   19.1633 C   0  0  0  0  0  0
  -27.8947  -24.1284   20.2522 C   0  0  0  0  0  0
  -29.7843  -18.1850   20.3300 C   0  0  0  0  0  0
  -28.8435  -22.5653   20.3259 C   0  0  1  0  0  0
  -28.6043  -19.3692   20.4666 N   0  0  0  0  0  0
  -29.5851  -16.5182   20.4686 N   0  0  0  0  0  0
  -31.4505  -13.0387   19.1876 H   0  0  0  0  0  0
  -30.5082  -11.8957   20.0963 H   0  0  0  0  0  0
  -29.9091  -11.7740   17.6568 H   0  0  0  0  0  0
  -29.5756  -13.4884   17.6456 H   0  0  0  0  0  0
  -28.0213  -11.2894   19.0344 H   0  0  0  0  0  0
  -27.4225  -12.3957   17.8229 H   0  0  0  0  0  0
  -27.5280  -14.2522   19.3350 H   0  0  0  0  0  0
  -28.8054  -12.4596   21.4553 H   0  0  0  0  0  0
  -28.2760  -14.1134   21.7143 H   0  0  0  0  0  0
  -25.2750   -9.5706   22.4753 H   0  0  0  0  0  0
  -24.0033   -7.4606   22.7400 H   0  0  0  0  0  0
  -21.0865   -8.8750   19.8903 H   0  0  0  0  0  0
  -22.3693  -10.9651   19.6145 H   0  0  0  0  0  0
  -21.1965   -7.6123   23.9715 H   0  0  0  0  0  0
  -21.1495   -6.0461   25.9075 H   0  0  0  0  0  0
  -22.0629   -2.7564   23.2854 H   0  0  0  0  0  0
  -22.4022  -11.9896   22.4973 H   0  0  0  0  0  0
  -21.0961  -13.1148   22.2479 H   0  0  0  0  0  0
  -24.6453  -15.8571   20.4990 H   0  0  0  0  0  0
  -26.2342  -15.6089   19.9935 H   0  0  0  0  0  0
  -26.7431  -32.5086   23.0885 H   0  0  0  0  0  0
  -25.0142  -33.9474   25.0246 H   0  0  0  0  0  0
  -22.7936  -31.2563   21.3485 H   0  0  0  0  0  0
  -23.3805  -35.9464   23.3196 H   0  0  0  0  0  0
  -24.3586  -36.8944   22.2076 H   0  0  0  0  0  0
  -23.7162  -37.6304   23.6761 H   0  0  0  0  0  0
  -26.2347  -31.3409   20.6156 H   0  0  0  0  0  0
  -26.9163  -30.6800   22.0547 H   0  0  0  0  0  0
  -28.1359  -28.5517   21.3233 H   0  0  0  0  0  0
  -25.8569  -25.7042   19.0291 H   0  0  0  0  0  0
  -24.0057  -27.2616   18.9507 H   0  0  0  0  0  0
  -23.9066  -30.5219   19.3968 H   0  0  0  0  0  0
  -22.8346  -29.2188   19.8054 H   0  0  0  0  0  0
  -25.1297  -36.1758   25.0790 H   0  0  0  0  0  0
  -20.9967  -28.3388   24.1340 H   0  0  0  0  0  0
  -20.5773  -26.2393   23.3642 H   0  0  0  0  0  0
  -21.6665  -26.7517   22.1182 H   0  0  0  0  0  0
  -19.7003  -25.6301   21.1297 H   0  0  0  0  0  0
  -19.6744  -27.3180   20.6741 H   0  0  0  0  0  0
  -17.4236  -26.6671   21.3997 H   0  0  0  0  0  0
  -18.0365  -26.0108   22.9023 H   0  0  0  0  0  0
  -19.7980  -30.7346   24.2149 H   0  0  0  0  0  0
  -17.5061  -31.6281   24.5220 H   0  0  0  0  0  0
  -15.5394  -30.3038   23.7719 H   0  0  0  0  0  0
  -15.8652  -28.0886   22.7086 H   0  0  0  0  0  0
  -24.5876  -30.7098   25.7640 H   0  0  0  0  0  0
  -24.8931  -32.2937   26.4691 H   0  0  0  0  0  0
  -25.7943  -30.8912   27.0179 H   0  0  0  0  0  0
  -26.3212  -29.6488   24.1391 H   0  0  0  0  0  0
  -27.4084  -29.7203   25.5018 H   0  0  0  0  0  0
  -27.9113  -30.4056   23.9805 H   0  0  0  0  0  0
  -27.2675  -33.3602   26.1963 H   0  0  0  0  0  0
  -28.3966  -32.6741   25.0371 H   0  0  0  0  0  0
  -28.0685  -31.8444   26.5492 H   0  0  0  0  0  0
  -28.2490  -38.0157   24.7641 H   0  0  0  0  0  0
  -28.1201  -36.2687   24.6083 H   0  0  0  0  0  0
  -27.2340  -37.1131   25.8862 H   0  0  0  0  0  0
  -20.9656  -29.8707   21.6625 H   0  0  0  0  0  0
  -26.0100  -38.2751   24.1533 H   0  0  0  0  0  0
  -25.3196  -19.3717   20.9935 H   0  0  0  0  0  0
  -26.3077  -21.8410   20.7858 H   0  0  0  0  0  0
  -27.2950  -17.6736   20.7261 H   0  0  0  0  0  0
  -30.5382  -21.7785   19.2112 H   0  0  0  0  0  0
  -30.4167  -23.5360   19.1806 H   0  0  0  0  0  0
  -29.3116  -22.5697   18.2106 H   0  0  0  0  0  0
  -27.1775  -24.0210   21.0648 H   0  0  0  0  0  0
  -27.3003  -24.0134   19.3484 H   0  0  0  0  0  0
  -30.5604  -18.4484   21.0482 H   0  0  0  0  0  0
  -30.2493  -18.3406   19.3542 H   0  0  0  0  0  0
  -29.4471  -22.6889   21.2228 H   0  0  0  0  0  0
  -28.6199  -16.2895   20.6509 H   0  0  0  0  0  0
  1 25  1  0  0  0
  1 30  2  0  0  0
  1 80  1  0  0  0
  2  3  1  0  0  0
  2 25  1  0  0  0
  2 81  1  0  0  0
  2 82  1  0  0  0
  3  4  1  0  0  0
  3 83  1  0  0  0
  3 84  1  0  0  0
  4  5  1  0  0  0
  4 85  1  0  0  0
  4 86  1  0  0  0
  5  6  1  0  0  0
  5 26  1  0  0  0
  5 87  1  0  0  0
  6 25  1  0  0  0
  6 88  1  0  0  0
  6 89  1  0  0  0
  7  8  2  0  0  0
  7 26  1  0  0  0
  7 29  1  0  0  0
  8  9  1  0  0  0
  8 22  1  0  0  0
  9 10  1  0  0  0
  9 27  2  0  0  0
 10 11  2  0  0  0
 10 15  1  0  0  0
 11 12  1  0  0  0
 11 90  1  0  0  0
 12 13  2  0  0  0
 12 91  1  0  0  0
 13 14  1  0  0  0
 13 31  1  0  0  0
 14 15  2  0  0  0
 14 92  1  0  0  0
 15 93  1  0  0  0
 16 17  2  0  0  0
 16 21  1  0  0  0
 16 31  1  0  0  0
 17 18  1  0  0  0
 17 94  1  0  0  0
 18 19  2  0  0  0
 18 95  1  0  0  0
 19 20  1  0  0  0
 19 24  1  0  0  0
 20 21  2  0  0  0
 20 96  1  0  0  0
 21 23  1  0  0  0
 22 28  1  0  0  0
 22 32  2  0  0  0
 26 27  1  0  0  0
 28 97  1  0  0  0
 28 98  1  0  0  0
 29 99  1  0  0  0
 29100  1  0  0  0
 33 34  1  0  0  0
 33 66  1  0  0  0
 33 70  2  0  0  0
 34 36  1  0  0  0
 34 59  1  0  0  0
 34101  1  0  0  0
 35 44  2  0  0  0
 35 45  1  0  0  0
 35 68  1  0  0  0
 36 56  1  0  0  0
 36102  1  0  0  0
 37 39  1  0  0  0
 37 47  1  0  0  0
 37 66  1  0  0  0
 37103  1  0  0  0
 38 43  2  0  0  0
 38 46  1  0  0  0
 38 47  1  0  0  0
 39 64  1  0  0  0
 39 67  2  0  0  0
 40 52  1  0  0  0
 40 53  2  0  0  0
 40 58  1  0  0  0
 41104  1  0  0  0
 41105  1  0  0  0
 41106  1  0  0  0
 41 48  1  0  0  0
 42 43  1  0  0  0
 42 66  1  0  0  0
 42107  1  0  0  0
 42108  1  0  0  0
 43 44  1  0  0  0
 44109  1  0  0  0
 45 46  2  0  0  0
 45110  1  0  0  0
 46111  1  0  0  0
 47112  1  0  0  0
 47113  1  0  0  0
 48 56  1  0  0  0
 48 65  1  0  0  0
 48114  1  0  0  0
 49 50  1  0  0  0
 49 53  1  0  0  0
 49 64  1  0  0  0
 49115  1  0  0  0
 50 51  1  0  0  0
 50116  1  0  0  0
 50117  1  0  0  0
 51 52  1  0  0  0
 51118  1  0  0  0
 51119  1  0  0  0
 52120  1  0  0  0
 52121  1  0  0  0
 53 54  1  0  0  0
 54 55  2  0  0  0
 54122  1  0  0  0
 55 57  1  0  0  0
 55123  1  0  0  0
 56 69  2  0  0  0
 57 58  2  0  0  0
 57124  1  0  0  0
 58125  1  0  0  0
 59 60  1  0  0  0
 59 61  1  0  0  0
 59 62  1  0  0  0
 60126  1  0  0  0
 60127  1  0  0  0
 60128  1  0  0  0
 61129  1  0  0  0
 61130  1  0  0  0
 61131  1  0  0  0
 62132  1  0  0  0
 62133  1  0  0  0
 62134  1  0  0  0
 63 65  1  0  0  0
 63135  1  0  0  0
 63136  1  0  0  0
 63137  1  0  0  0
 64138  1  0  0  0
 65139  1  0  0  0
 68 76  1  0  0  0
 71 72  1  0  0  0
 71 73  2  0  0  0
 71140  1  0  0  0
 72 74  2  0  0  0
 72141  1  0  0  0
 73 79  1  0  0  0
 73142  1  0  0  0
 74 78  1  0  0  0
 74 79  1  0  0  0
 75143  1  0  0  0
 75144  1  0  0  0
 75145  1  0  0  0
 75 78  1  0  0  0
 76 78  1  0  0  0
 76146  1  0  0  0
 76147  1  0  0  0
 77 79  1  0  0  0
 77 80  1  0  0  0
 77148  1  0  0  0
 77149  1  0  0  0
 78150  1  0  0  0
 80151  1  0  0  0
M  ISO  4   1 100  68 101  76 101  80 100
M  END
> <chiral flag>
0

> <version>
0

> <s_m_source_file>
/data/baiqing/PycharmProjects/Reinvent-master-3.2/result/LINK_invent/BTK/process_docking_weight1_custom_sum_contain_oxygen_bond_distance_aromatic_linkinvent_7_9_3/rearranged_h_0104.sdf

> <i_m_source_file_index>
72

> <r_mmod_Potential_Energy-OPLS-2005>
1373.19006347656

> <r_mmod_Stretch_Energy-OPLS-2005>
672.117126464844

> <r_mmod_Bend_Energy-OPLS-2005>
501.2998046875

> <r_mmod_Torsional_Energy-OPLS-2005>
221.84114074707

> <r_mmod_Improper_Torsional_Energy-OPLS-2005>
4.47402763366699

> <r_mmod_Van_der_Waal_Energy-OPLS-2005>
103.335655212402

> <r_mmod_Electrostatic_Energy-OPLS-2005>
-400.970275878906

> <r_mmod_Solvation_Energy-OPLS-2005>
-218.947540283203

> <b_mmod_Minimization_Converged-OPLS-2005>
0

> <r_mmod_RMS_Derivative-OPLS-2005>
7.11322927474976

$$$$
72
                    3D
 Structure written by MMmdl.
164172  0  0  1  0            999 V2000
  -30.6828  -14.6477   20.5160 C   0  0  0  0  0  0
  -30.4164  -12.3972   19.4792 C   0  0  0  0  0  0
  -29.5137  -12.5105   18.2333 C   0  0  0  0  0  0
  -28.0303  -12.3704   18.6242 C   0  0  0  0  0  0
  -27.6469  -13.2365   19.8551 C   0  0  2  0  0  0
  -28.6846  -13.1181   20.9904 C   0  0  0  0  0  0
  -25.2541  -13.8223   20.5693 C   0  0  0  0  0  0
  -24.1827  -13.0473   20.9184 C   0  0  0  0  0  0
  -24.6409  -11.6945   20.8713 C   0  0  0  0  0  0
  -23.9080  -10.4324   21.0397 C   0  0  0  0  0  0
  -24.3636   -9.4240   21.9180 C   0  0  0  0  0  0
  -23.6311   -8.2272   22.0742 C   0  0  0  0  0  0
  -22.4286   -8.0306   21.3541 C   0  0  0  0  0  0
  -21.9930   -9.0278   20.4644 C   0  0  0  0  0  0
  -22.7248  -10.2157   20.3053 C   0  0  0  0  0  0
  -21.6882   -6.0745   22.5263 C   0  0  0  0  0  0
  -21.4024   -6.5638   23.8197 C   0  0  0  0  0  0
  -21.3665   -5.6784   24.9159 C   0  0  0  0  0  0
  -21.6059   -4.3049   24.7199 C   0  0  0  0  0  0
  -21.8825   -3.8144   23.4318 C   0  0  0  0  0  0
  -21.9204   -4.6971   22.3381 C   0  0  0  0  0  0
  -22.7842  -13.5248   21.1849 C   0  0  0  0  0  0
  -22.1679   -4.2158   21.0960 F   0  0  0  0  0  0
  -21.5633   -3.4530   25.7710 F   0  0  0  0  0  0
  -29.9996  -13.4537   20.4292 N   0  0  0  0  0  0
  -26.2962  -12.9434   20.3263 N   0  0  0  0  0  0
  -25.9343  -11.6565   20.5702 N   0  0  0  0  0  0
  -22.0486  -12.8232   22.0400 N   0  0  0  0  0  0
  -25.4260  -15.1960   20.4167 N   0  0  0  0  0  0
  -31.8362  -14.7150   20.0803 O   0  0  0  0  0  0
  -21.6665   -6.8891   21.4230 O   0  0  0  0  0  0
  -22.3516  -14.5554   20.6700 O   0  0  0  0  0  0
  -24.6235  -31.8569   23.2013 C   0  0  0  0  0  0
  -25.9070  -32.4770   23.8368 C   0  0  1  0  0  0
  -27.2482  -27.3383   20.1172 C   0  0  0  0  0  0
  -25.5884  -33.8579   24.2276 N   0  0  0  0  0  0
  -23.4212  -30.4771   21.5390 C   0  0  2  0  0  0
  -24.8732  -28.9260   20.1113 C   0  0  0  0  0  0
  -22.7467  -29.4582   22.4880 C   0  0  0  0  0  0
  -18.0273  -28.1384   22.8471 C   0  0  0  0  0  0
  -24.1481  -36.7299   23.2652 C   0  0  0  0  0  0
  -25.9610  -30.7898   21.3768 C   0  0  0  0  0  0
  -26.0341  -29.4199   20.7157 C   0  0  0  0  0  0
  -27.2178  -28.6339   20.7132 C   0  0  0  0  0  0
  -26.0598  -26.8699   19.5164 C   0  0  0  0  0  0
  -24.8841  -27.6536   19.5091 C   0  0  0  0  0  0
  -23.6418  -29.8088   20.1554 C   0  0  0  0  0  0
  -25.4111  -36.3092   24.0336 C   0  0  1  0  0  0
  -20.5874  -28.3678   23.1266 C   0  0  2  0  0  0
  -20.6765  -26.9389   22.5416 C   0  0  0  0  0  0
  -19.5754  -26.6367   21.5208 C   0  0  0  0  0  0
  -18.1919  -26.7926   22.1601 C   0  0  0  0  0  0
  -19.1529  -28.8841   23.2869 C   0  0  0  0  0  0
  -18.9468  -30.1436   23.8899 C   0  0  0  0  0  0
  -17.6473  -30.6589   24.0552 C   0  0  0  0  0  0
  -25.9040  -34.9450   23.5109 C   0  0  0  0  0  0
  -16.5353  -29.9092   23.6328 C   0  0  0  0  0  0
  -16.7262  -28.6503   23.0352 C   0  0  0  0  0  0
  -26.4473  -31.6619   25.0767 C   0  0  0  0  0  0
  -25.3723  -31.3766   26.1515 C   0  0  0  0  0  0
  -27.0342  -30.3040   24.6264 C   0  0  0  0  0  0
  -27.6008  -32.4388   25.7551 C   0  0  0  0  0  0
  -27.5576  -37.1811   24.8459 C   0  0  0  0  0  0
  -21.4171  -29.3029   22.3646 N   0  0  0  0  0  0
  -26.4289  -37.3785   23.9403 N   0  0  0  0  0  0
  -24.6863  -31.0595   22.0954 N   0  0  0  0  0  0
  -23.4185  -28.8116   23.2963 O   0  0  0  0  0  0
  -28.4147  -26.5705   20.2028 O   0  0  0  0  0  0
  -26.5626  -34.8908   22.4684 O   0  0  0  0  0  0
  -23.5389  -32.1353   23.7324 O   0  0  0  0  0  0
  -28.9250  -19.0546   21.2165 C   0  0  0  0  0  0
  -28.6386  -20.4472   21.3553 C   0  0  0  0  0  0
  -29.8047  -18.5838   20.2027 C   0  0  0  0  0  0
  -29.2108  -21.4011   20.4802 C   0  0  0  0  0  0
  -30.2827  -19.6239   19.3355 C   0  0  0  0  0  0
  -30.4950  -19.7228   16.8022 C   0  0  0  0  0  0
  -28.6147  -25.6437   17.9253 C   0  0  0  0  0  0
  -29.6166  -16.0583   22.1961 C   0  0  0  0  0  0
  -30.2838  -17.0742   19.9767 C   0  0  0  0  0  0
  -29.1454  -22.9588   20.7124 C   0  0  0  0  0  0
  -31.1822  -19.3600   18.1300 C   0  0  0  0  0  0
  -28.2034  -23.8930   19.8365 C   0  0  0  0  0  0
  -28.7218  -25.3549   19.4342 C   0  0  2  0  0  0
  -30.0102  -20.9554   19.4880 N   0  0  0  0  0  0
  -29.9962  -15.8230   20.8019 N   0  0  0  0  0  0
  -31.4696  -12.4687   19.1990 H   0  0  0  0  0  0
  -30.3053  -11.4124   19.9344 H   0  0  0  0  0  0
  -29.7798  -11.7446   17.5027 H   0  0  0  0  0  0
  -29.6815  -13.4710   17.7450 H   0  0  0  0  0  0
  -27.8421  -11.3174   18.8348 H   0  0  0  0  0  0
  -27.3969  -12.6274   17.7740 H   0  0  0  0  0  0
  -27.6573  -14.2713   19.5127 H   0  0  0  0  0  0
  -28.6922  -12.1057   21.3958 H   0  0  0  0  0  0
  -28.4074  -13.7681   21.8185 H   0  0  0  0  0  0
  -25.2791   -9.5736   22.4735 H   0  0  0  0  0  0
  -24.0043   -7.4671   22.7455 H   0  0  0  0  0  0
  -21.0863   -8.8797   19.8939 H   0  0  0  0  0  0
  -22.3714  -10.9696   19.6157 H   0  0  0  0  0  0
  -21.2010   -7.6142   23.9703 H   0  0  0  0  0  0
  -21.1495   -6.0510   25.9065 H   0  0  0  0  0  0
  -22.0598   -2.7599   23.2813 H   0  0  0  0  0  0
  -22.4104  -11.9916   22.4832 H   0  0  0  0  0  0
  -21.1090  -13.1238   22.2553 H   0  0  0  0  0  0
  -24.6660  -15.8551   20.5432 H   0  0  0  0  0  0
  -26.2908  -15.6376   20.1305 H   0  0  0  0  0  0
  -26.7136  -32.5427   23.1114 H   0  0  0  0  0  0
  -25.0028  -33.9741   25.0415 H   0  0  0  0  0  0
  -22.7131  -31.2946   21.3909 H   0  0  0  0  0  0
  -23.3745  -35.9631   23.3321 H   0  0  0  0  0  0
  -24.3563  -36.8921   22.2067 H   0  0  0  0  0  0
  -23.7232  -37.6500   23.6667 H   0  0  0  0  0  0
  -26.1073  -31.5591   20.6163 H   0  0  0  0  0  0
  -26.8331  -30.8248   22.0191 H   0  0  0  0  0  0
  -28.1091  -29.0128   21.1934 H   0  0  0  0  0  0
  -26.0186  -25.8803   19.0857 H   0  0  0  0  0  0
  -23.9867  -27.2576   19.0556 H   0  0  0  0  0  0
  -23.7693  -30.5891   19.4042 H   0  0  0  0  0  0
  -22.7633  -29.2418   19.8438 H   0  0  0  0  0  0
  -25.1288  -36.1961   25.0831 H   0  0  0  0  0  0
  -20.9961  -28.3278   24.1386 H   0  0  0  0  0  0
  -20.5638  -26.2288   23.3621 H   0  0  0  0  0  0
  -21.6636  -26.7393   22.1218 H   0  0  0  0  0  0
  -19.6915  -25.6270   21.1246 H   0  0  0  0  0  0
  -19.6730  -27.3173   20.6734 H   0  0  0  0  0  0
  -17.4191  -26.6655   21.3997 H   0  0  0  0  0  0
  -18.0319  -26.0072   22.9003 H   0  0  0  0  0  0
  -19.7954  -30.7228   24.2288 H   0  0  0  0  0  0
  -17.5042  -31.6278   24.5141 H   0  0  0  0  0  0
  -15.5357  -30.3006   23.7659 H   0  0  0  0  0  0
  -15.8653  -28.0825   22.7090 H   0  0  0  0  0  0
  -24.5837  -30.7184   25.7858 H   0  0  0  0  0  0
  -24.9000  -32.2950   26.5016 H   0  0  0  0  0  0
  -25.8060  -30.8886   27.0256 H   0  0  0  0  0  0
  -26.2964  -29.6801   24.1214 H   0  0  0  0  0  0
  -27.3948  -29.7286   25.4803 H   0  0  0  0  0  0
  -27.8855  -30.4328   23.9576 H   0  0  0  0  0  0
  -27.2571  -33.3653   26.2164 H   0  0  0  0  0  0
  -28.3806  -32.7032   25.0398 H   0  0  0  0  0  0
  -28.0705  -31.8531   26.5464 H   0  0  0  0  0  0
  -28.2581  -38.0119   24.7498 H   0  0  0  0  0  0
  -28.1075  -36.2642   24.6278 H   0  0  0  0  0  0
  -27.2284  -37.1461   25.8859 H   0  0  0  0  0  0
  -20.9329  -29.8780   21.6894 H   0  0  0  0  0  0
  -26.0169  -38.2854   24.1417 H   0  0  0  0  0  0
  -28.4753  -18.3757   21.9213 H   0  0  0  0  0  0
  -28.0114  -20.7805   22.1700 H   0  0  0  0  0  0
  -31.1460  -19.5126   15.9545 H   0  0  0  0  0  0
  -30.2352  -20.7825   16.7645 H   0  0  0  0  0  0
  -29.5737  -19.1564   16.6682 H   0  0  0  0  0  0
  -29.0534  -26.6129   17.6819 H   0  0  0  0  0  0
  -27.5861  -25.6469   17.5679 H   0  0  0  0  0  0
  -29.1550  -24.8938   17.3468 H   0  0  0  0  0  0
  -30.1131  -16.9432   22.5956 H   0  0  0  0  0  0
  -29.8952  -15.2298   22.8515 H   0  0  0  0  0  0
  -28.5379  -16.1835   22.2728 H   0  0  0  0  0  0
  -31.3715  -17.1551   19.9475 H   0  0  0  0  0  0
  -29.9819  -16.8139   18.9605 H   0  0  0  0  0  0
  -30.1716  -23.3088   20.5991 H   0  0  0  0  0  0
  -28.9165  -23.1391   21.7628 H   0  0  0  0  0  0
  -31.5182  -18.3274   18.0748 H   0  0  0  0  0  0
  -32.0928  -19.9511   18.2425 H   0  0  0  0  0  0
  -27.2083  -23.9470   20.2784 H   0  0  0  0  0  0
  -28.0578  -23.3447   18.9057 H   0  0  0  0  0  0
  -29.8002  -25.3006   19.5876 H   0  0  0  0  0  0
  1 25  1  0  0  0
  1 30  2  0  0  0
  1 85  1  0  0  0
  2  3  1  0  0  0
  2 25  1  0  0  0
  2 86  1  0  0  0
  2 87  1  0  0  0
  3  4  1  0  0  0
  3 88  1  0  0  0
  3 89  1  0  0  0
  4  5  1  0  0  0
  4 90  1  0  0  0
  4 91  1  0  0  0
  5  6  1  0  0  0
  5 26  1  0  0  0
  5 92  1  0  0  0
  6 25  1  0  0  0
  6 93  1  0  0  0
  6 94  1  0  0  0
  7  8  2  0  0  0
  7 26  1  0  0  0
  7 29  1  0  0  0
  8  9  1  0  0  0
  8 22  1  0  0  0
  9 10  1  0  0  0
  9 27  2  0  0  0
 10 11  2  0  0  0
 10 15  1  0  0  0
 11 12  1  0  0  0
 11 95  1  0  0  0
 12 13  2  0  0  0
 12 96  1  0  0  0
 13 14  1  0  0  0
 13 31  1  0  0  0
 14 15  2  0  0  0
 14 97  1  0  0  0
 15 98  1  0  0  0
 16 17  2  0  0  0
 16 21  1  0  0  0
 16 31  1  0  0  0
 17 18  1  0  0  0
 17 99  1  0  0  0
 18 19  2  0  0  0
 18100  1  0  0  0
 19 20  1  0  0  0
 19 24  1  0  0  0
 20 21  2  0  0  0
 20101  1  0  0  0
 21 23  1  0  0  0
 22 28  1  0  0  0
 22 32  2  0  0  0
 26 27  1  0  0  0
 28102  1  0  0  0
 28103  1  0  0  0
 29104  1  0  0  0
 29105  1  0  0  0
 33 34  1  0  0  0
 33 66  1  0  0  0
 33 70  2  0  0  0
 34 36  1  0  0  0
 34 59  1  0  0  0
 34106  1  0  0  0
 35 44  2  0  0  0
 35 45  1  0  0  0
 35 68  1  0  0  0
 36 56  1  0  0  0
 36107  1  0  0  0
 37 39  1  0  0  0
 37 47  1  0  0  0
 37 66  1  0  0  0
 37108  1  0  0  0
 38 43  2  0  0  0
 38 46  1  0  0  0
 38 47  1  0  0  0
 39 64  1  0  0  0
 39 67  2  0  0  0
 40 52  1  0  0  0
 40 53  2  0  0  0
 40 58  1  0  0  0
 41109  1  0  0  0
 41110  1  0  0  0
 41111  1  0  0  0
 41 48  1  0  0  0
 42 43  1  0  0  0
 42 66  1  0  0  0
 42112  1  0  0  0
 42113  1  0  0  0
 43 44  1  0  0  0
 44114  1  0  0  0
 45 46  2  0  0  0
 45115  1  0  0  0
 46116  1  0  0  0
 47117  1  0  0  0
 47118  1  0  0  0
 48 56  1  0  0  0
 48 65  1  0  0  0
 48119  1  0  0  0
 49 50  1  0  0  0
 49 53  1  0  0  0
 49 64  1  0  0  0
 49120  1  0  0  0
 50 51  1  0  0  0
 50121  1  0  0  0
 50122  1  0  0  0
 51 52  1  0  0  0
 51123  1  0  0  0
 51124  1  0  0  0
 52125  1  0  0  0
 52126  1  0  0  0
 53 54  1  0  0  0
 54 55  2  0  0  0
 54127  1  0  0  0
 55 57  1  0  0  0
 55128  1  0  0  0
 56 69  2  0  0  0
 57 58  2  0  0  0
 57129  1  0  0  0
 58130  1  0  0  0
 59 60  1  0  0  0
 59 61  1  0  0  0
 59 62  1  0  0  0
 60131  1  0  0  0
 60132  1  0  0  0
 60133  1  0  0  0
 61134  1  0  0  0
 61135  1  0  0  0
 61136  1  0  0  0
 62137  1  0  0  0
 62138  1  0  0  0
 62139  1  0  0  0
 63 65  1  0  0  0
 63140  1  0  0  0
 63141  1  0  0  0
 63142  1  0  0  0
 64143  1  0  0  0
 65144  1  0  0  0
 68 83  1  0  0  0
 71 72  2  0  0  0
 71 73  1  0  0  0
 71145  1  0  0  0
 72 74  1  0  0  0
 72146  1  0  0  0
 73 75  2  0  0  0
 73 79  1  0  0  0
 74 80  1  0  0  0
 74 84  2  0  0  0
 75 81  1  0  0  0
 75 84  1  0  0  0
 76 81  1  0  0  0
 76147  1  0  0  0
 76148  1  0  0  0
 76149  1  0  0  0
 77150  1  0  0  0
 77151  1  0  0  0
 77152  1  0  0  0
 77 83  1  0  0  0
 78 85  1  0  0  0
 78153  1  0  0  0
 78154  1  0  0  0
 78155  1  0  0  0
 79 85  1  0  0  0
 79156  1  0  0  0
 79157  1  0  0  0
 80 82  1  0  0  0
 80158  1  0  0  0
 80159  1  0  0  0
 81160  1  0  0  0
 81161  1  0  0  0
 82 83  1  0  0  0
 82162  1  0  0  0
 82163  1  0  0  0
 83164  1  0  0  0
M  ISO  4   1 100  68 101  83 101  85 100
M  END
> <chiral flag>
0

> <version>
0

> <s_m_source_file>
/data/baiqing/PycharmProjects/Reinvent-master-3.2/result/LINK_invent/BTK/process_docking_weight1_custom_sum_contain_oxygen_bond_distance_aromatic_linkinvent_7_9_3/rearranged_h_0104.sdf

> <i_m_source_file_index>
73

> <r_mmod_Potential_Energy-OPLS-2005>
66.8506164550781

> <r_mmod_Stretch_Energy-OPLS-2005>
92.6252899169922

> <r_mmod_Bend_Energy-OPLS-2005>
207.39616394043

> <r_mmod_Torsional_Energy-OPLS-2005>
248.836791992188

> <r_mmod_Improper_Torsional_Energy-OPLS-2005>
10.3080282211304

> <r_mmod_Van_der_Waal_Energy-OPLS-2005>
149.949615478516

> <r_mmod_Electrostatic_Energy-OPLS-2005>
-488.789459228516

> <r_mmod_Solvation_Energy-OPLS-2005>
-198.902053833008

> <b_mmod_Minimization_Converged-OPLS-2005>
0

> <r_mmod_RMS_Derivative-OPLS-2005>
2.48471975326538

$$$$
73
                    3D
 Structure written by MMmdl.
152159  0  0  1  0            999 V2000
  -30.5683  -14.8868   20.4307 C   0  0  0  0  0  0
  -30.4376  -12.5480   19.4879 C   0  0  0  0  0  0
  -29.5161  -12.5173   18.2476 C   0  0  0  0  0  0
  -28.0476  -12.3159   18.6670 C   0  0  0  0  0  0
  -27.6324  -13.2432   19.8397 C   0  0  2  0  0  0
  -28.6767  -13.2485   20.9758 C   0  0  0  0  0  0
  -25.2476  -13.8210   20.5708 C   0  0  0  0  0  0
  -24.1785  -13.0438   20.9221 C   0  0  0  0  0  0
  -24.6395  -11.6922   20.8753 C   0  0  0  0  0  0
  -23.9077  -10.4293   21.0409 C   0  0  0  0  0  0
  -24.3625   -9.4207   21.9186 C   0  0  0  0  0  0
  -23.6297   -8.2243   22.0756 C   0  0  0  0  0  0
  -22.4280   -8.0281   21.3545 C   0  0  0  0  0  0
  -21.9918   -9.0255   20.4646 C   0  0  0  0  0  0
  -22.7248  -10.2134   20.3057 C   0  0  0  0  0  0
  -21.6854   -6.0736   22.5279 C   0  0  0  0  0  0
  -21.4014   -6.5641   23.8211 C   0  0  0  0  0  0
  -21.3659   -5.6794   24.9173 C   0  0  0  0  0  0
  -21.6044   -4.3058   24.7226 C   0  0  0  0  0  0
  -21.8819   -3.8148   23.4347 C   0  0  0  0  0  0
  -21.9193   -4.6963   22.3402 C   0  0  0  0  0  0
  -22.7806  -13.5211   21.1877 C   0  0  0  0  0  0
  -22.1662   -4.2150   21.0980 F   0  0  0  0  0  0
  -21.5628   -3.4541   25.7738 F   0  0  0  0  0  0
  -29.9585  -13.6402   20.3775 N   0  0  0  0  0  0
  -26.2899  -12.9435   20.3252 N   0  0  0  0  0  0
  -25.9327  -11.6569   20.5744 N   0  0  0  0  0  0
  -22.0460  -12.8195   22.0433 N   0  0  0  0  0  0
  -25.4137  -15.1936   20.4132 N   0  0  0  0  0  0
  -31.7723  -14.9518   20.1654 O   0  0  0  0  0  0
  -21.6643   -6.8879   21.4240 O   0  0  0  0  0  0
  -22.3486  -14.5514   20.6723 O   0  0  0  0  0  0
  -24.6420  -31.8466   23.1911 C   0  0  0  0  0  0
  -25.9202  -32.4708   23.8290 C   0  0  1  0  0  0
  -27.2137  -27.1586   20.1381 C   0  0  0  0  0  0
  -25.5957  -33.8512   24.2207 N   0  0  0  0  0  0
  -23.4431  -30.4695   21.5368 C   0  0  2  0  0  0
  -24.8896  -28.9037   20.1102 C   0  0  0  0  0  0
  -22.7557  -29.4564   22.4867 C   0  0  0  0  0  0
  -18.0305  -28.1393   22.8479 C   0  0  0  0  0  0
  -24.1490  -36.7260   23.2642 C   0  0  0  0  0  0
  -25.9992  -30.7280   21.3862 C   0  0  0  0  0  0
  -26.0687  -29.3429   20.7246 C   0  0  0  0  0  0
  -27.2311  -28.4867   20.7221 C   0  0  0  0  0  0
  -26.0001  -26.8158   19.4970 C   0  0  0  0  0  0
  -24.8667  -27.6517   19.4830 C   0  0  0  0  0  0
  -23.6669  -29.8037   20.1546 C   0  0  0  0  0  0
  -25.4122  -36.3040   24.0317 C   0  0  1  0  0  0
  -20.5917  -28.3718   23.1238 C   0  0  2  0  0  0
  -20.6790  -26.9423   22.5401 C   0  0  0  0  0  0
  -19.5761  -26.6382   21.5212 C   0  0  0  0  0  0
  -18.1943  -26.7931   22.1626 C   0  0  0  0  0  0
  -19.1561  -28.8874   23.2850 C   0  0  0  0  0  0
  -18.9478  -30.1472   23.8874 C   0  0  0  0  0  0
  -17.6475  -30.6589   24.0561 C   0  0  0  0  0  0
  -25.9072  -34.9413   23.5067 C   0  0  0  0  0  0
  -16.5366  -29.9081   23.6338 C   0  0  0  0  0  0
  -16.7290  -28.6502   23.0356 C   0  0  0  0  0  0
  -26.4526  -31.6569   25.0724 C   0  0  0  0  0  0
  -25.3712  -31.3753   26.1421 C   0  0  0  0  0  0
  -27.0393  -30.2969   24.6294 C   0  0  0  0  0  0
  -27.6058  -32.4335   25.7505 C   0  0  0  0  0  0
  -27.5574  -37.1788   24.8467 C   0  0  0  0  0  0
  -21.4253  -29.3050   22.3616 N   0  0  0  0  0  0
  -26.4286  -37.3751   23.9408 N   0  0  0  0  0  0
  -24.7148  -31.0347   22.0933 N   0  0  0  0  0  0
  -23.4214  -28.8106   23.3001 O   0  0  0  0  0  0
  -28.2787  -26.1897   20.2146 O   0  0  0  0  0  0
  -26.5652  -34.8905   22.4643 O   0  0  0  0  0  0
  -23.5545  -32.1330   23.7148 O   0  0  0  0  0  0
  -28.2213  -24.6346   18.3245 C   0  0  0  0  0  0
  -28.6188  -21.7841   20.1566 C   0  0  0  0  0  0
  -28.9734  -23.3995   20.4525 C   0  0  0  0  0  0
  -29.5925  -20.4662   20.5073 C   0  0  0  0  0  0
  -30.2175  -17.5740   20.5820 C   0  0  0  0  0  0
  -28.0890  -24.6919   19.8577 C   0  0  1  0  0  0
  -29.1656  -18.8514   20.3411 C   0  0  1  0  0  0
  -29.8021  -16.0628   20.5767 N   0  0  0  0  0  0
  -28.1639  -18.6555   21.1974 F   0  0  0  0  0  0
  -28.5036  -18.6537   18.6986 Cl  0  0  0  0  0  0
  -31.4731  -12.6958   19.1770 H   0  0  0  0  0  0
  -30.4171  -11.5904   20.0108 H   0  0  0  0  0  0
  -29.8230  -11.7223   17.5668 H   0  0  0  0  0  0
  -29.6147  -13.4518   17.6929 H   0  0  0  0  0  0
  -27.9339  -11.2733   18.9664 H   0  0  0  0  0  0
  -27.3842  -12.4607   17.8136 H   0  0  0  0  0  0
  -27.6033  -14.2497   19.4219 H   0  0  0  0  0  0
  -28.7491  -12.2682   21.4491 H   0  0  0  0  0  0
  -28.3886  -13.9505   21.7600 H   0  0  0  0  0  0
  -25.2769   -9.5684   22.4763 H   0  0  0  0  0  0
  -24.0005   -7.4636   22.7478 H   0  0  0  0  0  0
  -21.0848   -8.8774   19.8953 H   0  0  0  0  0  0
  -22.3705  -10.9673   19.6167 H   0  0  0  0  0  0
  -21.2006   -7.6149   23.9713 H   0  0  0  0  0  0
  -21.1482   -6.0526   25.9076 H   0  0  0  0  0  0
  -22.0597   -2.7611   23.2847 H   0  0  0  0  0  0
  -22.4089  -11.9862   22.4819 H   0  0  0  0  0  0
  -21.1074  -13.1208   22.2641 H   0  0  0  0  0  0
  -24.6436  -15.8430   20.5290 H   0  0  0  0  0  0
  -26.2545  -15.6388   20.0694 H   0  0  0  0  0  0
  -26.7264  -32.5320   23.1018 H   0  0  0  0  0  0
  -25.0095  -33.9635   25.0347 H   0  0  0  0  0  0
  -22.7447  -31.2952   21.3858 H   0  0  0  0  0  0
  -23.3756  -35.9588   23.3297 H   0  0  0  0  0  0
  -24.3574  -36.8899   22.2058 H   0  0  0  0  0  0
  -23.7240  -37.6453   23.6682 H   0  0  0  0  0  0
  -26.1533  -31.4849   20.6161 H   0  0  0  0  0  0
  -26.8708  -30.7750   22.0274 H   0  0  0  0  0  0
  -28.1299  -28.8189   21.2226 H   0  0  0  0  0  0
  -25.8742  -25.8584   19.0178 H   0  0  0  0  0  0
  -23.9638  -27.3065   18.9982 H   0  0  0  0  0  0
  -23.8024  -30.5800   19.4008 H   0  0  0  0  0  0
  -22.7818  -29.2459   19.8436 H   0  0  0  0  0  0
  -25.1307  -36.1871   25.0809 H   0  0  0  0  0  0
  -21.0013  -28.3305   24.1356 H   0  0  0  0  0  0
  -20.5689  -26.2329   23.3618 H   0  0  0  0  0  0
  -21.6653  -26.7430   22.1192 H   0  0  0  0  0  0
  -19.6921  -25.6288   21.1251 H   0  0  0  0  0  0
  -19.6696  -27.3184   20.6735 H   0  0  0  0  0  0
  -17.4211  -26.6681   21.4029 H   0  0  0  0  0  0
  -18.0340  -26.0075   22.9025 H   0  0  0  0  0  0
  -19.7954  -30.7297   24.2226 H   0  0  0  0  0  0
  -17.5027  -31.6266   24.5168 H   0  0  0  0  0  0
  -15.5365  -30.2975   23.7674 H   0  0  0  0  0  0
  -15.8691  -28.0816   22.7078 H   0  0  0  0  0  0
  -24.5903  -30.7086   25.7744 H   0  0  0  0  0  0
  -24.8888  -32.2932   26.4789 H   0  0  0  0  0  0
  -25.8000  -30.8970   27.0236 H   0  0  0  0  0  0
  -26.3011  -29.6692   24.1292 H   0  0  0  0  0  0
  -27.4002  -29.7268   25.4864 H   0  0  0  0  0  0
  -27.8915  -30.4212   23.9610 H   0  0  0  0  0  0
  -27.2653  -33.3658   26.2022 H   0  0  0  0  0  0
  -28.3896  -32.6861   25.0353 H   0  0  0  0  0  0
  -28.0689  -31.8500   26.5472 H   0  0  0  0  0  0
  -28.2587  -38.0088   24.7511 H   0  0  0  0  0  0
  -28.1074  -36.2618   24.6297 H   0  0  0  0  0  0
  -27.2290  -37.1436   25.8869 H   0  0  0  0  0  0
  -20.9457  -29.8773   21.6809 H   0  0  0  0  0  0
  -26.0155  -38.2819   24.1416 H   0  0  0  0  0  0
  -27.8917  -23.6724   17.9335 H   0  0  0  0  0  0
  -29.2593  -24.7743   18.0227 H   0  0  0  0  0  0
  -27.6407  -25.4015   17.8155 H   0  0  0  0  0  0
  -28.4006  -21.7056   19.0922 H   0  0  0  0  0  0
  -27.6605  -21.5925   20.6393 H   0  0  0  0  0  0
  -30.0051  -23.5567   20.1375 H   0  0  0  0  0  0
  -29.0025  -23.5136   21.5364 H   0  0  0  0  0  0
  -29.9203  -20.5890   21.5398 H   0  0  0  0  0  0
  -30.5005  -20.6022   19.9196 H   0  0  0  0  0  0
  -30.6969  -17.7365   21.5475 H   0  0  0  0  0  0
  -31.0239  -17.6766   19.8548 H   0  0  0  0  0  0
  -27.0637  -24.4456   20.1327 H   0  0  0  0  0  0
  -28.8174  -15.9061   20.7239 H   0  0  0  0  0  0
  1 25  1  0  0  0
  1 30  2  0  0  0
  1 78  1  0  0  0
  2  3  1  0  0  0
  2 25  1  0  0  0
  2 81  1  0  0  0
  2 82  1  0  0  0
  3  4  1  0  0  0
  3 83  1  0  0  0
  3 84  1  0  0  0
  4  5  1  0  0  0
  4 85  1  0  0  0
  4 86  1  0  0  0
  5  6  1  0  0  0
  5 26  1  0  0  0
  5 87  1  0  0  0
  6 25  1  0  0  0
  6 88  1  0  0  0
  6 89  1  0  0  0
  7  8  2  0  0  0
  7 26  1  0  0  0
  7 29  1  0  0  0
  8  9  1  0  0  0
  8 22  1  0  0  0
  9 10  1  0  0  0
  9 27  2  0  0  0
 10 11  2  0  0  0
 10 15  1  0  0  0
 11 12  1  0  0  0
 11 90  1  0  0  0
 12 13  2  0  0  0
 12 91  1  0  0  0
 13 14  1  0  0  0
 13 31  1  0  0  0
 14 15  2  0  0  0
 14 92  1  0  0  0
 15 93  1  0  0  0
 16 17  2  0  0  0
 16 21  1  0  0  0
 16 31  1  0  0  0
 17 18  1  0  0  0
 17 94  1  0  0  0
 18 19  2  0  0  0
 18 95  1  0  0  0
 19 20  1  0  0  0
 19 24  1  0  0  0
 20 21  2  0  0  0
 20 96  1  0  0  0
 21 23  1  0  0  0
 22 28  1  0  0  0
 22 32  2  0  0  0
 26 27  1  0  0  0
 28 97  1  0  0  0
 28 98  1  0  0  0
 29 99  1  0  0  0
 29100  1  0  0  0
 33 34  1  0  0  0
 33 66  1  0  0  0
 33 70  2  0  0  0
 34 36  1  0  0  0
 34 59  1  0  0  0
 34101  1  0  0  0
 35 44  2  0  0  0
 35 45  1  0  0  0
 35 68  1  0  0  0
 36 56  1  0  0  0
 36102  1  0  0  0
 37 39  1  0  0  0
 37 47  1  0  0  0
 37 66  1  0  0  0
 37103  1  0  0  0
 38 43  2  0  0  0
 38 46  1  0  0  0
 38 47  1  0  0  0
 39 64  1  0  0  0
 39 67  2  0  0  0
 40 52  1  0  0  0
 40 53  2  0  0  0
 40 58  1  0  0  0
 41104  1  0  0  0
 41105  1  0  0  0
 41106  1  0  0  0
 41 48  1  0  0  0
 42 43  1  0  0  0
 42 66  1  0  0  0
 42107  1  0  0  0
 42108  1  0  0  0
 43 44  1  0  0  0
 44109  1  0  0  0
 45 46  2  0  0  0
 45110  1  0  0  0
 46111  1  0  0  0
 47112  1  0  0  0
 47113  1  0  0  0
 48 56  1  0  0  0
 48 65  1  0  0  0
 48114  1  0  0  0
 49 50  1  0  0  0
 49 53  1  0  0  0
 49 64  1  0  0  0
 49115  1  0  0  0
 50 51  1  0  0  0
 50116  1  0  0  0
 50117  1  0  0  0
 51 52  1  0  0  0
 51118  1  0  0  0
 51119  1  0  0  0
 52120  1  0  0  0
 52121  1  0  0  0
 53 54  1  0  0  0
 54 55  2  0  0  0
 54122  1  0  0  0
 55 57  1  0  0  0
 55123  1  0  0  0
 56 69  2  0  0  0
 57 58  2  0  0  0
 57124  1  0  0  0
 58125  1  0  0  0
 59 60  1  0  0  0
 59 61  1  0  0  0
 59 62  1  0  0  0
 60126  1  0  0  0
 60127  1  0  0  0
 60128  1  0  0  0
 61129  1  0  0  0
 61130  1  0  0  0
 61131  1  0  0  0
 62132  1  0  0  0
 62133  1  0  0  0
 62134  1  0  0  0
 63 65  1  0  0  0
 63135  1  0  0  0
 63136  1  0  0  0
 63137  1  0  0  0
 64138  1  0  0  0
 65139  1  0  0  0
 68 76  1  0  0  0
 71140  1  0  0  0
 71141  1  0  0  0
 71142  1  0  0  0
 71 76  1  0  0  0
 72 73  1  0  0  0
 72 74  1  0  0  0
 72143  1  0  0  0
 72144  1  0  0  0
 73 76  1  0  0  0
 73145  1  0  0  0
 73146  1  0  0  0
 74 77  1  0  0  0
 74147  1  0  0  0
 74148  1  0  0  0
 75 77  1  0  0  0
 75 78  1  0  0  0
 75149  1  0  0  0
 75150  1  0  0  0
 76151  1  0  0  0
 77 79  1  0  0  0
 77 80  1  0  0  0
 78152  1  0  0  0
M  ISO  4   1 100  68 101  76 101  78 100
M  END
> <chiral flag>
0

> <version>
0

> <s_m_source_file>
/data/baiqing/PycharmProjects/Reinvent-master-3.2/result/LINK_invent/BTK/process_docking_weight1_custom_sum_contain_oxygen_bond_distance_aromatic_linkinvent_7_9_3/rearranged_h_0104.sdf

> <i_m_source_file_index>
74

> <r_mmod_Potential_Energy-OPLS-2005>
336.045776367188

> <r_mmod_Stretch_Energy-OPLS-2005>
238.345596313477

> <r_mmod_Bend_Energy-OPLS-2005>
234.026901245117

> <r_mmod_Torsional_Energy-OPLS-2005>
208.335678100586

> <r_mmod_Improper_Torsional_Energy-OPLS-2005>
4.27690696716309

> <r_mmod_Van_der_Waal_Energy-OPLS-2005>
114.279182434082

> <r_mmod_Electrostatic_Energy-OPLS-2005>
-427.677490234375

> <r_mmod_Solvation_Energy-OPLS-2005>
-196.961181640625

> <b_mmod_Minimization_Converged-OPLS-2005>
0

> <r_mmod_RMS_Derivative-OPLS-2005>
0.363496124744415

$$$$
74
                    3D
 Structure written by MMmdl.
176184  0  0  1  0            999 V2000
  -30.6427  -14.6053   20.4433 C   0  0  0  0  0  0
  -30.4407  -12.3664   19.4258 C   0  0  0  0  0  0
  -29.5013  -12.4827   18.2077 C   0  0  0  0  0  0
  -28.0251  -12.3294   18.6299 C   0  0  0  0  0  0
  -27.6522  -13.2090   19.8511 C   0  0  2  0  0  0
  -28.7061  -13.0782   20.9734 C   0  0  0  0  0  0
  -25.2568  -13.8154   20.5681 C   0  0  0  0  0  0
  -24.1837  -13.0421   20.9197 C   0  0  0  0  0  0
  -24.6404  -11.6898   20.8751 C   0  0  0  0  0  0
  -23.9069  -10.4295   21.0405 C   0  0  0  0  0  0
  -24.3613   -9.4204   21.9187 C   0  0  0  0  0  0
  -23.6283   -8.2234   22.0751 C   0  0  0  0  0  0
  -22.4273   -8.0279   21.3527 C   0  0  0  0  0  0
  -21.9913   -9.0256   20.4643 C   0  0  0  0  0  0
  -22.7235  -10.2135   20.3057 C   0  0  0  0  0  0
  -21.6855   -6.0739   22.5273 C   0  0  0  0  0  0
  -21.4016   -6.5644   23.8210 C   0  0  0  0  0  0
  -21.3656   -5.6791   24.9177 C   0  0  0  0  0  0
  -21.6044   -4.3050   24.7222 C   0  0  0  0  0  0
  -21.8820   -3.8148   23.4339 C   0  0  0  0  0  0
  -21.9196   -4.6970   22.3399 C   0  0  0  0  0  0
  -22.7868  -13.5231   21.1864 C   0  0  0  0  0  0
  -22.1667   -4.2154   21.0966 F   0  0  0  0  0  0
  -21.5631   -3.4529   25.7733 F   0  0  0  0  0  0
  -30.0205  -13.3930   20.3899 N   0  0  0  0  0  0
  -26.2995  -12.9329   20.3296 N   0  0  0  0  0  0
  -25.9324  -11.6504   20.5744 N   0  0  0  0  0  0
  -22.0508  -12.8215   22.0419 N   0  0  0  0  0  0
  -25.4259  -15.1876   20.4074 N   0  0  0  0  0  0
  -31.8354  -14.7583   20.1805 O   0  0  0  0  0  0
  -21.6633   -6.8872   21.4225 O   0  0  0  0  0  0
  -22.3558  -14.5531   20.6707 O   0  0  0  0  0  0
  -24.6242  -31.8598   23.2055 C   0  0  0  0  0  0
  -25.9112  -32.4774   23.8359 C   0  0  1  0  0  0
  -27.2263  -27.3580   20.1060 C   0  0  0  0  0  0
  -25.5908  -33.8557   24.2276 N   0  0  0  0  0  0
  -23.4162  -30.4801   21.5504 C   0  0  2  0  0  0
  -24.8644  -28.9398   20.1114 C   0  0  0  0  0  0
  -22.7473  -29.4601   22.5025 C   0  0  0  0  0  0
  -18.0246  -28.1351   22.8482 C   0  0  0  0  0  0
  -24.1504  -36.7319   23.2635 C   0  0  0  0  0  0
  -25.9512  -30.8071   21.3670 C   0  0  0  0  0  0
  -26.0292  -29.4360   20.7096 C   0  0  0  0  0  0
  -27.2188  -28.6519   20.6984 C   0  0  0  0  0  0
  -26.0444  -26.9007   19.4885 C   0  0  0  0  0  0
  -24.8716  -27.6796   19.4929 C   0  0  0  0  0  0
  -23.6291  -29.8130   20.1661 C   0  0  0  0  0  0
  -25.4121  -36.3071   24.0317 C   0  0  1  0  0  0
  -20.5850  -28.3662   23.1308 C   0  0  2  0  0  0
  -20.6758  -26.9395   22.5408 C   0  0  0  0  0  0
  -19.5747  -26.6367   21.5184 C   0  0  0  0  0  0
  -18.1920  -26.7907   22.1595 C   0  0  0  0  0  0
  -19.1508  -28.8816   23.2878 C   0  0  0  0  0  0
  -18.9457  -30.1437   23.8878 C   0  0  0  0  0  0
  -17.6460  -30.6570   24.0537 C   0  0  0  0  0  0
  -25.9037  -34.9434   23.5103 C   0  0  0  0  0  0
  -16.5331  -29.9068   23.6314 C   0  0  0  0  0  0
  -16.7237  -28.6472   23.0337 C   0  0  0  0  0  0
  -26.4469  -31.6575   25.0710 C   0  0  0  0  0  0
  -25.3686  -31.3713   26.1414 C   0  0  0  0  0  0
  -27.0281  -30.2995   24.6146 C   0  0  0  0  0  0
  -27.6027  -32.4322   25.7492 C   0  0  0  0  0  0
  -27.5593  -37.1818   24.8448 C   0  0  0  0  0  0
  -21.4183  -29.3040   22.3758 N   0  0  0  0  0  0
  -26.4293  -37.3773   23.9388 N   0  0  0  0  0  0
  -24.6810  -31.0657   22.0981 N   0  0  0  0  0  0
  -23.4188  -28.8138   23.3104 O   0  0  0  0  0  0
  -28.3607  -26.5491   20.0969 O   0  0  0  0  0  0
  -26.5623  -34.8893   22.4674 O   0  0  0  0  0  0
  -23.5405  -32.1338   23.7423 O   0  0  0  0  0  0
  -28.6120  -21.3899   18.0004 C   0  0  0  0  0  0
  -28.9541  -20.3413   17.1347 C   0  0  0  0  0  0
  -29.7320  -19.2596   17.6304 C   0  0  0  0  0  0
  -29.0351  -21.3676   19.3343 C   0  0  0  0  0  0
  -30.0054  -19.2066   19.0347 C   0  0  0  0  0  0
  -28.4773  -20.4335   15.6899 C   0  0  0  0  0  0
  -32.7894  -18.9916   16.7075 C   0  0  0  0  0  0
  -28.8328  -25.1960   22.0037 C   0  0  0  0  0  0
  -30.3057  -18.2483   16.6241 C   0  0  0  0  0  0
  -28.6824  -22.5586   20.2690 C   0  0  0  0  0  0
  -30.7782  -18.0147   19.7011 C   0  0  0  0  0  0
  -28.8311  -24.0331   19.7029 C   0  0  0  0  0  0
  -30.0365  -17.1315   20.7788 C   0  0  0  0  0  0
  -31.8043  -18.1013   14.4967 C   0  0  0  0  0  0
  -31.5259  -18.8200   15.8422 C   0  0  2  0  0  0
  -28.2171  -25.1790   20.5979 C   0  0  2  0  0  0
  -29.6887  -20.2736   19.8423 N   0  0  0  0  0  0
  -29.8041  -15.6668   20.5670 N   0  0  0  0  0  0
  -32.4439  -16.7812   14.6434 N   0  3  0  0  0  0
  -31.4786  -12.4946   19.1167 H   0  0  0  0  0  0
  -30.3790  -11.3736   19.8755 H   0  0  0  0  0  0
  -29.7551  -11.7276   17.4629 H   0  0  0  0  0  0
  -29.6469  -13.4502   17.7225 H   0  0  0  0  0  0
  -27.8624  -11.2780   18.8723 H   0  0  0  0  0  0
  -27.3666  -12.5503   17.7902 H   0  0  0  0  0  0
  -27.6635  -14.2392   19.4940 H   0  0  0  0  0  0
  -28.7101  -12.0698   21.3869 H   0  0  0  0  0  0
  -28.4716  -13.7432   21.8056 H   0  0  0  0  0  0
  -25.2761   -9.5682   22.4765 H   0  0  0  0  0  0
  -24.0004   -7.4630   22.7475 H   0  0  0  0  0  0
  -21.0847   -8.8770   19.8951 H   0  0  0  0  0  0
  -22.3693  -10.9671   19.6174 H   0  0  0  0  0  0
  -21.2002   -7.6153   23.9711 H   0  0  0  0  0  0
  -21.1483   -6.0522   25.9072 H   0  0  0  0  0  0
  -22.0604   -2.7609   23.2835 H   0  0  0  0  0  0
  -22.4127  -11.9866   22.4792 H   0  0  0  0  0  0
  -21.1122  -13.1248   22.2623 H   0  0  0  0  0  0
  -24.6506  -15.8331   20.5066 H   0  0  0  0  0  0
  -26.2636  -15.6317   20.0545 H   0  0  0  0  0  0
  -26.7220  -32.5470   23.1149 H   0  0  0  0  0  0
  -24.9965  -33.9655   25.0369 H   0  0  0  0  0  0
  -22.7088  -31.3005   21.4129 H   0  0  0  0  0  0
  -23.3708  -35.9714   23.3271 H   0  0  0  0  0  0
  -24.3561  -36.8940   22.2050 H   0  0  0  0  0  0
  -23.7307  -37.6540   23.6676 H   0  0  0  0  0  0
  -26.0656  -31.5778   20.6035 H   0  0  0  0  0  0
  -26.8373  -30.8606   21.9898 H   0  0  0  0  0  0
  -28.1226  -29.0208   21.1641 H   0  0  0  0  0  0
  -26.0277  -25.9325   19.0082 H   0  0  0  0  0  0
  -23.9768  -27.2972   19.0228 H   0  0  0  0  0  0
  -23.7451  -30.5832   19.4052 H   0  0  0  0  0  0
  -22.7505  -29.2389   19.8701 H   0  0  0  0  0  0
  -25.1327  -36.1910   25.0815 H   0  0  0  0  0  0
  -20.9909  -28.3217   24.1437 H   0  0  0  0  0  0
  -20.5686  -26.2257   23.3608 H   0  0  0  0  0  0
  -21.6643  -26.7471   22.1209 H   0  0  0  0  0  0
  -19.6916  -25.6273   21.1237 H   0  0  0  0  0  0
  -19.6671  -27.3166   20.6704 H   0  0  0  0  0  0
  -17.4204  -26.6607   21.3986 H   0  0  0  0  0  0
  -18.0325  -26.0043   22.8993 H   0  0  0  0  0  0
  -19.7944  -30.7232   24.2263 H   0  0  0  0  0  0
  -17.5014  -31.6272   24.5137 H   0  0  0  0  0  0
  -15.5351  -30.2955   23.7708 H   0  0  0  0  0  0
  -15.8615  -28.0817   22.7060 H   0  0  0  0  0  0
  -24.5904  -30.6998   25.7754 H   0  0  0  0  0  0
  -24.8787  -32.2864   26.4782 H   0  0  0  0  0  0
  -25.7984  -30.8960   27.0230 H   0  0  0  0  0  0
  -26.2827  -29.6735   24.1226 H   0  0  0  0  0  0
  -27.3995  -29.7292   25.4658 H   0  0  0  0  0  0
  -27.8702  -30.4229   23.9299 H   0  0  0  0  0  0
  -27.2639  -33.3656   26.1989 H   0  0  0  0  0  0
  -28.3882  -32.6767   25.0328 H   0  0  0  0  0  0
  -28.0613  -31.8456   26.5455 H   0  0  0  0  0  0
  -28.2615  -38.0124   24.7516 H   0  0  0  0  0  0
  -28.1092  -36.2650   24.6281 H   0  0  0  0  0  0
  -27.2274  -37.1456   25.8837 H   0  0  0  0  0  0
  -20.9381  -29.8703   21.6913 H   0  0  0  0  0  0
  -26.0150  -38.2840   24.1392 H   0  0  0  0  0  0
  -28.0335  -22.2202   17.6238 H   0  0  0  0  0  0
  -27.7138  -21.2066   15.5910 H   0  0  0  0  0  0
  -28.0278  -19.4978   15.3560 H   0  0  0  0  0  0
  -29.2824  -20.6975   15.0068 H   0  0  0  0  0  0
  -32.6144  -19.7010   17.5186 H   0  0  0  0  0  0
  -33.6218  -19.3810   16.1164 H   0  0  0  0  0  0
  -33.1075  -18.0491   17.1522 H   0  0  0  0  0  0
  -28.7574  -24.2240   22.4897 H   0  0  0  0  0  0
  -28.3055  -25.8950   22.6515 H   0  0  0  0  0  0
  -29.8862  -25.4837   21.9764 H   0  0  0  0  0  0
  -29.5220  -17.9797   15.9205 H   0  0  0  0  0  0
  -30.5536  -17.2918   17.0776 H   0  0  0  0  0  0
  -29.2816  -22.4613   21.1742 H   0  0  0  0  0  0
  -27.6446  -22.4156   20.5830 H   0  0  0  0  0  0
  -31.6158  -18.4854   20.2151 H   0  0  0  0  0  0
  -31.2868  -17.3763   18.9888 H   0  0  0  0  0  0
  -29.8859  -24.2369   19.5218 H   0  0  0  0  0  0
  -28.3438  -24.0956   18.7297 H   0  0  0  0  0  0
  -29.0744  -17.5866   21.0106 H   0  0  0  0  0  0
  -30.6010  -17.2109   21.7069 H   0  0  0  0  0  0
  -32.4597  -18.7257   13.8826 H   0  0  0  0  0  0
  -30.8804  -17.9908   13.9263 H   0  0  0  0  0  0
  -31.2574  -19.8312   15.5358 H   0  0  0  0  0  0
  -27.1643  -24.9352   20.7411 H   0  0  0  0  0  0
  -28.8358  -15.3942   20.6495 H   0  0  0  0  0  0
  -33.3231  -16.8649   15.1203 H   0  0  0  0  0  0
  -32.6258  -16.3928   13.7340 H   0  0  0  0  0  0
  -31.8561  -16.1387   15.1399 H   0  0  0  0  0  0
  1 25  1  0  0  0
  1 30  2  0  0  0
  1 88  1  0  0  0
  2  3  1  0  0  0
  2 25  1  0  0  0
  2 90  1  0  0  0
  2 91  1  0  0  0
  3  4  1  0  0  0
  3 92  1  0  0  0
  3 93  1  0  0  0
  4  5  1  0  0  0
  4 94  1  0  0  0
  4 95  1  0  0  0
  5  6  1  0  0  0
  5 26  1  0  0  0
  5 96  1  0  0  0
  6 25  1  0  0  0
  6 97  1  0  0  0
  6 98  1  0  0  0
  7  8  2  0  0  0
  7 26  1  0  0  0
  7 29  1  0  0  0
  8  9  1  0  0  0
  8 22  1  0  0  0
  9 10  1  0  0  0
  9 27  2  0  0  0
 10 11  2  0  0  0
 10 15  1  0  0  0
 11 12  1  0  0  0
 11 99  1  0  0  0
 12 13  2  0  0  0
 12100  1  0  0  0
 13 14  1  0  0  0
 13 31  1  0  0  0
 14 15  2  0  0  0
 14101  1  0  0  0
 15102  1  0  0  0
 16 17  2  0  0  0
 16 21  1  0  0  0
 16 31  1  0  0  0
 17 18  1  0  0  0
 17103  1  0  0  0
 18 19  2  0  0  0
 18104  1  0  0  0
 19 20  1  0  0  0
 19 24  1  0  0  0
 20 21  2  0  0  0
 20105  1  0  0  0
 21 23  1  0  0  0
 22 28  1  0  0  0
 22 32  2  0  0  0
 26 27  1  0  0  0
 28106  1  0  0  0
 28107  1  0  0  0
 29108  1  0  0  0
 29109  1  0  0  0
 33 34  1  0  0  0
 33 66  1  0  0  0
 33 70  2  0  0  0
 34 36  1  0  0  0
 34 59  1  0  0  0
 34110  1  0  0  0
 35 44  2  0  0  0
 35 45  1  0  0  0
 35 68  1  0  0  0
 36 56  1  0  0  0
 36111  1  0  0  0
 37 39  1  0  0  0
 37 47  1  0  0  0
 37 66  1  0  0  0
 37112  1  0  0  0
 38 43  2  0  0  0
 38 46  1  0  0  0
 38 47  1  0  0  0
 39 64  1  0  0  0
 39 67  2  0  0  0
 40 52  1  0  0  0
 40 53  2  0  0  0
 40 58  1  0  0  0
 41113  1  0  0  0
 41114  1  0  0  0
 41115  1  0  0  0
 41 48  1  0  0  0
 42 43  1  0  0  0
 42 66  1  0  0  0
 42116  1  0  0  0
 42117  1  0  0  0
 43 44  1  0  0  0
 44118  1  0  0  0
 45 46  2  0  0  0
 45119  1  0  0  0
 46120  1  0  0  0
 47121  1  0  0  0
 47122  1  0  0  0
 48 56  1  0  0  0
 48 65  1  0  0  0
 48123  1  0  0  0
 49 50  1  0  0  0
 49 53  1  0  0  0
 49 64  1  0  0  0
 49124  1  0  0  0
 50 51  1  0  0  0
 50125  1  0  0  0
 50126  1  0  0  0
 51 52  1  0  0  0
 51127  1  0  0  0
 51128  1  0  0  0
 52129  1  0  0  0
 52130  1  0  0  0
 53 54  1  0  0  0
 54 55  2  0  0  0
 54131  1  0  0  0
 55 57  1  0  0  0
 55132  1  0  0  0
 56 69  2  0  0  0
 57 58  2  0  0  0
 57133  1  0  0  0
 58134  1  0  0  0
 59 60  1  0  0  0
 59 61  1  0  0  0
 59 62  1  0  0  0
 60135  1  0  0  0
 60136  1  0  0  0
 60137  1  0  0  0
 61138  1  0  0  0
 61139  1  0  0  0
 61140  1  0  0  0
 62141  1  0  0  0
 62142  1  0  0  0
 62143  1  0  0  0
 63 65  1  0  0  0
 63144  1  0  0  0
 63145  1  0  0  0
 63146  1  0  0  0
 64147  1  0  0  0
 65148  1  0  0  0
 68 86  1  0  0  0
 71 72  2  0  0  0
 71 74  1  0  0  0
 71149  1  0  0  0
 72 73  1  0  0  0
 72 76  1  0  0  0
 73 75  2  0  0  0
 73 79  1  0  0  0
 74 80  1  0  0  0
 74 87  2  0  0  0
 75 81  1  0  0  0
 75 87  1  0  0  0
 76150  1  0  0  0
 76151  1  0  0  0
 76152  1  0  0  0
 77153  1  0  0  0
 77154  1  0  0  0
 77155  1  0  0  0
 77 85  1  0  0  0
 78156  1  0  0  0
 78157  1  0  0  0
 78158  1  0  0  0
 78 86  1  0  0  0
 79 85  1  0  0  0
 79159  1  0  0  0
 79160  1  0  0  0
 80 82  1  0  0  0
 80161  1  0  0  0
 80162  1  0  0  0
 81 83  1  0  0  0
 81163  1  0  0  0
 81164  1  0  0  0
 82 86  1  0  0  0
 82165  1  0  0  0
 82166  1  0  0  0
 83 88  1  0  0  0
 83167  1  0  0  0
 83168  1  0  0  0
 84 85  1  0  0  0
 84 89  1  0  0  0
 84169  1  0  0  0
 84170  1  0  0  0
 85171  1  0  0  0
 86172  1  0  0  0
 88173  1  0  0  0
 89174  1  0  0  0
 89175  1  0  0  0
 89176  1  0  0  0
M  CHG  1  89   1
M  ISO  4   1 100  68 101  86 101  88 100
M  END
> <chiral flag>
0

> <version>
0

> <s_m_source_file>
/data/baiqing/PycharmProjects/Reinvent-master-3.2/result/LINK_invent/BTK/process_docking_weight1_custom_sum_contain_oxygen_bond_distance_aromatic_linkinvent_7_9_3/rearranged_h_0104.sdf

> <i_m_source_file_index>
75

> <r_mmod_Potential_Energy-OPLS-2005>
-354.746826171875

> <r_mmod_Stretch_Energy-OPLS-2005>
69.1215057373047

> <r_mmod_Bend_Energy-OPLS-2005>
143.363098144531

> <r_mmod_Torsional_Energy-OPLS-2005>
257.592193603516

> <r_mmod_Improper_Torsional_Energy-OPLS-2005>
6.23106384277344

> <r_mmod_Van_der_Waal_Energy-OPLS-2005>
143.324340820312

> <r_mmod_Electrostatic_Energy-OPLS-2005>
-505.536285400391

> <r_mmod_Solvation_Energy-OPLS-2005>
-508.097442626953

> <b_mmod_Minimization_Converged-OPLS-2005>
0

> <r_mmod_RMS_Derivative-OPLS-2005>
4.63062143325806

$$$$
75
                    3D
 Structure written by MMmdl.
163171  0  0  1  0            999 V2000
  -30.6238  -14.7245   20.4846 C   0  0  0  0  0  0
  -30.4328  -12.4514   19.4595 C   0  0  0  0  0  0
  -29.5080  -12.5148   18.2254 C   0  0  0  0  0  0
  -28.0340  -12.3358   18.6402 C   0  0  0  0  0  0
  -27.6427  -13.2275   19.8489 C   0  0  2  0  0  0
  -28.6898  -13.1503   20.9804 C   0  0  0  0  0  0
  -25.2526  -13.8183   20.5675 C   0  0  0  0  0  0
  -24.1815  -13.0440   20.9204 C   0  0  0  0  0  0
  -24.6399  -11.6914   20.8736 C   0  0  0  0  0  0
  -23.9062  -10.4301   21.0390 C   0  0  0  0  0  0
  -24.3611   -9.4219   21.9179 C   0  0  0  0  0  0
  -23.6297   -8.2245   22.0752 C   0  0  0  0  0  0
  -22.4280   -8.0274   21.3539 C   0  0  0  0  0  0
  -21.9909   -9.0246   20.4639 C   0  0  0  0  0  0
  -22.7226  -10.2137   20.3041 C   0  0  0  0  0  0
  -21.6861   -6.0732   22.5280 C   0  0  0  0  0  0
  -21.4017   -6.5638   23.8215 C   0  0  0  0  0  0
  -21.3661   -5.6795   24.9179 C   0  0  0  0  0  0
  -21.6044   -4.3056   24.7229 C   0  0  0  0  0  0
  -21.8821   -3.8141   23.4352 C   0  0  0  0  0  0
  -21.9195   -4.6957   22.3411 C   0  0  0  0  0  0
  -22.7839  -13.5220   21.1861 C   0  0  0  0  0  0
  -22.1656   -4.2144   21.0988 F   0  0  0  0  0  0
  -21.5630   -3.4540   25.7742 F   0  0  0  0  0  0
  -29.9872  -13.5078   20.3947 N   0  0  0  0  0  0
  -26.2946  -12.9372   20.3263 N   0  0  0  0  0  0
  -25.9329  -11.6519   20.5744 N   0  0  0  0  0  0
  -22.0479  -12.8227   22.0429 N   0  0  0  0  0  0
  -25.4220  -15.1902   20.4058 N   0  0  0  0  0  0
  -31.8176  -14.8169   20.1898 O   0  0  0  0  0  0
  -21.6638   -6.8872   21.4240 O   0  0  0  0  0  0
  -22.3532  -14.5523   20.6699 O   0  0  0  0  0  0
  -24.6300  -31.8558   23.1987 C   0  0  0  0  0  0
  -25.9119  -32.4767   23.8335 C   0  0  1  0  0  0
  -27.2238  -27.2690   20.1412 C   0  0  0  0  0  0
  -25.5911  -33.8570   24.2258 N   0  0  0  0  0  0
  -23.4275  -30.4778   21.5402 C   0  0  2  0  0  0
  -24.8771  -28.9226   20.1122 C   0  0  0  0  0  0
  -22.7504  -29.4611   22.4900 C   0  0  0  0  0  0
  -18.0289  -28.1405   22.8491 C   0  0  0  0  0  0
  -24.1476  -36.7289   23.2644 C   0  0  0  0  0  0
  -25.9724  -30.7730   21.3755 C   0  0  0  0  0  0
  -26.0474  -29.3945   20.7213 C   0  0  0  0  0  0
  -27.2263  -28.5807   20.7226 C   0  0  0  0  0  0
  -26.0354  -26.8649   19.4965 C   0  0  0  0  0  0
  -24.8754  -27.6659   19.4872 C   0  0  0  0  0  0
  -23.6471  -29.8097   20.1568 C   0  0  0  0  0  0
  -25.4105  -36.3081   24.0329 C   0  0  1  0  0  0
  -20.5901  -28.3712   23.1265 C   0  0  2  0  0  0
  -20.6773  -26.9425   22.5410 C   0  0  0  0  0  0
  -19.5748  -26.6386   21.5214 C   0  0  0  0  0  0
  -18.1931  -26.7940   22.1627 C   0  0  0  0  0  0
  -19.1548  -28.8866   23.2874 C   0  0  0  0  0  0
  -18.9472  -30.1465   23.8899 C   0  0  0  0  0  0
  -17.6477  -30.6600   24.0565 C   0  0  0  0  0  0
  -25.9049  -34.9451   23.5097 C   0  0  0  0  0  0
  -16.5363  -29.9110   23.6337 C   0  0  0  0  0  0
  -16.7277  -28.6524   23.0358 C   0  0  0  0  0  0
  -26.4479  -31.6603   25.0729 C   0  0  0  0  0  0
  -25.3705  -31.3768   26.1457 C   0  0  0  0  0  0
  -27.0331  -30.3026   24.6216 C   0  0  0  0  0  0
  -27.6031  -32.4345   25.7503 C   0  0  0  0  0  0
  -27.5571  -37.1801   24.8468 C   0  0  0  0  0  0
  -21.4206  -29.3058   22.3650 N   0  0  0  0  0  0
  -26.4283  -37.3777   23.9413 N   0  0  0  0  0  0
  -24.6958  -31.0530   22.0954 N   0  0  0  0  0  0
  -23.4205  -28.8152   23.2993 O   0  0  0  0  0  0
  -28.3160  -26.3722   20.1679 O   0  0  0  0  0  0
  -26.5628  -34.8926   22.4674 O   0  0  0  0  0  0
  -23.5448  -32.1364   23.7287 O   0  0  0  0  0  0
  -29.7814  -19.0463   19.1799 C   0  0  0  0  0  0
  -29.3803  -19.7760   21.2065 C   0  0  0  0  0  0
  -29.8072  -18.6245   20.5422 C   0  0  0  0  0  0
  -29.4083  -20.3754   19.0648 C   0  0  0  0  0  0
  -27.8533  -21.4990   17.4115 C   0  0  0  0  0  0
  -30.0416  -20.5616   16.6222 C   0  0  0  0  0  0
  -28.3132  -25.1363   22.2296 C   0  0  0  0  0  0
  -30.3428  -17.2453   21.1403 C   0  0  0  0  0  0
  -28.9021  -23.6911   20.1562 C   0  0  0  0  0  0
  -28.5451  -22.2321   20.7838 C   0  0  0  0  0  0
  -29.3077  -21.2045   17.8108 C   0  0  0  0  0  0
  -28.0938  -24.9873   20.7149 C   0  0  2  0  0  0
  -29.1309  -20.8784   20.3433 N   0  0  0  0  0  0
  -29.8668  -15.8559   20.7386 N   0  0  0  0  0  0
  -31.4726  -12.5815   19.1550 H   0  0  0  0  0  0
  -30.3782  -11.4707   19.9362 H   0  0  0  0  0  0
  -29.7910  -11.7513   17.4997 H   0  0  0  0  0  0
  -29.6336  -13.4755   17.7224 H   0  0  0  0  0  0
  -27.8911  -11.2844   18.8950 H   0  0  0  0  0  0
  -27.3751  -12.5345   17.7942 H   0  0  0  0  0  0
  -27.6395  -14.2525   19.4777 H   0  0  0  0  0  0
  -28.7290  -12.1475   21.4092 H   0  0  0  0  0  0
  -28.4285  -13.8218   21.7989 H   0  0  0  0  0  0
  -25.2753   -9.5698   22.4753 H   0  0  0  0  0  0
  -24.0011   -7.4633   22.7467 H   0  0  0  0  0  0
  -21.0834   -8.8754   19.8959 H   0  0  0  0  0  0
  -22.3661  -10.9669   19.6151 H   0  0  0  0  0  0
  -21.2009   -7.6148   23.9718 H   0  0  0  0  0  0
  -21.1478   -6.0524   25.9087 H   0  0  0  0  0  0
  -22.0598   -2.7597   23.2855 H   0  0  0  0  0  0
  -22.4078  -11.9884   22.4826 H   0  0  0  0  0  0
  -21.1088  -13.1250   22.2601 H   0  0  0  0  0  0
  -24.6550  -15.8447   20.5121 H   0  0  0  0  0  0
  -26.2658  -15.6279   20.0589 H   0  0  0  0  0  0
  -26.7198  -32.5421   23.1094 H   0  0  0  0  0  0
  -25.0034  -33.9705   25.0384 H   0  0  0  0  0  0
  -22.7256  -31.3007   21.3929 H   0  0  0  0  0  0
  -23.3739  -35.9622   23.3311 H   0  0  0  0  0  0
  -24.3563  -36.8905   22.2059 H   0  0  0  0  0  0
  -23.7228  -37.6490   23.6666 H   0  0  0  0  0  0
  -26.1058  -31.5315   20.6029 H   0  0  0  0  0  0
  -26.8523  -30.8276   22.0046 H   0  0  0  0  0  0
  -28.1235  -28.9373   21.2088 H   0  0  0  0  0  0
  -25.9912  -25.9031   19.0054 H   0  0  0  0  0  0
  -23.9815  -27.3016   19.0004 H   0  0  0  0  0  0
  -23.7760  -30.5860   19.4019 H   0  0  0  0  0  0
  -22.7652  -29.2444   19.8479 H   0  0  0  0  0  0
  -25.1288  -36.1926   25.0823 H   0  0  0  0  0  0
  -21.0000  -28.3286   24.1382 H   0  0  0  0  0  0
  -20.5661  -26.2322   23.3622 H   0  0  0  0  0  0
  -21.6642  -26.7439   22.1209 H   0  0  0  0  0  0
  -19.6911  -25.6290   21.1253 H   0  0  0  0  0  0
  -19.6688  -27.3184   20.6740 H   0  0  0  0  0  0
  -17.4202  -26.6687   21.4037 H   0  0  0  0  0  0
  -18.0338  -26.0087   22.9030 H   0  0  0  0  0  0
  -19.7951  -30.7273   24.2276 H   0  0  0  0  0  0
  -17.5037  -31.6283   24.5169 H   0  0  0  0  0  0
  -15.5367  -30.3020   23.7651 H   0  0  0  0  0  0
  -15.8672  -28.0838   22.7083 H   0  0  0  0  0  0
  -24.5867  -30.7129   25.7793 H   0  0  0  0  0  0
  -24.8911  -32.2948   26.4869 H   0  0  0  0  0  0
  -25.8014  -30.8953   27.0247 H   0  0  0  0  0  0
  -26.2930  -29.6781   24.1206 H   0  0  0  0  0  0
  -27.3983  -29.7277   25.4736 H   0  0  0  0  0  0
  -27.8810  -30.4309   23.9487 H   0  0  0  0  0  0
  -27.2643  -33.3659   26.2053 H   0  0  0  0  0  0
  -28.3858  -32.6885   25.0343 H   0  0  0  0  0  0
  -28.0685  -31.8492   26.5444 H   0  0  0  0  0  0
  -28.2597  -38.0090   24.7499 H   0  0  0  0  0  0
  -28.1052  -36.2619   24.6304 H   0  0  0  0  0  0
  -27.2291  -37.1468   25.8873 H   0  0  0  0  0  0
  -20.9391  -29.8789   21.6865 H   0  0  0  0  0  0
  -26.0157  -38.2849   24.1417 H   0  0  0  0  0  0
  -30.0662  -18.4244   18.3422 H   0  0  0  0  0  0
  -29.2411  -19.9192   22.2706 H   0  0  0  0  0  0
  -27.3065  -22.0113   18.2012 H   0  0  0  0  0  0
  -27.3154  -20.5785   17.1840 H   0  0  0  0  0  0
  -27.8129  -22.1325   16.5238 H   0  0  0  0  0  0
  -31.0812  -20.3466   16.8716 H   0  0  0  0  0  0
  -30.0480  -21.2271   15.7589 H   0  0  0  0  0  0
  -29.5682  -19.6286   16.3122 H   0  0  0  0  0  0
  -27.9800  -24.2539   22.7753 H   0  0  0  0  0  0
  -27.7539  -25.9819   22.6311 H   0  0  0  0  0  0
  -29.3661  -25.2943   22.4621 H   0  0  0  0  0  0
  -30.2052  -17.3029   22.2210 H   0  0  0  0  0  0
  -31.4255  -17.2715   21.0081 H   0  0  0  0  0  0
  -28.7231  -23.6710   19.0849 H   0  0  0  0  0  0
  -29.9712  -23.8665   20.2725 H   0  0  0  0  0  0
  -27.4623  -22.1185   20.7243 H   0  0  0  0  0  0
  -28.7503  -22.2994   21.8516 H   0  0  0  0  0  0
  -29.8201  -22.1492   17.9893 H   0  0  0  0  0  0
  -27.0422  -24.7333   20.5876 H   0  0  0  0  0  0
  -28.8788  -15.6917   20.8586 H   0  0  0  0  0  0
  1 25  1  0  0  0
  1 30  2  0  0  0
  1 84  1  0  0  0
  2  3  1  0  0  0
  2 25  1  0  0  0
  2 85  1  0  0  0
  2 86  1  0  0  0
  3  4  1  0  0  0
  3 87  1  0  0  0
  3 88  1  0  0  0
  4  5  1  0  0  0
  4 89  1  0  0  0
  4 90  1  0  0  0
  5  6  1  0  0  0
  5 26  1  0  0  0
  5 91  1  0  0  0
  6 25  1  0  0  0
  6 92  1  0  0  0
  6 93  1  0  0  0
  7  8  2  0  0  0
  7 26  1  0  0  0
  7 29  1  0  0  0
  8  9  1  0  0  0
  8 22  1  0  0  0
  9 10  1  0  0  0
  9 27  2  0  0  0
 10 11  2  0  0  0
 10 15  1  0  0  0
 11 12  1  0  0  0
 11 94  1  0  0  0
 12 13  2  0  0  0
 12 95  1  0  0  0
 13 14  1  0  0  0
 13 31  1  0  0  0
 14 15  2  0  0  0
 14 96  1  0  0  0
 15 97  1  0  0  0
 16 17  2  0  0  0
 16 21  1  0  0  0
 16 31  1  0  0  0
 17 18  1  0  0  0
 17 98  1  0  0  0
 18 19  2  0  0  0
 18 99  1  0  0  0
 19 20  1  0  0  0
 19 24  1  0  0  0
 20 21  2  0  0  0
 20100  1  0  0  0
 21 23  1  0  0  0
 22 28  1  0  0  0
 22 32  2  0  0  0
 26 27  1  0  0  0
 28101  1  0  0  0
 28102  1  0  0  0
 29103  1  0  0  0
 29104  1  0  0  0
 33 34  1  0  0  0
 33 66  1  0  0  0
 33 70  2  0  0  0
 34 36  1  0  0  0
 34 59  1  0  0  0
 34105  1  0  0  0
 35 44  2  0  0  0
 35 45  1  0  0  0
 35 68  1  0  0  0
 36 56  1  0  0  0
 36106  1  0  0  0
 37 39  1  0  0  0
 37 47  1  0  0  0
 37 66  1  0  0  0
 37107  1  0  0  0
 38 43  2  0  0  0
 38 46  1  0  0  0
 38 47  1  0  0  0
 39 64  1  0  0  0
 39 67  2  0  0  0
 40 52  1  0  0  0
 40 53  2  0  0  0
 40 58  1  0  0  0
 41108  1  0  0  0
 41109  1  0  0  0
 41110  1  0  0  0
 41 48  1  0  0  0
 42 43  1  0  0  0
 42 66  1  0  0  0
 42111  1  0  0  0
 42112  1  0  0  0
 43 44  1  0  0  0
 44113  1  0  0  0
 45 46  2  0  0  0
 45114  1  0  0  0
 46115  1  0  0  0
 47116  1  0  0  0
 47117  1  0  0  0
 48 56  1  0  0  0
 48 65  1  0  0  0
 48118  1  0  0  0
 49 50  1  0  0  0
 49 53  1  0  0  0
 49 64  1  0  0  0
 49119  1  0  0  0
 50 51  1  0  0  0
 50120  1  0  0  0
 50121  1  0  0  0
 51 52  1  0  0  0
 51122  1  0  0  0
 51123  1  0  0  0
 52124  1  0  0  0
 52125  1  0  0  0
 53 54  1  0  0  0
 54 55  2  0  0  0
 54126  1  0  0  0
 55 57  1  0  0  0
 55127  1  0  0  0
 56 69  2  0  0  0
 57 58  2  0  0  0
 57128  1  0  0  0
 58129  1  0  0  0
 59 60  1  0  0  0
 59 61  1  0  0  0
 59 62  1  0  0  0
 60130  1  0  0  0
 60131  1  0  0  0
 60132  1  0  0  0
 61133  1  0  0  0
 61134  1  0  0  0
 61135  1  0  0  0
 62136  1  0  0  0
 62137  1  0  0  0
 62138  1  0  0  0
 63 65  1  0  0  0
 63139  1  0  0  0
 63140  1  0  0  0
 63141  1  0  0  0
 64142  1  0  0  0
 65143  1  0  0  0
 68 82  1  0  0  0
 71 73  1  0  0  0
 71 74  2  0  0  0
 71144  1  0  0  0
 72 73  2  0  0  0
 72 83  1  0  0  0
 72145  1  0  0  0
 73 78  1  0  0  0
 74 81  1  0  0  0
 74 83  1  0  0  0
 75146  1  0  0  0
 75147  1  0  0  0
 75148  1  0  0  0
 75 81  1  0  0  0
 76 81  1  0  0  0
 76149  1  0  0  0
 76150  1  0  0  0
 76151  1  0  0  0
 77152  1  0  0  0
 77153  1  0  0  0
 77154  1  0  0  0
 77 82  1  0  0  0
 78 84  1  0  0  0
 78155  1  0  0  0
 78156  1  0  0  0
 79 80  1  0  0  0
 79 82  1  0  0  0
 79157  1  0  0  0
 79158  1  0  0  0
 80 83  1  0  0  0
 80159  1  0  0  0
 80160  1  0  0  0
 81161  1  0  0  0
 82162  1  0  0  0
 84163  1  0  0  0
M  ISO  4   1 100  68 101  82 101  84 100
M  END
> <chiral flag>
0

> <version>
0

> <s_m_source_file>
/data/baiqing/PycharmProjects/Reinvent-master-3.2/result/LINK_invent/BTK/process_docking_weight1_custom_sum_contain_oxygen_bond_distance_aromatic_linkinvent_7_9_3/rearranged_h_0104.sdf

> <i_m_source_file_index>
76

> <r_mmod_Potential_Energy-OPLS-2005>
84.6215133666992

> <r_mmod_Stretch_Energy-OPLS-2005>
118.524200439453

> <r_mmod_Bend_Energy-OPLS-2005>
182.439575195312

> <r_mmod_Torsional_Energy-OPLS-2005>
239.632461547852

> <r_mmod_Improper_Torsional_Energy-OPLS-2005>
5.18997383117676

> <r_mmod_Van_der_Waal_Energy-OPLS-2005>
114.480949401855

> <r_mmod_Electrostatic_Energy-OPLS-2005>
-447.856689453125

> <r_mmod_Solvation_Energy-OPLS-2005>
-206.896942138672

> <b_mmod_Minimization_Converged-OPLS-2005>
0

> <r_mmod_RMS_Derivative-OPLS-2005>
1.82527792453766

$$$$
76
                    3D
 Structure written by MMmdl.
168176  0  0  1  0            999 V2000
  -30.7259  -14.5599   20.5246 C   0  0  0  0  0  0
  -30.4179  -12.3589   19.4291 C   0  0  0  0  0  0
  -29.4849  -12.4808   18.2080 C   0  0  0  0  0  0
  -28.0153  -12.2931   18.6312 C   0  0  0  0  0  0
  -27.6410  -13.1669   19.8521 C   0  0  2  0  0  0
  -28.7018  -13.0518   20.9800 C   0  0  0  0  0  0
  -25.2543  -13.8026   20.5645 C   0  0  0  0  0  0
  -24.1793  -13.0365   20.9206 C   0  0  0  0  0  0
  -24.6318  -11.6824   20.8795 C   0  0  0  0  0  0
  -23.8993  -10.4244   21.0449 C   0  0  0  0  0  0
  -24.3568   -9.4163   21.9210 C   0  0  0  0  0  0
  -23.6257   -8.2200   22.0763 C   0  0  0  0  0  0
  -22.4247   -8.0248   21.3541 C   0  0  0  0  0  0
  -21.9871   -9.0219   20.4646 C   0  0  0  0  0  0
  -22.7188  -10.2102   20.3070 C   0  0  0  0  0  0
  -21.6835   -6.0718   22.5281 C   0  0  0  0  0  0
  -21.4002   -6.5628   23.8214 C   0  0  0  0  0  0
  -21.3657   -5.6784   24.9179 C   0  0  0  0  0  0
  -21.6042   -4.3049   24.7231 C   0  0  0  0  0  0
  -21.8824   -3.8139   23.4353 C   0  0  0  0  0  0
  -21.9188   -4.6949   22.3405 C   0  0  0  0  0  0
  -22.7833  -13.5207   21.1862 C   0  0  0  0  0  0
  -22.1660   -4.2135   21.0983 F   0  0  0  0  0  0
  -21.5631   -3.4535   25.7747 F   0  0  0  0  0  0
  -30.0115  -13.3925   20.4038 N   0  0  0  0  0  0
  -26.2919  -12.9100   20.3322 N   0  0  0  0  0  0
  -25.9222  -11.6318   20.5824 N   0  0  0  0  0  0
  -22.0458  -12.8218   22.0418 N   0  0  0  0  0  0
  -25.4234  -15.1741   20.3953 N   0  0  0  0  0  0
  -31.9008  -14.6034   20.1489 O   0  0  0  0  0  0
  -21.6615   -6.8850   21.4239 O   0  0  0  0  0  0
  -22.3547  -14.5529   20.6715 O   0  0  0  0  0  0
  -24.6143  -31.8691   23.2104 C   0  0  0  0  0  0
  -25.9042  -32.4828   23.8400 C   0  0  1  0  0  0
  -27.2325  -27.4309   20.0958 C   0  0  0  0  0  0
  -25.5897  -33.8627   24.2330 N   0  0  0  0  0  0
  -23.4022  -30.4930   21.5518 C   0  0  2  0  0  0
  -24.8479  -28.9608   20.1127 C   0  0  0  0  0  0
  -22.7416  -29.4654   22.4991 C   0  0  0  0  0  0
  -18.0275  -28.1368   22.8489 C   0  0  0  0  0  0
  -24.1486  -36.7325   23.2638 C   0  0  0  0  0  0
  -25.9310  -30.8332   21.3633 C   0  0  0  0  0  0
  -26.0092  -29.4688   20.7077 C   0  0  0  0  0  0
  -27.2037  -28.7127   20.6934 C   0  0  0  0  0  0
  -26.0512  -26.9431   19.4868 C   0  0  0  0  0  0
  -24.8646  -27.6981   19.4971 C   0  0  0  0  0  0
  -23.6104  -29.8281   20.1655 C   0  0  0  0  0  0
  -25.4107  -36.3118   24.0338 C   0  0  1  0  0  0
  -20.5863  -28.3656   23.1319 C   0  0  2  0  0  0
  -20.6763  -26.9393   22.5416 C   0  0  0  0  0  0
  -19.5745  -26.6377   21.5211 C   0  0  0  0  0  0
  -18.1923  -26.7919   22.1618 C   0  0  0  0  0  0
  -19.1521  -28.8832   23.2898 C   0  0  0  0  0  0
  -18.9455  -30.1439   23.8907 C   0  0  0  0  0  0
  -17.6454  -30.6577   24.0567 C   0  0  0  0  0  0
  -25.9033  -34.9483   23.5133 C   0  0  0  0  0  0
  -16.5348  -29.9078   23.6324 C   0  0  0  0  0  0
  -16.7264  -28.6495   23.0340 C   0  0  0  0  0  0
  -26.4466  -31.6608   25.0728 C   0  0  0  0  0  0
  -25.3728  -31.3723   26.1475 C   0  0  0  0  0  0
  -27.0296  -30.3056   24.6087 C   0  0  0  0  0  0
  -27.6040  -32.4329   25.7490 C   0  0  0  0  0  0
  -27.5584  -37.1814   24.8461 C   0  0  0  0  0  0
  -21.4147  -29.3028   22.3735 N   0  0  0  0  0  0
  -26.4302  -37.3794   23.9401 N   0  0  0  0  0  0
  -24.6678  -31.0786   22.1006 N   0  0  0  0  0  0
  -23.4195  -28.8190   23.3023 O   0  0  0  0  0  0
  -28.4018  -26.6929   20.1254 O   0  0  0  0  0  0
  -26.5597  -34.8933   22.4694 O   0  0  0  0  0  0
  -23.5340  -32.1440   23.7500 O   0  0  0  0  0  0
  -32.0048  -19.1192   20.5350 C   0  0  0  0  0  0
  -31.2286  -18.9161   22.9274 C   0  0  0  0  0  0
  -31.1777  -17.8740   20.1521 C   0  0  0  0  0  0
  -30.3812  -17.6771   22.5789 C   0  0  0  0  0  0
  -31.4310  -19.8932   21.7435 C   0  0  2  0  0  0
  -30.9434  -16.9098   21.3516 C   0  0  1  0  0  0
  -29.7935  -25.0938   22.1658 C   0  0  0  0  0  0
  -28.7766  -16.1201   20.5530 C   0  0  0  0  0  0
  -30.1831  -20.7668   21.4136 C   0  0  0  0  0  0
  -30.5177  -22.2250   20.9880 C   0  0  0  0  0  0
  -28.2624  -25.2598   20.1439 C   0  0  0  0  0  0
  -29.5022  -24.5469   20.7503 C   0  0  2  0  0  0
  -30.1261  -15.7151   20.9776 N   0  0  0  0  0  0
  -29.3049  -23.0625   20.7731 N   0  3  0  0  0  0
  -31.4569  -12.4548   19.1100 H   0  0  0  0  0  0
  -30.3415  -11.3659   19.8745 H   0  0  0  0  0  0
  -29.7516  -11.7378   17.4550 H   0  0  0  0  0  0
  -29.6141  -13.4562   17.7366 H   0  0  0  0  0  0
  -27.8686  -11.2398   18.8721 H   0  0  0  0  0  0
  -27.3505  -12.5087   17.7938 H   0  0  0  0  0  0
  -27.6175  -14.1651   19.4430 H   0  0  0  0  0  0
  -28.7243  -12.0317   21.3666 H   0  0  0  0  0  0
  -28.4638  -13.6712   21.8439 H   0  0  0  0  0  0
  -25.2713   -9.5648   22.4783 H   0  0  0  0  0  0
  -23.9971   -7.4586   22.7476 H   0  0  0  0  0  0
  -21.0807   -8.8731   19.8944 H   0  0  0  0  0  0
  -22.3653  -10.9645   19.6183 H   0  0  0  0  0  0
  -21.1991   -7.6139   23.9712 H   0  0  0  0  0  0
  -21.1475   -6.0518   25.9079 H   0  0  0  0  0  0
  -22.0608   -2.7600   23.2858 H   0  0  0  0  0  0
  -22.4054  -11.9860   22.4785 H   0  0  0  0  0  0
  -21.1090  -13.1269   22.2635 H   0  0  0  0  0  0
  -24.6576  -15.8297   20.5062 H   0  0  0  0  0  0
  -26.2738  -15.6099   20.0644 H   0  0  0  0  0  0
  -26.7121  -32.5533   23.1173 H   0  0  0  0  0  0
  -25.0044  -33.9793   25.0473 H   0  0  0  0  0  0
  -22.6909  -31.3103   21.4157 H   0  0  0  0  0  0
  -23.3743  -35.9662   23.3306 H   0  0  0  0  0  0
  -24.3593  -36.8933   22.2054 H   0  0  0  0  0  0
  -23.7245  -37.6535   23.6652 H   0  0  0  0  0  0
  -26.0415  -31.6002   20.5957 H   0  0  0  0  0  0
  -26.8197  -30.8867   21.9798 H   0  0  0  0  0  0
  -28.0992  -29.0999   21.1603 H   0  0  0  0  0  0
  -26.0270  -25.9827   18.9932 H   0  0  0  0  0  0
  -23.9724  -27.3057   19.0277 H   0  0  0  0  0  0
  -23.7172  -30.6044   19.4068 H   0  0  0  0  0  0
  -22.7332  -29.2494   19.8700 H   0  0  0  0  0  0
  -25.1277  -36.1999   25.0833 H   0  0  0  0  0  0
  -20.9955  -28.3223   24.1439 H   0  0  0  0  0  0
  -20.5689  -26.2260   23.3600 H   0  0  0  0  0  0
  -21.6631  -26.7454   22.1197 H   0  0  0  0  0  0
  -19.6922  -25.6297   21.1223 H   0  0  0  0  0  0
  -19.6687  -27.3204   20.6758 H   0  0  0  0  0  0
  -17.4194  -26.6674   21.4012 H   0  0  0  0  0  0
  -18.0318  -26.0055   22.9010 H   0  0  0  0  0  0
  -19.7936  -30.7237   24.2283 H   0  0  0  0  0  0
  -17.5020  -31.6268   24.5156 H   0  0  0  0  0  0
  -15.5350  -30.2980   23.7650 H   0  0  0  0  0  0
  -15.8665  -28.0829   22.7033 H   0  0  0  0  0  0
  -24.5899  -30.7066   25.7821 H   0  0  0  0  0  0
  -24.8915  -32.2881   26.4920 H   0  0  0  0  0  0
  -25.8075  -30.8902   27.0239 H   0  0  0  0  0  0
  -26.2833  -29.6826   24.1133 H   0  0  0  0  0  0
  -27.4070  -29.7286   25.4540 H   0  0  0  0  0  0
  -27.8667  -30.4388   23.9227 H   0  0  0  0  0  0
  -27.2654  -33.3629   26.2075 H   0  0  0  0  0  0
  -28.3838  -32.6893   25.0305 H   0  0  0  0  0  0
  -28.0708  -31.8444   26.5397 H   0  0  0  0  0  0
  -28.2591  -38.0124   24.7507 H   0  0  0  0  0  0
  -28.1089  -36.2646   24.6278 H   0  0  0  0  0  0
  -27.2300  -37.1448   25.8867 H   0  0  0  0  0  0
  -20.9316  -29.8774   21.6972 H   0  0  0  0  0  0
  -26.0195  -38.2874   24.1412 H   0  0  0  0  0  0
  -32.1011  -19.7828   19.6745 H   0  0  0  0  0  0
  -33.0191  -18.7970   20.7750 H   0  0  0  0  0  0
  -32.2070  -18.5775   23.2726 H   0  0  0  0  0  0
  -30.7875  -19.4407   23.7765 H   0  0  0  0  0  0
  -31.6891  -17.3424   19.3486 H   0  0  0  0  0  0
  -30.2356  -18.2137   19.7229 H   0  0  0  0  0  0
  -29.3572  -18.0139   22.4247 H   0  0  0  0  0  0
  -30.3458  -17.0090   23.4407 H   0  0  0  0  0  0
  -32.2081  -20.5872   22.0704 H   0  0  0  0  0  0
  -31.9284  -16.5590   21.6672 H   0  0  0  0  0  0
  -29.9222  -26.1769   22.1485 H   0  0  0  0  0  0
  -30.7061  -24.6812   22.5935 H   0  0  0  0  0  0
  -28.9763  -24.8796   22.8558 H   0  0  0  0  0  0
  -28.5635  -17.1800   20.6651 H   0  0  0  0  0  0
  -28.0030  -15.6275   21.1341 H   0  0  0  0  0  0
  -28.6537  -15.9401   19.4856 H   0  0  0  0  0  0
  -29.5529  -20.8210   22.3017 H   0  0  0  0  0  0
  -29.5710  -20.2807   20.6542 H   0  0  0  0  0  0
  -31.1186  -22.2292   20.0778 H   0  0  0  0  0  0
  -31.1371  -22.6729   21.7638 H   0  0  0  0  0  0
  -27.3854  -24.9786   20.7311 H   0  0  0  0  0  0
  -28.0965  -24.9083   19.1244 H   0  0  0  0  0  0
  -30.3548  -24.7688   20.1064 H   0  0  0  0  0  0
  -28.6296  -22.8381   21.4875 H   0  0  0  0  0  0
  -28.9043  -22.7774   19.8910 H   0  0  0  0  0  0
  1 25  1  0  0  0
  1 30  2  0  0  0
  1 83  1  0  0  0
  2  3  1  0  0  0
  2 25  1  0  0  0
  2 85  1  0  0  0
  2 86  1  0  0  0
  3  4  1  0  0  0
  3 87  1  0  0  0
  3 88  1  0  0  0
  4  5  1  0  0  0
  4 89  1  0  0  0
  4 90  1  0  0  0
  5  6  1  0  0  0
  5 26  1  0  0  0
  5 91  1  0  0  0
  6 25  1  0  0  0
  6 92  1  0  0  0
  6 93  1  0  0  0
  7  8  2  0  0  0
  7 26  1  0  0  0
  7 29  1  0  0  0
  8  9  1  0  0  0
  8 22  1  0  0  0
  9 10  1  0  0  0
  9 27  2  0  0  0
 10 11  2  0  0  0
 10 15  1  0  0  0
 11 12  1  0  0  0
 11 94  1  0  0  0
 12 13  2  0  0  0
 12 95  1  0  0  0
 13 14  1  0  0  0
 13 31  1  0  0  0
 14 15  2  0  0  0
 14 96  1  0  0  0
 15 97  1  0  0  0
 16 17  2  0  0  0
 16 21  1  0  0  0
 16 31  1  0  0  0
 17 18  1  0  0  0
 17 98  1  0  0  0
 18 19  2  0  0  0
 18 99  1  0  0  0
 19 20  1  0  0  0
 19 24  1  0  0  0
 20 21  2  0  0  0
 20100  1  0  0  0
 21 23  1  0  0  0
 22 28  1  0  0  0
 22 32  2  0  0  0
 26 27  1  0  0  0
 28101  1  0  0  0
 28102  1  0  0  0
 29103  1  0  0  0
 29104  1  0  0  0
 33 34  1  0  0  0
 33 66  1  0  0  0
 33 70  2  0  0  0
 34 36  1  0  0  0
 34 59  1  0  0  0
 34105  1  0  0  0
 35 44  2  0  0  0
 35 45  1  0  0  0
 35 68  1  0  0  0
 36 56  1  0  0  0
 36106  1  0  0  0
 37 39  1  0  0  0
 37 47  1  0  0  0
 37 66  1  0  0  0
 37107  1  0  0  0
 38 43  2  0  0  0
 38 46  1  0  0  0
 38 47  1  0  0  0
 39 64  1  0  0  0
 39 67  2  0  0  0
 40 52  1  0  0  0
 40 53  2  0  0  0
 40 58  1  0  0  0
 41108  1  0  0  0
 41109  1  0  0  0
 41110  1  0  0  0
 41 48  1  0  0  0
 42 43  1  0  0  0
 42 66  1  0  0  0
 42111  1  0  0  0
 42112  1  0  0  0
 43 44  1  0  0  0
 44113  1  0  0  0
 45 46  2  0  0  0
 45114  1  0  0  0
 46115  1  0  0  0
 47116  1  0  0  0
 47117  1  0  0  0
 48 56  1  0  0  0
 48 65  1  0  0  0
 48118  1  0  0  0
 49 50  1  0  0  0
 49 53  1  0  0  0
 49 64  1  0  0  0
 49119  1  0  0  0
 50 51  1  0  0  0
 50120  1  0  0  0
 50121  1  0  0  0
 51 52  1  0  0  0
 51122  1  0  0  0
 51123  1  0  0  0
 52124  1  0  0  0
 52125  1  0  0  0
 53 54  1  0  0  0
 54 55  2  0  0  0
 54126  1  0  0  0
 55 57  1  0  0  0
 55127  1  0  0  0
 56 69  2  0  0  0
 57 58  2  0  0  0
 57128  1  0  0  0
 58129  1  0  0  0
 59 60  1  0  0  0
 59 61  1  0  0  0
 59 62  1  0  0  0
 60130  1  0  0  0
 60131  1  0  0  0
 60132  1  0  0  0
 61133  1  0  0  0
 61134  1  0  0  0
 61135  1  0  0  0
 62136  1  0  0  0
 62137  1  0  0  0
 62138  1  0  0  0
 63 65  1  0  0  0
 63139  1  0  0  0
 63140  1  0  0  0
 63141  1  0  0  0
 64142  1  0  0  0
 65143  1  0  0  0
 68 81  1  0  0  0
 71 73  1  0  0  0
 71 75  1  0  0  0
 71144  1  0  0  0
 71145  1  0  0  0
 72 74  1  0  0  0
 72 75  1  0  0  0
 72146  1  0  0  0
 72147  1  0  0  0
 73 76  1  0  0  0
 73148  1  0  0  0
 73149  1  0  0  0
 74 76  1  0  0  0
 74150  1  0  0  0
 74151  1  0  0  0
 75 79  1  0  0  0
 75152  1  0  0  0
 76 83  1  0  0  0
 76153  1  0  0  0
 77154  1  0  0  0
 77155  1  0  0  0
 77156  1  0  0  0
 77 82  1  0  0  0
 78 83  1  0  0  0
 78157  1  0  0  0
 78158  1  0  0  0
 78159  1  0  0  0
 79 80  1  0  0  0
 79160  1  0  0  0
 79161  1  0  0  0
 80 84  1  0  0  0
 80162  1  0  0  0
 80163  1  0  0  0
 81 82  1  0  0  0
 81164  1  0  0  0
 81165  1  0  0  0
 82 84  1  0  0  0
 82166  1  0  0  0
 84167  1  0  0  0
 84168  1  0  0  0
M  CHG  1  84   1
M  ISO  4   1 100  68 101  81 101  83 100
M  END
> <chiral flag>
0

> <version>
0

> <s_m_source_file>
/data/baiqing/PycharmProjects/Reinvent-master-3.2/result/LINK_invent/BTK/process_docking_weight1_custom_sum_contain_oxygen_bond_distance_aromatic_linkinvent_7_9_3/rearranged_h_0104.sdf

> <i_m_source_file_index>
77

> <r_mmod_Potential_Energy-OPLS-2005>
100.028282165527

> <r_mmod_Stretch_Energy-OPLS-2005>
47.347770690918

> <r_mmod_Bend_Energy-OPLS-2005>
120.677124023438

> <r_mmod_Torsional_Energy-OPLS-2005>
317.803039550781

> <r_mmod_Improper_Torsional_Energy-OPLS-2005>
4.10241317749023

> <r_mmod_Van_der_Waal_Energy-OPLS-2005>
157.220230102539

> <r_mmod_Electrostatic_Energy-OPLS-2005>
-144.276733398438

> <r_mmod_Solvation_Energy-OPLS-2005>
-428.828155517578

> <b_mmod_Minimization_Converged-OPLS-2005>
0

> <r_mmod_RMS_Derivative-OPLS-2005>
1.27367961406708

$$$$
77
                    3D
 Structure written by MMmdl.
158166  0  0  1  0            999 V2000
  -30.4717  -15.2039   20.3784 C   0  0  0  0  0  0
  -30.4376  -12.7673   19.5187 C   0  0  0  0  0  0
  -29.5303  -12.5662   18.2801 C   0  0  0  0  0  0
  -28.0769  -12.3014   18.7091 C   0  0  0  0  0  0
  -27.6142  -13.2714   19.8253 C   0  0  2  0  0  0
  -28.6511  -13.4251   20.9586 C   0  0  0  0  0  0
  -25.2398  -13.8245   20.5745 C   0  0  0  0  0  0
  -24.1745  -13.0439   20.9253 C   0  0  0  0  0  0
  -24.6395  -11.6935   20.8763 C   0  0  0  0  0  0
  -23.9090  -10.4295   21.0407 C   0  0  0  0  0  0
  -24.3633   -9.4207   21.9186 C   0  0  0  0  0  0
  -23.6301   -8.2246   22.0755 C   0  0  0  0  0  0
  -22.4284   -8.0286   21.3543 C   0  0  0  0  0  0
  -21.9924   -9.0262   20.4645 C   0  0  0  0  0  0
  -22.7260  -10.2138   20.3056 C   0  0  0  0  0  0
  -21.6857   -6.0739   22.5278 C   0  0  0  0  0  0
  -21.4016   -6.5639   23.8213 C   0  0  0  0  0  0
  -21.3660   -5.6790   24.9174 C   0  0  0  0  0  0
  -21.6046   -4.3053   24.7224 C   0  0  0  0  0  0
  -21.8819   -3.8146   23.4343 C   0  0  0  0  0  0
  -21.9194   -4.6965   22.3400 C   0  0  0  0  0  0
  -22.7763  -13.5197   21.1901 C   0  0  0  0  0  0
  -22.1663   -4.2150   21.0976 F   0  0  0  0  0  0
  -21.5629   -3.4535   25.7735 F   0  0  0  0  0  0
  -29.8906  -13.9107   20.3324 N   0  0  0  0  0  0
  -26.2827  -12.9514   20.3230 N   0  0  0  0  0  0
  -25.9333  -11.6622   20.5732 N   0  0  0  0  0  0
  -22.0415  -12.8180   22.0451 N   0  0  0  0  0  0
  -25.4028  -15.1979   20.4176 N   0  0  0  0  0  0
  -31.6917  -15.2006   20.1657 O   0  0  0  0  0  0
  -21.6644   -6.8885   21.4242 O   0  0  0  0  0  0
  -22.3447  -14.5503   20.6749 O   0  0  0  0  0  0
  -24.6607  -31.8278   23.1744 C   0  0  0  0  0  0
  -25.9304  -32.4611   23.8194 C   0  0  1  0  0  0
  -27.2146  -26.9596   20.1736 C   0  0  0  0  0  0
  -25.5984  -33.8424   24.2098 N   0  0  0  0  0  0
  -23.4739  -30.4420   21.5235 C   0  0  2  0  0  0
  -24.9271  -28.8410   20.1110 C   0  0  0  0  0  0
  -22.7663  -29.4460   22.4791 C   0  0  0  0  0  0
  -18.0325  -28.1410   22.8465 C   0  0  0  0  0  0
  -24.1494  -36.7212   23.2645 C   0  0  0  0  0  0
  -26.0428  -30.6436   21.4025 C   0  0  0  0  0  0
  -26.1116  -29.2381   20.7445 C   0  0  0  0  0  0
  -27.2518  -28.3176   20.7547 C   0  0  0  0  0  0
  -26.0016  -26.7165   19.4866 C   0  0  0  0  0  0
  -24.8961  -27.5993   19.4622 C   0  0  0  0  0  0
  -23.7124  -29.7644   20.1477 C   0  0  0  0  0  0
  -25.4132  -36.2977   24.0300 C   0  0  1  0  0  0
  -20.5948  -28.3753   23.1188 C   0  0  2  0  0  0
  -20.6803  -26.9437   22.5398 C   0  0  0  0  0  0
  -19.5775  -26.6380   21.5212 C   0  0  0  0  0  0
  -18.1956  -26.7944   22.1619 C   0  0  0  0  0  0
  -19.1586  -28.8901   23.2813 C   0  0  0  0  0  0
  -18.9499  -30.1490   23.8849 C   0  0  0  0  0  0
  -17.6493  -30.6598   24.0555 C   0  0  0  0  0  0
  -25.9100  -34.9361   23.5016 C   0  0  0  0  0  0
  -16.5381  -29.9087   23.6345 C   0  0  0  0  0  0
  -16.7307  -28.6508   23.0360 C   0  0  0  0  0  0
  -26.4560  -31.6544   25.0712 C   0  0  0  0  0  0
  -25.3688  -31.3786   26.1367 C   0  0  0  0  0  0
  -27.0460  -30.2916   24.6432 C   0  0  0  0  0  0
  -27.6053  -32.4353   25.7514 C   0  0  0  0  0  0
  -27.5571  -37.1759   24.8464 C   0  0  0  0  0  0
  -21.4335  -29.3048   22.3544 N   0  0  0  0  0  0
  -26.4279  -37.3711   23.9411 N   0  0  0  0  0  0
  -24.7469  -30.9971   22.0869 N   0  0  0  0  0  0
  -23.4223  -28.8021   23.3015 O   0  0  0  0  0  0
  -28.1944  -25.8415   20.2590 O   0  0  0  0  0  0
  -26.5704  -34.8892   22.4610 O   0  0  0  0  0  0
  -23.5682  -32.1240   23.6850 O   0  0  0  0  0  0
  -28.1274  -20.0618   19.9064 C   0  0  0  0  0  0
  -27.6606  -21.4678   19.8249 C   0  0  0  0  0  0
  -28.4335  -22.6710   20.1811 C   0  0  0  0  0  0
  -29.4186  -19.6302   20.3610 C   0  0  0  0  0  0
  -29.7169  -22.1458   20.6284 C   0  0  0  0  0  0
  -30.7787  -23.1271   21.0782 C   0  0  0  0  0  0
  -25.1989  -20.9291   20.1822 C   0  0  0  0  0  0
  -26.1257  -21.1837   17.8258 C   0  0  0  0  0  0
  -27.7734  -24.2870   20.0209 C   0  0  0  0  0  0
  -30.1696  -18.0603   20.3680 C   0  0  0  0  0  0
  -26.2334  -21.6359   19.2905 C   0  0  0  0  0  0
  -30.1432  -20.7823   20.6992 N   0  0  0  0  0  0
  -29.7330  -16.4745   20.4572 N   0  0  0  0  0  0
  -31.4592  -12.9594   19.1880 H   0  0  0  0  0  0
  -30.4901  -11.8550   20.1149 H   0  0  0  0  0  0
  -29.8979  -11.7426   17.6667 H   0  0  0  0  0  0
  -29.5687  -13.4582   17.6528 H   0  0  0  0  0  0
  -28.0248  -11.2746   19.0730 H   0  0  0  0  0  0
  -27.4072  -12.3563   17.8500 H   0  0  0  0  0  0
  -27.5365  -14.2438   19.3376 H   0  0  0  0  0  0
  -28.8043  -12.4854   21.4913 H   0  0  0  0  0  0
  -28.3038  -14.1498   21.6966 H   0  0  0  0  0  0
  -25.2774   -9.5686   22.4770 H   0  0  0  0  0  0
  -24.0006   -7.4638   22.7479 H   0  0  0  0  0  0
  -21.0854   -8.8790   19.8951 H   0  0  0  0  0  0
  -22.3718  -10.9683   19.6171 H   0  0  0  0  0  0
  -21.2009   -7.6146   23.9719 H   0  0  0  0  0  0
  -21.1483   -6.0516   25.9078 H   0  0  0  0  0  0
  -22.0597   -2.7607   23.2841 H   0  0  0  0  0  0
  -22.4035  -11.9837   22.4827 H   0  0  0  0  0  0
  -21.1036  -13.1205   22.2669 H   0  0  0  0  0  0
  -24.6299  -15.8453   20.5282 H   0  0  0  0  0  0
  -26.2416  -15.6403   20.0667 H   0  0  0  0  0  0
  -26.7373  -32.5159   23.0908 H   0  0  0  0  0  0
  -25.0087  -33.9511   25.0217 H   0  0  0  0  0  0
  -22.7851  -31.2728   21.3567 H   0  0  0  0  0  0
  -23.3773  -35.9527   23.3279 H   0  0  0  0  0  0
  -24.3567  -36.8890   22.2065 H   0  0  0  0  0  0
  -23.7240  -37.6385   23.6722 H   0  0  0  0  0  0
  -26.2214  -31.3879   20.6255 H   0  0  0  0  0  0
  -26.9030  -30.6967   22.0577 H   0  0  0  0  0  0
  -28.1456  -28.6169   21.2842 H   0  0  0  0  0  0
  -25.8561  -25.7742   18.9820 H   0  0  0  0  0  0
  -23.9969  -27.2897   18.9471 H   0  0  0  0  0  0
  -23.8663  -30.5360   19.3926 H   0  0  0  0  0  0
  -22.8225  -29.2187   19.8286 H   0  0  0  0  0  0
  -25.1328  -36.1772   25.0790 H   0  0  0  0  0  0
  -21.0030  -28.3361   24.1314 H   0  0  0  0  0  0
  -20.5692  -26.2371   23.3636 H   0  0  0  0  0  0
  -21.6666  -26.7421   22.1197 H   0  0  0  0  0  0
  -19.6937  -25.6279   21.1271 H   0  0  0  0  0  0
  -19.6715  -27.3166   20.6721 H   0  0  0  0  0  0
  -17.4226  -26.6693   21.4021 H   0  0  0  0  0  0
  -18.0343  -26.0095   22.9021 H   0  0  0  0  0  0
  -19.7975  -30.7316   24.2196 H   0  0  0  0  0  0
  -17.5047  -31.6272   24.5171 H   0  0  0  0  0  0
  -15.5379  -30.2972   23.7700 H   0  0  0  0  0  0
  -15.8707  -28.0812   22.7099 H   0  0  0  0  0  0
  -24.5896  -30.7108   25.7673 H   0  0  0  0  0  0
  -24.8843  -32.2982   26.4661 H   0  0  0  0  0  0
  -25.7919  -30.9045   27.0232 H   0  0  0  0  0  0
  -26.3128  -29.6592   24.1414 H   0  0  0  0  0  0
  -27.3976  -29.7278   25.5081 H   0  0  0  0  0  0
  -27.9074  -30.4107   23.9858 H   0  0  0  0  0  0
  -27.2629  -33.3707   26.1954 H   0  0  0  0  0  0
  -28.3934  -32.6828   25.0390 H   0  0  0  0  0  0
  -28.0642  -31.8570   26.5544 H   0  0  0  0  0  0
  -28.2559  -38.0081   24.7521 H   0  0  0  0  0  0
  -28.1096  -36.2607   24.6280 H   0  0  0  0  0  0
  -27.2286  -37.1383   25.8865 H   0  0  0  0  0  0
  -20.9588  -29.8747   21.6682 H   0  0  0  0  0  0
  -26.0129  -38.2767   24.1433 H   0  0  0  0  0  0
  -27.4600  -19.2782   19.5762 H   0  0  0  0  0  0
  -30.4190  -24.1551   21.0416 H   0  0  0  0  0  0
  -31.6582  -23.0568   20.4381 H   0  0  0  0  0  0
  -31.0825  -22.9152   22.1035 H   0  0  0  0  0  0
  -25.2567  -21.2948   21.2078 H   0  0  0  0  0  0
  -25.3418  -19.8491   20.2064 H   0  0  0  0  0  0
  -24.1854  -21.1147   19.8258 H   0  0  0  0  0  0
  -26.8216  -21.7396   17.1968 H   0  0  0  0  0  0
  -25.1225  -21.3554   17.4353 H   0  0  0  0  0  0
  -26.3464  -20.1232   17.7069 H   0  0  0  0  0  0
  -26.8462  -24.2182   20.5905 H   0  0  0  0  0  0
  -27.4794  -24.2937   18.9715 H   0  0  0  0  0  0
  -30.8973  -18.1482   21.1749 H   0  0  0  0  0  0
  -30.7840  -18.0901   19.4679 H   0  0  0  0  0  0
  -25.9473  -22.6828   19.2953 H   0  0  0  0  0  0
  -28.7395  -16.3504   20.5783 H   0  0  0  0  0  0
  1 25  1  0  0  0
  1 30  2  0  0  0
  1 83  1  0  0  0
  2  3  1  0  0  0
  2 25  1  0  0  0
  2 84  1  0  0  0
  2 85  1  0  0  0
  3  4  1  0  0  0
  3 86  1  0  0  0
  3 87  1  0  0  0
  4  5  1  0  0  0
  4 88  1  0  0  0
  4 89  1  0  0  0
  5  6  1  0  0  0
  5 26  1  0  0  0
  5 90  1  0  0  0
  6 25  1  0  0  0
  6 91  1  0  0  0
  6 92  1  0  0  0
  7  8  2  0  0  0
  7 26  1  0  0  0
  7 29  1  0  0  0
  8  9  1  0  0  0
  8 22  1  0  0  0
  9 10  1  0  0  0
  9 27  2  0  0  0
 10 11  2  0  0  0
 10 15  1  0  0  0
 11 12  1  0  0  0
 11 93  1  0  0  0
 12 13  2  0  0  0
 12 94  1  0  0  0
 13 14  1  0  0  0
 13 31  1  0  0  0
 14 15  2  0  0  0
 14 95  1  0  0  0
 15 96  1  0  0  0
 16 17  2  0  0  0
 16 21  1  0  0  0
 16 31  1  0  0  0
 17 18  1  0  0  0
 17 97  1  0  0  0
 18 19  2  0  0  0
 18 98  1  0  0  0
 19 20  1  0  0  0
 19 24  1  0  0  0
 20 21  2  0  0  0
 20 99  1  0  0  0
 21 23  1  0  0  0
 22 28  1  0  0  0
 22 32  2  0  0  0
 26 27  1  0  0  0
 28100  1  0  0  0
 28101  1  0  0  0
 29102  1  0  0  0
 29103  1  0  0  0
 33 34  1  0  0  0
 33 66  1  0  0  0
 33 70  2  0  0  0
 34 36  1  0  0  0
 34 59  1  0  0  0
 34104  1  0  0  0
 35 44  2  0  0  0
 35 45  1  0  0  0
 35 68  1  0  0  0
 36 56  1  0  0  0
 36105  1  0  0  0
 37 39  1  0  0  0
 37 47  1  0  0  0
 37 66  1  0  0  0
 37106  1  0  0  0
 38 43  2  0  0  0
 38 46  1  0  0  0
 38 47  1  0  0  0
 39 64  1  0  0  0
 39 67  2  0  0  0
 40 52  1  0  0  0
 40 53  2  0  0  0
 40 58  1  0  0  0
 41107  1  0  0  0
 41108  1  0  0  0
 41109  1  0  0  0
 41 48  1  0  0  0
 42 43  1  0  0  0
 42 66  1  0  0  0
 42110  1  0  0  0
 42111  1  0  0  0
 43 44  1  0  0  0
 44112  1  0  0  0
 45 46  2  0  0  0
 45113  1  0  0  0
 46114  1  0  0  0
 47115  1  0  0  0
 47116  1  0  0  0
 48 56  1  0  0  0
 48 65  1  0  0  0
 48117  1  0  0  0
 49 50  1  0  0  0
 49 53  1  0  0  0
 49 64  1  0  0  0
 49118  1  0  0  0
 50 51  1  0  0  0
 50119  1  0  0  0
 50120  1  0  0  0
 51 52  1  0  0  0
 51121  1  0  0  0
 51122  1  0  0  0
 52123  1  0  0  0
 52124  1  0  0  0
 53 54  1  0  0  0
 54 55  2  0  0  0
 54125  1  0  0  0
 55 57  1  0  0  0
 55126  1  0  0  0
 56 69  2  0  0  0
 57 58  2  0  0  0
 57127  1  0  0  0
 58128  1  0  0  0
 59 60  1  0  0  0
 59 61  1  0  0  0
 59 62  1  0  0  0
 60129  1  0  0  0
 60130  1  0  0  0
 60131  1  0  0  0
 61132  1  0  0  0
 61133  1  0  0  0
 61134  1  0  0  0
 62135  1  0  0  0
 62136  1  0  0  0
 62137  1  0  0  0
 63 65  1  0  0  0
 63138  1  0  0  0
 63139  1  0  0  0
 63140  1  0  0  0
 64141  1  0  0  0
 65142  1  0  0  0
 68 79  1  0  0  0
 71 72  2  0  0  0
 71 74  1  0  0  0
 71143  1  0  0  0
 72 73  1  0  0  0
 72 81  1  0  0  0
 73 75  2  0  0  0
 73 79  1  0  0  0
 74 80  1  0  0  0
 74 82  2  0  0  0
 75 76  1  0  0  0
 75 82  1  0  0  0
 76144  1  0  0  0
 76145  1  0  0  0
 76146  1  0  0  0
 77147  1  0  0  0
 77148  1  0  0  0
 77149  1  0  0  0
 77 81  1  0  0  0
 78 81  1  0  0  0
 78150  1  0  0  0
 78151  1  0  0  0
 78152  1  0  0  0
 79153  1  0  0  0
 79154  1  0  0  0
 80 83  1  0  0  0
 80155  1  0  0  0
 80156  1  0  0  0
 81157  1  0  0  0
 83158  1  0  0  0
M  ISO  4   1 100  68 101  79 101  83 100
M  END
> <chiral flag>
0

> <version>
0

> <s_m_source_file>
/data/baiqing/PycharmProjects/Reinvent-master-3.2/result/LINK_invent/BTK/process_docking_weight1_custom_sum_contain_oxygen_bond_distance_aromatic_linkinvent_7_9_3/rearranged_h_0104.sdf

> <i_m_source_file_index>
78

> <r_mmod_Potential_Energy-OPLS-2005>
833.48876953125

> <r_mmod_Stretch_Energy-OPLS-2005>
468.724578857422

> <r_mmod_Bend_Energy-OPLS-2005>
449.875183105469

> <r_mmod_Torsional_Energy-OPLS-2005>
210.068771362305

> <r_mmod_Improper_Torsional_Energy-OPLS-2005>
4.52558088302612

> <r_mmod_Van_der_Waal_Energy-OPLS-2005>
136.437881469727

> <r_mmod_Electrostatic_Energy-OPLS-2005>
-615.996154785156

> <r_mmod_Solvation_Energy-OPLS-2005>
-228.18180847168

> <b_mmod_Minimization_Converged-OPLS-2005>
0

> <r_mmod_RMS_Derivative-OPLS-2005>
0.520694375038147

$$$$
78
                    3D
 Structure written by MMmdl.
146153  0  0  1  0            999 V2000
  -30.1594  -16.0066   20.2966 C   0  0  0  0  0  0
  -30.3938  -13.3595   19.5608 C   0  0  0  0  0  0
  -29.5670  -12.7633   18.3719 C   0  0  0  0  0  0
  -28.1713  -12.3208   18.8268 C   0  0  0  0  0  0
  -27.5869  -13.3480   19.8169 C   0  0  2  0  0  0
  -28.5711  -13.8276   20.9221 C   0  0  0  0  0  0
  -25.2262  -13.8335   20.5850 C   0  0  0  0  0  0
  -24.1683  -13.0437   20.9294 C   0  0  0  0  0  0
  -24.6443  -11.6961   20.8741 C   0  0  0  0  0  0
  -23.9154  -10.4287   21.0361 C   0  0  0  0  0  0
  -24.3684   -9.4202   21.9156 C   0  0  0  0  0  0
  -23.6326   -8.2254   22.0761 C   0  0  0  0  0  0
  -22.4310   -8.0293   21.3553 C   0  0  0  0  0  0
  -21.9947   -9.0269   20.4652 C   0  0  0  0  0  0
  -22.7304  -10.2132   20.3025 C   0  0  0  0  0  0
  -21.6865   -6.0738   22.5271 C   0  0  0  0  0  0
  -21.4018   -6.5638   23.8202 C   0  0  0  0  0  0
  -21.3674   -5.6795   24.9164 C   0  0  0  0  0  0
  -21.6050   -4.3052   24.7210 C   0  0  0  0  0  0
  -21.8815   -3.8146   23.4335 C   0  0  0  0  0  0
  -21.9197   -4.6966   22.3389 C   0  0  0  0  0  0
  -22.7684  -13.5145   21.1885 C   0  0  0  0  0  0
  -22.1661   -4.2146   21.0965 F   0  0  0  0  0  0
  -21.5633   -3.4539   25.7726 F   0  0  0  0  0  0
  -29.6906  -14.5697   20.2584 N   0  0  0  0  0  0
  -26.2757  -12.9748   20.3298 N   0  0  0  0  0  0
  -25.9409  -11.6779   20.5687 N   0  0  0  0  0  0
  -22.0348  -12.8148   22.0448 N   0  0  0  0  0  0
  -25.3832  -15.2072   20.4298 N   0  0  0  0  0  0
  -31.3936  -15.8901   20.1029 O   0  0  0  0  0  0
  -21.6661   -6.8888   21.4242 O   0  0  0  0  0  0
  -22.3354  -14.5428   20.6691 O   0  0  0  0  0  0
  -24.7071  -31.7703   23.1293 C   0  0  0  0  0  0
  -25.9524  -32.4329   23.7943 C   0  0  1  0  0  0
  -27.2513  -26.4466   20.2363 C   0  0  0  0  0  0
  -25.5990  -33.8170   24.1804 N   0  0  0  0  0  0
  -23.5467  -30.3590   21.4880 C   0  0  2  0  0  0
  -25.0115  -28.6445   20.1240 C   0  0  0  0  0  0
  -22.7869  -29.4159   22.4625 C   0  0  0  0  0  0
  -18.0352  -28.1442   22.8451 C   0  0  0  0  0  0
  -24.1491  -36.7079   23.2661 C   0  0  0  0  0  0
  -26.1373  -30.4167   21.4368 C   0  0  0  0  0  0
  -26.2023  -28.9529   20.7904 C   0  0  0  0  0  0
  -27.2883  -27.8890   20.8128 C   0  0  0  0  0  0
  -26.0314  -26.4185   19.4925 C   0  0  0  0  0  0
  -24.9822  -27.4059   19.4503 C   0  0  0  0  0  0
  -23.8171  -29.6287   20.1355 C   0  0  0  0  0  0
  -25.4161  -36.2822   24.0263 C   0  0  1  0  0  0
  -20.5998  -28.3812   23.1088 C   0  0  2  0  0  0
  -20.6804  -26.9446   22.5409 C   0  0  0  0  0  0
  -19.5784  -26.6368   21.5219 C   0  0  0  0  0  0
  -18.1968  -26.7963   22.1621 C   0  0  0  0  0  0
  -19.1625  -28.8961   23.2745 C   0  0  0  0  0  0
  -18.9525  -30.1535   23.8812 C   0  0  0  0  0  0
  -17.6511  -30.6624   24.0552 C   0  0  0  0  0  0
  -25.9156  -34.9213   23.4901 C   0  0  0  0  0  0
  -16.5400  -29.9100   23.6363 C   0  0  0  0  0  0
  -16.7331  -28.6515   23.0393 C   0  0  0  0  0  0
  -26.4636  -31.6475   25.0671 C   0  0  0  0  0  0
  -25.3615  -31.3859   26.1214 C   0  0  0  0  0  0
  -27.0594  -30.2775   24.6774 C   0  0  0  0  0  0
  -27.6047  -32.4397   25.7494 C   0  0  0  0  0  0
  -27.5563  -37.1697   24.8466 C   0  0  0  0  0  0
  -21.4490  -29.3005   22.3367 N   0  0  0  0  0  0
  -26.4268  -37.3609   23.9409 N   0  0  0  0  0  0
  -24.8228  -30.8894   22.0684 N   0  0  0  0  0  0
  -23.4193  -28.7817   23.3096 O   0  0  0  0  0  0
  -28.1811  -25.1154   20.3733 O   0  0  0  0  0  0
  -26.5845  -34.8831   22.4548 O   0  0  0  0  0  0
  -23.6035  -32.0893   23.6081 O   0  0  0  0  0  0
  -29.8586  -21.5589   21.6057 C   0  0  0  0  0  0
  -27.4525  -20.9328   21.3300 C   0  0  0  0  0  0
  -29.3582  -19.3477   19.9976 C   0  0  0  0  0  0
  -28.3205  -23.2590   19.9813 C   0  0  0  0  0  0
  -28.7484  -21.2770   20.5833 C   0  0  0  0  0  0
  -29.4074  -17.4719   20.3748 N   0  0  0  0  0  0
  -31.3588  -13.6699   19.1605 H   0  0  0  0  0  0
  -30.6461  -12.5808   20.2828 H   0  0  0  0  0  0
  -30.1009  -11.9284   17.9140 H   0  0  0  0  0  0
  -29.4664  -13.5234   17.5950 H   0  0  0  0  0  0
  -28.2661  -11.3556   19.3266 H   0  0  0  0  0  0
  -27.5107  -12.1667   17.9716 H   0  0  0  0  0  0
  -27.4078  -14.2247   19.1923 H   0  0  0  0  0  0
  -28.9061  -13.0012   21.5506 H   0  0  0  0  0  0
  -28.0650  -14.5223   21.5939 H   0  0  0  0  0  0
  -25.2828   -9.5683   22.4737 H   0  0  0  0  0  0
  -24.0028   -7.4654   22.7507 H   0  0  0  0  0  0
  -21.0867   -8.8790   19.8976 H   0  0  0  0  0  0
  -22.3749  -10.9669   19.6130 H   0  0  0  0  0  0
  -21.2014   -7.6150   23.9693 H   0  0  0  0  0  0
  -21.1506   -6.0529   25.9065 H   0  0  0  0  0  0
  -22.0586   -2.7609   23.2819 H   0  0  0  0  0  0
  -22.4024  -11.9876   22.4911 H   0  0  0  0  0  0
  -21.0946  -13.1137   22.2608 H   0  0  0  0  0  0
  -24.6116  -15.8560   20.5398 H   0  0  0  0  0  0
  -26.2267  -15.6463   20.0871 H   0  0  0  0  0  0
  -26.7624  -32.4746   23.0661 H   0  0  0  0  0  0
  -24.9987  -33.9177   24.9857 H   0  0  0  0  0  0
  -22.8875  -31.2030   21.2738 H   0  0  0  0  0  0
  -23.3791  -35.9370   23.3275 H   0  0  0  0  0  0
  -24.3522  -36.8811   22.2082 H   0  0  0  0  0  0
  -23.7222  -37.6222   23.6790 H   0  0  0  0  0  0
  -26.3726  -31.1273   20.6441 H   0  0  0  0  0  0
  -26.9739  -30.4924   22.1173 H   0  0  0  0  0  0
  -28.1712  -28.1405   21.3827 H   0  0  0  0  0  0
  -25.8333  -25.4996   18.9576 H   0  0  0  0  0  0
  -24.0933  -27.1579   18.8870 H   0  0  0  0  0  0
  -24.0098  -30.3776   19.3661 H   0  0  0  0  0  0
  -22.9185  -29.1037   19.8069 H   0  0  0  0  0  0
  -25.1388  -36.1557   25.0754 H   0  0  0  0  0  0
  -21.0086  -28.3474   24.1211 H   0  0  0  0  0  0
  -20.5626  -26.2457   23.3701 H   0  0  0  0  0  0
  -21.6663  -26.7336   22.1256 H   0  0  0  0  0  0
  -19.6928  -25.6246   21.1331 H   0  0  0  0  0  0
  -19.6742  -27.3114   20.6698 H   0  0  0  0  0  0
  -17.4236  -26.6716   21.4026 H   0  0  0  0  0  0
  -18.0350  -26.0122   22.9035 H   0  0  0  0  0  0
  -19.8001  -30.7368   24.2154 H   0  0  0  0  0  0
  -17.5065  -31.6294   24.5168 H   0  0  0  0  0  0
  -15.5400  -30.2986   23.7723 H   0  0  0  0  0  0
  -15.8728  -28.0796   22.7182 H   0  0  0  0  0  0
  -24.5831  -30.7207   25.7455 H   0  0  0  0  0  0
  -24.8770  -32.3100   26.4369 H   0  0  0  0  0  0
  -25.7693  -30.9157   27.0169 H   0  0  0  0  0  0
  -26.3335  -29.6316   24.1822 H   0  0  0  0  0  0
  -27.3953  -29.7338   25.5616 H   0  0  0  0  0  0
  -27.9369  -30.3828   24.0391 H   0  0  0  0  0  0
  -27.2567  -33.3800   26.1783 H   0  0  0  0  0  0
  -28.3994  -32.6801   25.0417 H   0  0  0  0  0  0
  -28.0566  -31.8721   26.5639 H   0  0  0  0  0  0
  -28.2550  -38.0019   24.7511 H   0  0  0  0  0  0
  -28.1096  -36.2538   24.6317 H   0  0  0  0  0  0
  -27.2261  -37.1352   25.8862 H   0  0  0  0  0  0
  -20.9850  -29.8618   21.6355 H   0  0  0  0  0  0
  -26.0084  -38.2654   24.1418 H   0  0  0  0  0  0
  -30.0686  -20.6819   22.2186 H   0  0  0  0  0  0
  -29.5941  -22.3781   22.2743 H   0  0  0  0  0  0
  -30.7843  -21.8340   21.0964 H   0  0  0  0  0  0
  -27.5834  -20.0723   21.9871 H   0  0  0  0  0  0
  -26.6531  -20.6908   20.6283 H   0  0  0  0  0  0
  -27.1123  -21.7691   21.9410 H   0  0  0  0  0  0
  -30.4033  -19.5148   19.7349 H   0  0  0  0  0  0
  -28.8678  -19.2894   19.0248 H   0  0  0  0  0  0
  -27.4231  -23.1217   19.3776 H   0  0  0  0  0  0
  -29.1029  -23.3676   19.2306 H   0  0  0  0  0  0
  -28.4630  -17.2303   20.6449 H   0  0  0  0  0  0
  1 25  1  0  0  0
  1 30  2  0  0  0
  1 76  1  0  0  0
  2  3  1  0  0  0
  2 25  1  0  0  0
  2 77  1  0  0  0
  2 78  1  0  0  0
  3  4  1  0  0  0
  3 79  1  0  0  0
  3 80  1  0  0  0
  4  5  1  0  0  0
  4 81  1  0  0  0
  4 82  1  0  0  0
  5  6  1  0  0  0
  5 26  1  0  0  0
  5 83  1  0  0  0
  6 25  1  0  0  0
  6 84  1  0  0  0
  6 85  1  0  0  0
  7  8  2  0  0  0
  7 26  1  0  0  0
  7 29  1  0  0  0
  8  9  1  0  0  0
  8 22  1  0  0  0
  9 10  1  0  0  0
  9 27  2  0  0  0
 10 11  2  0  0  0
 10 15  1  0  0  0
 11 12  1  0  0  0
 11 86  1  0  0  0
 12 13  2  0  0  0
 12 87  1  0  0  0
 13 14  1  0  0  0
 13 31  1  0  0  0
 14 15  2  0  0  0
 14 88  1  0  0  0
 15 89  1  0  0  0
 16 17  2  0  0  0
 16 21  1  0  0  0
 16 31  1  0  0  0
 17 18  1  0  0  0
 17 90  1  0  0  0
 18 19  2  0  0  0
 18 91  1  0  0  0
 19 20  1  0  0  0
 19 24  1  0  0  0
 20 21  2  0  0  0
 20 92  1  0  0  0
 21 23  1  0  0  0
 22 28  1  0  0  0
 22 32  2  0  0  0
 26 27  1  0  0  0
 28 93  1  0  0  0
 28 94  1  0  0  0
 29 95  1  0  0  0
 29 96  1  0  0  0
 33 34  1  0  0  0
 33 66  1  0  0  0
 33 70  2  0  0  0
 34 36  1  0  0  0
 34 59  1  0  0  0
 34 97  1  0  0  0
 35 44  2  0  0  0
 35 45  1  0  0  0
 35 68  1  0  0  0
 36 56  1  0  0  0
 36 98  1  0  0  0
 37 39  1  0  0  0
 37 47  1  0  0  0
 37 66  1  0  0  0
 37 99  1  0  0  0
 38 43  2  0  0  0
 38 46  1  0  0  0
 38 47  1  0  0  0
 39 64  1  0  0  0
 39 67  2  0  0  0
 40 52  1  0  0  0
 40 53  2  0  0  0
 40 58  1  0  0  0
 41100  1  0  0  0
 41101  1  0  0  0
 41102  1  0  0  0
 41 48  1  0  0  0
 42 43  1  0  0  0
 42 66  1  0  0  0
 42103  1  0  0  0
 42104  1  0  0  0
 43 44  1  0  0  0
 44105  1  0  0  0
 45 46  2  0  0  0
 45106  1  0  0  0
 46107  1  0  0  0
 47108  1  0  0  0
 47109  1  0  0  0
 48 56  1  0  0  0
 48 65  1  0  0  0
 48110  1  0  0  0
 49 50  1  0  0  0
 49 53  1  0  0  0
 49 64  1  0  0  0
 49111  1  0  0  0
 50 51  1  0  0  0
 50112  1  0  0  0
 50113  1  0  0  0
 51 52  1  0  0  0
 51114  1  0  0  0
 51115  1  0  0  0
 52116  1  0  0  0
 52117  1  0  0  0
 53 54  1  0  0  0
 54 55  2  0  0  0
 54118  1  0  0  0
 55 57  1  0  0  0
 55119  1  0  0  0
 56 69  2  0  0  0
 57 58  2  0  0  0
 57120  1  0  0  0
 58121  1  0  0  0
 59 60  1  0  0  0
 59 61  1  0  0  0
 59 62  1  0  0  0
 60122  1  0  0  0
 60123  1  0  0  0
 60124  1  0  0  0
 61125  1  0  0  0
 61126  1  0  0  0
 61127  1  0  0  0
 62128  1  0  0  0
 62129  1  0  0  0
 62130  1  0  0  0
 63 65  1  0  0  0
 63131  1  0  0  0
 63132  1  0  0  0
 63133  1  0  0  0
 64134  1  0  0  0
 65135  1  0  0  0
 68 74  1  0  0  0
 71136  1  0  0  0
 71137  1  0  0  0
 71138  1  0  0  0
 71 75  1  0  0  0
 72 75  1  0  0  0
 72139  1  0  0  0
 72140  1  0  0  0
 72141  1  0  0  0
 73 75  1  0  0  0
 73 76  1  0  0  0
 73142  1  0  0  0
 73143  1  0  0  0
 74 75  1  0  0  0
 74144  1  0  0  0
 74145  1  0  0  0
 76146  1  0  0  0
M  ISO  4   1 100  68 101  74 101  76 100
M  END
> <chiral flag>
0

> <version>
0

> <s_m_source_file>
/data/baiqing/PycharmProjects/Reinvent-master-3.2/result/LINK_invent/BTK/process_docking_weight1_custom_sum_contain_oxygen_bond_distance_aromatic_linkinvent_7_9_3/rearranged_h_0104.sdf

> <i_m_source_file_index>
79

> <r_mmod_Potential_Energy-OPLS-2005>
4154.009765625

> <r_mmod_Stretch_Energy-OPLS-2005>
1946.06066894531

> <r_mmod_Bend_Energy-OPLS-2005>
907.354675292969

> <r_mmod_Torsional_Energy-OPLS-2005>
237.135360717773

> <r_mmod_Improper_Torsional_Energy-OPLS-2005>
4.05898284912109

> <r_mmod_Van_der_Waal_Energy-OPLS-2005>
111.919425964355

> <r_mmod_Electrostatic_Energy-OPLS-2005>
-373.071075439453

> <r_mmod_Solvation_Energy-OPLS-2005>
-217.193542480469

> <b_mmod_Minimization_Converged-OPLS-2005>
0

> <r_mmod_RMS_Derivative-OPLS-2005>
2.43039011955261

$$$$
79
                    3D
 Structure written by MMmdl.
155163  0  0  1  0            999 V2000
  -30.6140  -14.7428   20.4714 C   0  0  0  0  0  0
  -30.4323  -12.4588   19.4644 C   0  0  0  0  0  0
  -29.5050  -12.4990   18.2309 C   0  0  0  0  0  0
  -28.0336  -12.3207   18.6524 C   0  0  0  0  0  0
  -27.6386  -13.2297   19.8464 C   0  0  2  0  0  0
  -28.6849  -13.1682   20.9790 C   0  0  0  0  0  0
  -25.2500  -13.8192   20.5707 C   0  0  0  0  0  0
  -24.1799  -13.0437   20.9223 C   0  0  0  0  0  0
  -24.6393  -11.6916   20.8761 C   0  0  0  0  0  0
  -23.9073  -10.4289   21.0416 C   0  0  0  0  0  0
  -24.3620   -9.4205   21.9192 C   0  0  0  0  0  0
  -23.6293   -8.2245   22.0757 C   0  0  0  0  0  0
  -22.4279   -8.0283   21.3547 C   0  0  0  0  0  0
  -21.9919   -9.0258   20.4647 C   0  0  0  0  0  0
  -22.7248  -10.2136   20.3060 C   0  0  0  0  0  0
  -21.6850   -6.0745   22.5282 C   0  0  0  0  0  0
  -21.4012   -6.5649   23.8218 C   0  0  0  0  0  0
  -21.3654   -5.6796   24.9179 C   0  0  0  0  0  0
  -21.6046   -4.3057   24.7228 C   0  0  0  0  0  0
  -21.8815   -3.8150   23.4347 C   0  0  0  0  0  0
  -21.9192   -4.6969   22.3405 C   0  0  0  0  0  0
  -22.7823  -13.5220   21.1879 C   0  0  0  0  0  0
  -22.1663   -4.2155   21.0980 F   0  0  0  0  0  0
  -21.5624   -3.4537   25.7740 F   0  0  0  0  0  0
  -29.9802  -13.5237   20.3883 N   0  0  0  0  0  0
  -26.2920  -12.9399   20.3269 N   0  0  0  0  0  0
  -25.9318  -11.6547   20.5759 N   0  0  0  0  0  0
  -22.0465  -12.8204   22.0426 N   0  0  0  0  0  0
  -25.4185  -15.1923   20.4147 N   0  0  0  0  0  0
  -31.8122  -14.8283   20.1894 O   0  0  0  0  0  0
  -21.6638   -6.8885   21.4245 O   0  0  0  0  0  0
  -22.3510  -14.5523   20.6718 O   0  0  0  0  0  0
  -24.6303  -31.8553   23.1993 C   0  0  0  0  0  0
  -25.9124  -32.4757   23.8341 C   0  0  1  0  0  0
  -27.2222  -27.2680   20.1321 C   0  0  0  0  0  0
  -25.5927  -33.8561   24.2260 N   0  0  0  0  0  0
  -23.4281  -30.4741   21.5427 C   0  0  2  0  0  0
  -24.8776  -28.9178   20.1147 C   0  0  0  0  0  0
  -22.7500  -29.4582   22.4927 C   0  0  0  0  0  0
  -18.0282  -28.1379   22.8473 C   0  0  0  0  0  0
  -24.1479  -36.7275   23.2638 C   0  0  0  0  0  0
  -25.9720  -30.7674   21.3798 C   0  0  0  0  0  0
  -26.0477  -29.3881   20.7278 C   0  0  0  0  0  0
  -27.2251  -28.5724   20.7298 C   0  0  0  0  0  0
  -26.0352  -26.8617   19.4921 C   0  0  0  0  0  0
  -24.8748  -27.6611   19.4885 C   0  0  0  0  0  0
  -23.6473  -29.8037   20.1608 C   0  0  0  0  0  0
  -25.4105  -36.3065   24.0329 C   0  0  1  0  0  0
  -20.5885  -28.3678   23.1272 C   0  0  2  0  0  0
  -20.6760  -26.9398   22.5400 C   0  0  0  0  0  0
  -19.5747  -26.6372   21.5198 C   0  0  0  0  0  0
  -18.1919  -26.7925   22.1599 C   0  0  0  0  0  0
  -19.1534  -28.8846   23.2859 C   0  0  0  0  0  0
  -18.9463  -30.1443   23.8882 C   0  0  0  0  0  0
  -17.6466  -30.6581   24.0543 C   0  0  0  0  0  0
  -25.9045  -34.9439   23.5090 C   0  0  0  0  0  0
  -16.5352  -29.9075   23.6335 C   0  0  0  0  0  0
  -16.7268  -28.6488   23.0359 C   0  0  0  0  0  0
  -26.4497  -31.6598   25.0738 C   0  0  0  0  0  0
  -25.3718  -31.3740   26.1454 C   0  0  0  0  0  0
  -27.0363  -30.3021   24.6236 C   0  0  0  0  0  0
  -27.6035  -32.4373   25.7509 C   0  0  0  0  0  0
  -27.5579  -37.1775   24.8458 C   0  0  0  0  0  0
  -21.4203  -29.3034   22.3671 N   0  0  0  0  0  0
  -26.4272  -37.3772   23.9425 N   0  0  0  0  0  0
  -24.6960  -31.0501   22.0974 N   0  0  0  0  0  0
  -23.4197  -28.8122   23.3031 O   0  0  0  0  0  0
  -28.3078  -26.3693   20.1131 O   0  0  0  0  0  0
  -26.5612  -34.8914   22.4658 O   0  0  0  0  0  0
  -23.5452  -32.1377   23.7278 O   0  0  0  0  0  0
  -28.9115  -20.6275   19.1037 C   0  0  0  0  0  0
  -28.9375  -21.0036   20.4253 C   0  0  0  0  0  0
  -29.3912  -19.8411   21.2264 C   0  0  0  0  0  0
  -29.6761  -18.6457   20.5265 C   0  0  0  0  0  0
  -29.5342  -19.9260   22.7207 C   0  0  0  0  0  0
  -26.9266  -22.2285   21.2932 C   0  0  0  0  0  0
  -30.3512  -17.2941   21.0166 C   0  0  0  0  0  0
  -28.6101  -23.8229   20.1552 C   0  0  0  0  0  0
  -28.4177  -22.4144   20.9607 C   0  0  2  0  0  0
  -29.8565  -15.8851   20.6926 N   0  0  0  0  0  0
  -28.0042  -25.0504   20.8169 N   0  0  0  0  0  0
  -29.3889  -18.9518   18.8313 S   0  0  0  0  0  0
  -31.4701  -12.5926   19.1554 H   0  0  0  0  0  0
  -30.3881  -11.4846   19.9548 H   0  0  0  0  0  0
  -29.7872  -11.7210   17.5203 H   0  0  0  0  0  0
  -29.6247  -13.4502   17.7095 H   0  0  0  0  0  0
  -27.8997  -11.2742   18.9296 H   0  0  0  0  0  0
  -27.3709  -12.4967   17.8049 H   0  0  0  0  0  0
  -27.6318  -14.2485   19.4583 H   0  0  0  0  0  0
  -28.7245  -12.1718   21.4211 H   0  0  0  0  0  0
  -28.4213  -13.8525   21.7872 H   0  0  0  0  0  0
  -25.2759   -9.5684   22.4774 H   0  0  0  0  0  0
  -24.0001   -7.4638   22.7476 H   0  0  0  0  0  0
  -21.0853   -8.8781   19.8945 H   0  0  0  0  0  0
  -22.3712  -10.9678   19.6172 H   0  0  0  0  0  0
  -21.2006   -7.6154   23.9721 H   0  0  0  0  0  0
  -21.1477   -6.0527   25.9083 H   0  0  0  0  0  0
  -22.0595   -2.7616   23.2846 H   0  0  0  0  0  0
  -22.4086  -11.9856   22.4802 H   0  0  0  0  0  0
  -21.1085  -13.1225   22.2642 H   0  0  0  0  0  0
  -24.6472  -15.8407   20.5305 H   0  0  0  0  0  0
  -26.2609  -15.6372   20.0736 H   0  0  0  0  0  0
  -26.7185  -32.5414   23.1083 H   0  0  0  0  0  0
  -25.0107  -33.9707   25.0435 H   0  0  0  0  0  0
  -22.7230  -31.2941   21.3941 H   0  0  0  0  0  0
  -23.3750  -35.9597   23.3287 H   0  0  0  0  0  0
  -24.3565  -36.8930   22.2059 H   0  0  0  0  0  0
  -23.7229  -37.6465   23.6684 H   0  0  0  0  0  0
  -26.1077  -31.5253   20.6069 H   0  0  0  0  0  0
  -26.8505  -30.8206   22.0107 H   0  0  0  0  0  0
  -28.1265  -28.9254   21.2104 H   0  0  0  0  0  0
  -26.0022  -25.8938   19.0125 H   0  0  0  0  0  0
  -23.9795  -27.2952   19.0048 H   0  0  0  0  0  0
  -23.7679  -30.5772   19.4017 H   0  0  0  0  0  0
  -22.7666  -29.2341   19.8587 H   0  0  0  0  0  0
  -25.1283  -36.1899   25.0823 H   0  0  0  0  0  0
  -20.9959  -28.3255   24.1396 H   0  0  0  0  0  0
  -20.5647  -26.2290   23.3599 H   0  0  0  0  0  0
  -21.6632  -26.7413   22.1215 H   0  0  0  0  0  0
  -19.6898  -25.6277   21.1250 H   0  0  0  0  0  0
  -19.6702  -27.3155   20.6713 H   0  0  0  0  0  0
  -17.4200  -26.6680   21.3987 H   0  0  0  0  0  0
  -18.0292  -26.0054   22.8982 H   0  0  0  0  0  0
  -19.7943  -30.7248   24.2258 H   0  0  0  0  0  0
  -17.5028  -31.6273   24.5123 H   0  0  0  0  0  0
  -15.5343  -30.2968   23.7692 H   0  0  0  0  0  0
  -15.8658  -28.0799   22.7109 H   0  0  0  0  0  0
  -24.5956  -30.7002   25.7814 H   0  0  0  0  0  0
  -24.8813  -32.2888   26.4786 H   0  0  0  0  0  0
  -25.8055  -30.9032   27.0287 H   0  0  0  0  0  0
  -26.2959  -29.6745   24.1262 H   0  0  0  0  0  0
  -27.4051  -29.7310   25.4769 H   0  0  0  0  0  0
  -27.8834  -30.4304   23.9490 H   0  0  0  0  0  0
  -27.2646  -33.3731   26.1960 H   0  0  0  0  0  0
  -28.3894  -32.6845   25.0361 H   0  0  0  0  0  0
  -28.0629  -31.8580   26.5523 H   0  0  0  0  0  0
  -28.2553  -38.0114   24.7564 H   0  0  0  0  0  0
  -28.1122  -36.2648   24.6216 H   0  0  0  0  0  0
  -27.2299  -37.1344   25.8858 H   0  0  0  0  0  0
  -20.9382  -29.8788   21.6905 H   0  0  0  0  0  0
  -26.0149  -38.2835   24.1473 H   0  0  0  0  0  0
  -28.6037  -21.2282   18.2549 H   0  0  0  0  0  0
  -28.6170  -19.6113   23.2190 H   0  0  0  0  0  0
  -29.7585  -20.9365   23.0578 H   0  0  0  0  0  0
  -30.3452  -19.3038   23.0947 H   0  0  0  0  0  0
  -26.7759  -21.3808   21.9626 H   0  0  0  0  0  0
  -26.3461  -22.0402   20.3900 H   0  0  0  0  0  0
  -26.4995  -23.1014   21.7867 H   0  0  0  0  0  0
  -30.3930  -17.3116   22.1039 H   0  0  0  0  0  0
  -31.3973  -17.3439   20.7140 H   0  0  0  0  0  0
  -28.1801  -23.7301   19.1579 H   0  0  0  0  0  0
  -29.6768  -24.0024   20.0143 H   0  0  0  0  0  0
  -28.9166  -22.5964   21.9107 H   0  0  0  0  0  0
  -28.8670  -15.7320   20.8085 H   0  0  0  0  0  0
  -28.3896  -25.1501   21.7520 H   0  0  0  0  0  0
  1 25  1  0  0  0
  1 30  2  0  0  0
  1 80  1  0  0  0
  2  3  1  0  0  0
  2 25  1  0  0  0
  2 83  1  0  0  0
  2 84  1  0  0  0
  3  4  1  0  0  0
  3 85  1  0  0  0
  3 86  1  0  0  0
  4  5  1  0  0  0
  4 87  1  0  0  0
  4 88  1  0  0  0
  5  6  1  0  0  0
  5 26  1  0  0  0
  5 89  1  0  0  0
  6 25  1  0  0  0
  6 90  1  0  0  0
  6 91  1  0  0  0
  7  8  2  0  0  0
  7 26  1  0  0  0
  7 29  1  0  0  0
  8  9  1  0  0  0
  8 22  1  0  0  0
  9 10  1  0  0  0
  9 27  2  0  0  0
 10 11  2  0  0  0
 10 15  1  0  0  0
 11 12  1  0  0  0
 11 92  1  0  0  0
 12 13  2  0  0  0
 12 93  1  0  0  0
 13 14  1  0  0  0
 13 31  1  0  0  0
 14 15  2  0  0  0
 14 94  1  0  0  0
 15 95  1  0  0  0
 16 17  2  0  0  0
 16 21  1  0  0  0
 16 31  1  0  0  0
 17 18  1  0  0  0
 17 96  1  0  0  0
 18 19  2  0  0  0
 18 97  1  0  0  0
 19 20  1  0  0  0
 19 24  1  0  0  0
 20 21  2  0  0  0
 20 98  1  0  0  0
 21 23  1  0  0  0
 22 28  1  0  0  0
 22 32  2  0  0  0
 26 27  1  0  0  0
 28 99  1  0  0  0
 28100  1  0  0  0
 29101  1  0  0  0
 29102  1  0  0  0
 33 34  1  0  0  0
 33 66  1  0  0  0
 33 70  2  0  0  0
 34 36  1  0  0  0
 34 59  1  0  0  0
 34103  1  0  0  0
 35 44  2  0  0  0
 35 45  1  0  0  0
 35 68  1  0  0  0
 36 56  1  0  0  0
 36104  1  0  0  0
 37 39  1  0  0  0
 37 47  1  0  0  0
 37 66  1  0  0  0
 37105  1  0  0  0
 38 43  2  0  0  0
 38 46  1  0  0  0
 38 47  1  0  0  0
 39 64  1  0  0  0
 39 67  2  0  0  0
 40 52  1  0  0  0
 40 53  2  0  0  0
 40 58  1  0  0  0
 41106  1  0  0  0
 41107  1  0  0  0
 41108  1  0  0  0
 41 48  1  0  0  0
 42 43  1  0  0  0
 42 66  1  0  0  0
 42109  1  0  0  0
 42110  1  0  0  0
 43 44  1  0  0  0
 44111  1  0  0  0
 45 46  2  0  0  0
 45112  1  0  0  0
 46113  1  0  0  0
 47114  1  0  0  0
 47115  1  0  0  0
 48 56  1  0  0  0
 48 65  1  0  0  0
 48116  1  0  0  0
 49 50  1  0  0  0
 49 53  1  0  0  0
 49 64  1  0  0  0
 49117  1  0  0  0
 50 51  1  0  0  0
 50118  1  0  0  0
 50119  1  0  0  0
 51 52  1  0  0  0
 51120  1  0  0  0
 51121  1  0  0  0
 52122  1  0  0  0
 52123  1  0  0  0
 53 54  1  0  0  0
 54 55  2  0  0  0
 54124  1  0  0  0
 55 57  1  0  0  0
 55125  1  0  0  0
 56 69  2  0  0  0
 57 58  2  0  0  0
 57126  1  0  0  0
 58127  1  0  0  0
 59 60  1  0  0  0
 59 61  1  0  0  0
 59 62  1  0  0  0
 60128  1  0  0  0
 60129  1  0  0  0
 60130  1  0  0  0
 61131  1  0  0  0
 61132  1  0  0  0
 61133  1  0  0  0
 62134  1  0  0  0
 62135  1  0  0  0
 62136  1  0  0  0
 63 65  1  0  0  0
 63137  1  0  0  0
 63138  1  0  0  0
 63139  1  0  0  0
 64140  1  0  0  0
 65141  1  0  0  0
 68 81  1  0  0  0
 71 72  2  0  0  0
 71 82  1  0  0  0
 71142  1  0  0  0
 72 73  1  0  0  0
 72 79  1  0  0  0
 73 74  2  0  0  0
 73 75  1  0  0  0
 74 77  1  0  0  0
 74 82  1  0  0  0
 75143  1  0  0  0
 75144  1  0  0  0
 75145  1  0  0  0
 76146  1  0  0  0
 76147  1  0  0  0
 76148  1  0  0  0
 76 79  1  0  0  0
 77 80  1  0  0  0
 77149  1  0  0  0
 77150  1  0  0  0
 78 79  1  0  0  0
 78 81  1  0  0  0
 78151  1  0  0  0
 78152  1  0  0  0
 79153  1  0  0  0
 80154  1  0  0  0
 81155  1  0  0  0
M  ISO  4   1 100  68 101  80 100  81 101
M  END
> <chiral flag>
0

> <version>
0

> <s_m_source_file>
/data/baiqing/PycharmProjects/Reinvent-master-3.2/result/LINK_invent/BTK/process_docking_weight1_custom_sum_contain_oxygen_bond_distance_aromatic_linkinvent_7_9_3/rearranged_h_0104.sdf

> <i_m_source_file_index>
80

> <r_mmod_Potential_Energy-OPLS-2005>
89.0952377319336

> <r_mmod_Stretch_Energy-OPLS-2005>
122.358795166016

> <r_mmod_Bend_Energy-OPLS-2005>
173.621917724609

> <r_mmod_Torsional_Energy-OPLS-2005>
213.735778808594

> <r_mmod_Improper_Torsional_Energy-OPLS-2005>
5.12800550460815

> <r_mmod_Van_der_Waal_Energy-OPLS-2005>
113.442222595215

> <r_mmod_Electrostatic_Energy-OPLS-2005>
-405.330871582031

> <r_mmod_Solvation_Energy-OPLS-2005>
-217.824310302734

> <b_mmod_Minimization_Converged-OPLS-2005>
0

> <r_mmod_RMS_Derivative-OPLS-2005>
1.46873259544373

$$$$
80
                    3D
 Structure written by MMmdl.
171179  0  0  1  0            999 V2000
  -30.6232  -14.8866   20.4523 C   0  0  0  0  0  0
  -30.4227  -12.5480   19.5191 C   0  0  0  0  0  0
  -29.5233  -12.5142   18.2690 C   0  0  0  0  0  0
  -28.0564  -12.3040   18.6865 C   0  0  0  0  0  0
  -27.6285  -13.2512   19.8398 C   0  0  2  0  0  0
  -28.6654  -13.3043   20.9792 C   0  0  0  0  0  0
  -25.2480  -13.8178   20.5806 C   0  0  0  0  0  0
  -24.1781  -13.0403   20.9282 C   0  0  0  0  0  0
  -24.6419  -11.6914   20.8804 C   0  0  0  0  0  0
  -23.9090  -10.4266   21.0431 C   0  0  0  0  0  0
  -24.3634   -9.4164   21.9199 C   0  0  0  0  0  0
  -23.6293   -8.2204   22.0759 C   0  0  0  0  0  0
  -22.4295   -8.0245   21.3529 C   0  0  0  0  0  0
  -21.9942   -9.0233   20.4644 C   0  0  0  0  0  0
  -22.7265  -10.2103   20.3065 C   0  0  0  0  0  0
  -21.6846   -6.0700   22.5280 C   0  0  0  0  0  0
  -21.4001   -6.5612   23.8207 C   0  0  0  0  0  0
  -21.3672   -5.6787   24.9183 C   0  0  0  0  0  0
  -21.6055   -4.3054   24.7250 C   0  0  0  0  0  0
  -21.8807   -3.8126   23.4377 C   0  0  0  0  0  0
  -21.9190   -4.6924   22.3414 C   0  0  0  0  0  0
  -22.7791  -13.5156   21.1920 C   0  0  0  0  0  0
  -22.1644   -4.2108   21.0989 F   0  0  0  0  0  0
  -21.5679   -3.4548   25.7765 F   0  0  0  0  0  0
  -29.9523  -13.6735   20.3819 N   0  0  0  0  0  0
  -26.2897  -12.9437   20.3281 N   0  0  0  0  0  0
  -25.9356  -11.6582   20.5761 N   0  0  0  0  0  0
  -22.0446  -12.8111   22.0470 N   0  0  0  0  0  0
  -25.4236  -15.1840   20.4341 N   0  0  0  0  0  0
  -31.8159  -14.8839   20.1297 O   0  0  0  0  0  0
  -21.6623   -6.8855   21.4245 O   0  0  0  0  0  0
  -22.3470  -14.5458   20.6753 O   0  0  0  0  0  0
  -24.6379  -31.8457   23.1887 C   0  0  0  0  0  0
  -25.9172  -32.4686   23.8271 C   0  0  1  0  0  0
  -27.2112  -27.1771   20.1616 C   0  0  0  0  0  0
  -25.5951  -33.8486   24.2243 N   0  0  0  0  0  0
  -23.4390  -30.4669   21.5309 C   0  0  2  0  0  0
  -24.8932  -28.9058   20.0980 C   0  0  0  0  0  0
  -22.7517  -29.4545   22.4814 C   0  0  0  0  0  0
  -18.0307  -28.1427   22.8452 C   0  0  0  0  0  0
  -24.1509  -36.7263   23.2639 C   0  0  0  0  0  0
  -25.9933  -30.7380   21.3741 C   0  0  0  0  0  0
  -26.0657  -29.3529   20.7185 C   0  0  0  0  0  0
  -27.2300  -28.5071   20.7258 C   0  0  0  0  0  0
  -26.0164  -26.8211   19.4956 C   0  0  0  0  0  0
  -24.8806  -27.6572   19.4636 C   0  0  0  0  0  0
  -23.6587  -29.7934   20.1500 C   0  0  0  0  0  0
  -25.4130  -36.3020   24.0326 C   0  0  1  0  0  0
  -20.5883  -28.3767   23.1265 C   0  0  2  0  0  0
  -20.6715  -26.9328   22.5782 C   0  0  0  0  0  0
  -19.5805  -26.6155   21.5490 C   0  0  0  0  0  0
  -18.1913  -26.7916   22.1683 C   0  0  0  0  0  0
  -19.1540  -28.8921   23.2785 C   0  0  0  0  0  0
  -18.9498  -30.1538   23.8751 C   0  0  0  0  0  0
  -17.6535  -30.6659   24.0474 C   0  0  0  0  0  0
  -25.9046  -34.9382   23.5085 C   0  0  0  0  0  0
  -16.5395  -29.9100   23.6399 C   0  0  0  0  0  0
  -16.7291  -28.6520   23.0411 C   0  0  0  0  0  0
  -26.4507  -31.6520   25.0662 C   0  0  0  0  0  0
  -25.3739  -31.3697   26.1381 C   0  0  0  0  0  0
  -27.0331  -30.2927   24.6177 C   0  0  0  0  0  0
  -27.6057  -32.4273   25.7467 C   0  0  0  0  0  0
  -27.5592  -37.1759   24.8443 C   0  0  0  0  0  0
  -21.4224  -29.2953   22.3509 N   0  0  0  0  0  0
  -26.4299  -37.3727   23.9388 N   0  0  0  0  0  0
  -24.7089  -31.0370   22.0865 N   0  0  0  0  0  0
  -23.4184  -28.8118   23.2966 O   0  0  0  0  0  0
  -28.2769  -26.2209   20.2439 O   0  0  0  0  0  0
  -26.5623  -34.8891   22.4661 O   0  0  0  0  0  0
  -23.5508  -32.1362   23.7144 O   0  0  0  0  0  0
  -30.1639  -21.0844   20.9078 C   0  0  0  0  0  0
  -28.0284  -21.1336   19.9554 C   0  0  0  0  0  0
  -29.0902  -21.9199   20.4624 C   0  0  0  0  0  0
  -30.2044  -19.6358   20.8196 C   0  0  0  0  0  0
  -28.0070  -19.6789   19.8278 C   0  0  0  0  0  0
  -29.1175  -18.8338   20.3068 C   0  0  0  0  0  0
  -31.5927  -18.4983   22.6615 C   0  0  0  0  0  0
  -24.1972  -18.6772   19.8626 C   0  0  0  0  0  0
  -26.8262  -17.8117   18.3708 C   0  0  0  0  0  0
  -26.1439  -20.1247   18.0792 C   0  0  0  0  0  0
  -29.2041  -23.5581   20.4272 C   0  0  0  0  0  0
  -31.5223  -18.9753   21.2051 C   0  0  0  0  0  0
  -29.1259  -17.1742   20.2131 C   0  0  0  0  0  0
  -25.6385  -19.0046   20.2899 C   0  0  0  0  0  0
  -28.0063  -24.6991   20.3498 C   0  0  0  0  0  0
  -26.6906  -19.1389   19.1594 C   0  0  0  0  0  0
  -30.0591  -16.1149   20.8719 N   0  0  0  0  0  0
  -31.4694  -12.6435   19.2281 H   0  0  0  0  0  0
  -30.3642  -11.6059   20.0666 H   0  0  0  0  0  0
  -29.8407  -11.7209   17.5937 H   0  0  0  0  0  0
  -29.6317  -13.4531   17.7214 H   0  0  0  0  0  0
  -27.9585  -11.2656   19.0159 H   0  0  0  0  0  0
  -27.3890  -12.4043   17.8318 H   0  0  0  0  0  0
  -27.5914  -14.2493   19.4097 H   0  0  0  0  0  0
  -28.7324  -12.3524   21.5051 H   0  0  0  0  0  0
  -28.3761  -14.0524   21.7181 H   0  0  0  0  0  0
  -25.2769   -9.5617   22.4777 H   0  0  0  0  0  0
  -23.9970   -7.4624   22.7512 H   0  0  0  0  0  0
  -21.0850   -8.8802   19.8969 H   0  0  0  0  0  0
  -22.3742  -10.9666   19.6196 H   0  0  0  0  0  0
  -21.1956   -7.6133   23.9693 H   0  0  0  0  0  0
  -21.1532   -6.0533   25.9082 H   0  0  0  0  0  0
  -22.0575   -2.7592   23.2913 H   0  0  0  0  0  0
  -22.4086  -11.9685   22.4625 H   0  0  0  0  0  0
  -21.1138  -13.1218   22.2868 H   0  0  0  0  0  0
  -24.6730  -15.8536   20.5635 H   0  0  0  0  0  0
  -26.2860  -15.6013   20.1164 H   0  0  0  0  0  0
  -26.7273  -32.5311   23.1039 H   0  0  0  0  0  0
  -25.0078  -33.9629   25.0377 H   0  0  0  0  0  0
  -22.7387  -31.2947   21.3808 H   0  0  0  0  0  0
  -23.3759  -35.9605   23.3256 H   0  0  0  0  0  0
  -24.3581  -36.8937   22.2057 H   0  0  0  0  0  0
  -23.7288  -37.6470   23.6680 H   0  0  0  0  0  0
  -26.1349  -31.4938   20.6031 H   0  0  0  0  0  0
  -26.8751  -30.7960   22.0029 H   0  0  0  0  0  0
  -28.1272  -28.8442   21.2276 H   0  0  0  0  0  0
  -25.9282  -25.8698   18.9973 H   0  0  0  0  0  0
  -23.9906  -27.3125   18.9535 H   0  0  0  0  0  0
  -23.7632  -30.5564   19.3787 H   0  0  0  0  0  0
  -22.7814  -29.2159   19.8580 H   0  0  0  0  0  0
  -25.1322  -36.1873   25.0819 H   0  0  0  0  0  0
  -21.0020  -28.3526   24.1392 H   0  0  0  0  0  0
  -20.5344  -26.2502   23.4186 H   0  0  0  0  0  0
  -21.6637  -26.7190   22.1794 H   0  0  0  0  0  0
  -19.6932  -25.5927   21.1866 H   0  0  0  0  0  0
  -19.6995  -27.2743   20.6881 H   0  0  0  0  0  0
  -17.4270  -26.6656   21.4003 H   0  0  0  0  0  0
  -18.0101  -26.0118   22.9137 H   0  0  0  0  0  0
  -19.8010  -30.7387   24.2022 H   0  0  0  0  0  0
  -17.5116  -31.6383   24.4922 H   0  0  0  0  0  0
  -15.5389  -30.2946   23.7856 H   0  0  0  0  0  0
  -15.8662  -28.0852   22.7190 H   0  0  0  0  0  0
  -24.5863  -30.7086   25.7744 H   0  0  0  0  0  0
  -24.9004  -32.2883   26.4838 H   0  0  0  0  0  0
  -25.8091  -30.8836   27.0118 H   0  0  0  0  0  0
  -26.2887  -29.6662   24.1240 H   0  0  0  0  0  0
  -27.4072  -29.7207   25.4684 H   0  0  0  0  0  0
  -27.8757  -30.4232   23.9406 H   0  0  0  0  0  0
  -27.2646  -33.3608   26.1975 H   0  0  0  0  0  0
  -28.3878  -32.6833   25.0301 H   0  0  0  0  0  0
  -28.0696  -31.8374   26.5397 H   0  0  0  0  0  0
  -28.2554  -38.0104   24.7468 H   0  0  0  0  0  0
  -28.1145  -36.2599   24.6313 H   0  0  0  0  0  0
  -27.2237  -37.1436   25.8826 H   0  0  0  0  0  0
  -20.9482  -29.8361   21.6425 H   0  0  0  0  0  0
  -26.0168  -38.2797   24.1418 H   0  0  0  0  0  0
  -31.0358  -21.5955   21.2892 H   0  0  0  0  0  0
  -27.1915  -21.7287   19.6392 H   0  0  0  0  0  0
  -32.5532  -18.0157   22.8553 H   0  0  0  0  0  0
  -30.8070  -17.7819   22.9018 H   0  0  0  0  0  0
  -31.4946  -19.3387   23.3519 H   0  0  0  0  0  0
  -23.5577  -18.5481   20.7348 H   0  0  0  0  0  0
  -24.1450  -17.7591   19.2803 H   0  0  0  0  0  0
  -23.7660  -19.4823   19.2690 H   0  0  0  0  0  0
  -27.6663  -17.8427   17.6775 H   0  0  0  0  0  0
  -25.9481  -17.6154   17.7575 H   0  0  0  0  0  0
  -26.8944  -16.9308   18.9945 H   0  0  0  0  0  0
  -26.9314  -20.4292   17.3870 H   0  0  0  0  0  0
  -25.6860  -21.0203   18.4980 H   0  0  0  0  0  0
  -25.3535  -19.6913   17.4693 H   0  0  0  0  0  0
  -29.8467  -23.7522   19.5695 H   0  0  0  0  0  0
  -29.8051  -23.8224   21.2975 H   0  0  0  0  0  0
  -32.3335  -19.6810   21.0219 H   0  0  0  0  0  0
  -31.7332  -18.1556   20.5226 H   0  0  0  0  0  0
  -29.1355  -16.9196   19.1532 H   0  0  0  0  0  0
  -28.1585  -16.8843   20.6226 H   0  0  0  0  0  0
  -25.9839  -18.2653   21.0140 H   0  0  0  0  0  0
  -25.5935  -19.9460   20.8376 H   0  0  0  0  0  0
  -27.3993  -24.5722   21.2474 H   0  0  0  0  0  0
  -27.3632  -24.3991   19.5254 H   0  0  0  0  0  0
  -30.8057  -16.6295   21.3156 H   0  0  0  0  0  0
  1 25  1  0  0  0
  1 30  2  0  0  0
  1 87  1  0  0  0
  2  3  1  0  0  0
  2 25  1  0  0  0
  2 88  1  0  0  0
  2 89  1  0  0  0
  3  4  1  0  0  0
  3 90  1  0  0  0
  3 91  1  0  0  0
  4  5  1  0  0  0
  4 92  1  0  0  0
  4 93  1  0  0  0
  5  6  1  0  0  0
  5 26  1  0  0  0
  5 94  1  0  0  0
  6 25  1  0  0  0
  6 95  1  0  0  0
  6 96  1  0  0  0
  7  8  2  0  0  0
  7 26  1  0  0  0
  7 29  1  0  0  0
  8  9  1  0  0  0
  8 22  1  0  0  0
  9 10  1  0  0  0
  9 27  2  0  0  0
 10 11  2  0  0  0
 10 15  1  0  0  0
 11 12  1  0  0  0
 11 97  1  0  0  0
 12 13  2  0  0  0
 12 98  1  0  0  0
 13 14  1  0  0  0
 13 31  1  0  0  0
 14 15  2  0  0  0
 14 99  1  0  0  0
 15100  1  0  0  0
 16 17  2  0  0  0
 16 21  1  0  0  0
 16 31  1  0  0  0
 17 18  1  0  0  0
 17101  1  0  0  0
 18 19  2  0  0  0
 18102  1  0  0  0
 19 20  1  0  0  0
 19 24  1  0  0  0
 20 21  2  0  0  0
 20103  1  0  0  0
 21 23  1  0  0  0
 22 28  1  0  0  0
 22 32  2  0  0  0
 26 27  1  0  0  0
 28104  1  0  0  0
 28105  1  0  0  0
 29106  1  0  0  0
 29107  1  0  0  0
 33 34  1  0  0  0
 33 66  1  0  0  0
 33 70  2  0  0  0
 34 36  1  0  0  0
 34 59  1  0  0  0
 34108  1  0  0  0
 35 44  2  0  0  0
 35 45  1  0  0  0
 35 68  1  0  0  0
 36 56  1  0  0  0
 36109  1  0  0  0
 37 39  1  0  0  0
 37 47  1  0  0  0
 37 66  1  0  0  0
 37110  1  0  0  0
 38 43  2  0  0  0
 38 46  1  0  0  0
 38 47  1  0  0  0
 39 64  1  0  0  0
 39 67  2  0  0  0
 40 52  1  0  0  0
 40 53  2  0  0  0
 40 58  1  0  0  0
 41111  1  0  0  0
 41112  1  0  0  0
 41113  1  0  0  0
 41 48  1  0  0  0
 42 43  1  0  0  0
 42 66  1  0  0  0
 42114  1  0  0  0
 42115  1  0  0  0
 43 44  1  0  0  0
 44116  1  0  0  0
 45 46  2  0  0  0
 45117  1  0  0  0
 46118  1  0  0  0
 47119  1  0  0  0
 47120  1  0  0  0
 48 56  1  0  0  0
 48 65  1  0  0  0
 48121  1  0  0  0
 49 50  1  0  0  0
 49 53  1  0  0  0
 49 64  1  0  0  0
 49122  1  0  0  0
 50 51  1  0  0  0
 50123  1  0  0  0
 50124  1  0  0  0
 51 52  1  0  0  0
 51125  1  0  0  0
 51126  1  0  0  0
 52127  1  0  0  0
 52128  1  0  0  0
 53 54  1  0  0  0
 54 55  2  0  0  0
 54129  1  0  0  0
 55 57  1  0  0  0
 55130  1  0  0  0
 56 69  2  0  0  0
 57 58  2  0  0  0
 57131  1  0  0  0
 58132  1  0  0  0
 59 60  1  0  0  0
 59 61  1  0  0  0
 59 62  1  0  0  0
 60133  1  0  0  0
 60134  1  0  0  0
 60135  1  0  0  0
 61136  1  0  0  0
 61137  1  0  0  0
 61138  1  0  0  0
 62139  1  0  0  0
 62140  1  0  0  0
 62141  1  0  0  0
 63 65  1  0  0  0
 63142  1  0  0  0
 63143  1  0  0  0
 63144  1  0  0  0
 64145  1  0  0  0
 65146  1  0  0  0
 68 85  1  0  0  0
 71 73  2  0  0  0
 71 74  1  0  0  0
 71147  1  0  0  0
 72 73  1  0  0  0
 72 75  2  0  0  0
 72148  1  0  0  0
 73 81  1  0  0  0
 74 76  2  0  0  0
 74 82  1  0  0  0
 75 76  1  0  0  0
 75 86  1  0  0  0
 76 83  1  0  0  0
 77 82  1  0  0  0
 77149  1  0  0  0
 77150  1  0  0  0
 77151  1  0  0  0
 78 84  1  0  0  0
 78152  1  0  0  0
 78153  1  0  0  0
 78154  1  0  0  0
 79155  1  0  0  0
 79156  1  0  0  0
 79157  1  0  0  0
 79 86  1  0  0  0
 80 86  1  0  0  0
 80158  1  0  0  0
 80159  1  0  0  0
 80160  1  0  0  0
 81 85  1  0  0  0
 81161  1  0  0  0
 81162  1  0  0  0
 82163  1  0  0  0
 82164  1  0  0  0
 83 87  1  0  0  0
 83165  1  0  0  0
 83166  1  0  0  0
 84 86  1  0  0  0
 84167  1  0  0  0
 84168  1  0  0  0
 85169  1  0  0  0
 85170  1  0  0  0
 87171  1  0  0  0
M  ISO  4   1 100  68 101  85 101  87 100
M  END
> <chiral flag>
0

> <version>
0

> <s_m_source_file>
/data/baiqing/PycharmProjects/Reinvent-master-3.2/result/LINK_invent/BTK/process_docking_weight1_custom_sum_contain_oxygen_bond_distance_aromatic_linkinvent_7_9_3/rearranged_h_0104.sdf

> <i_m_source_file_index>
81

> <r_mmod_Potential_Energy-OPLS-2005>
474.031524658203

> <r_mmod_Stretch_Energy-OPLS-2005>
220.139144897461

> <r_mmod_Bend_Energy-OPLS-2005>
302.717193603516

> <r_mmod_Torsional_Energy-OPLS-2005>
276.296173095703

> <r_mmod_Improper_Torsional_Energy-OPLS-2005>
6.39868307113647

> <r_mmod_Van_der_Waal_Energy-OPLS-2005>
146.427383422852

> <r_mmod_Electrostatic_Energy-OPLS-2005>
-452.355499267578

> <r_mmod_Solvation_Energy-OPLS-2005>
-183.698379516602

> <b_mmod_Minimization_Converged-OPLS-2005>
0

> <r_mmod_RMS_Derivative-OPLS-2005>
6.78458118438721

$$$$
81
                    3D
 Structure written by MMmdl.
160168  0  0  1  0            999 V2000
  -30.5266  -15.0156   20.3962 C   0  0  0  0  0  0
  -30.4374  -12.6343   19.4983 C   0  0  0  0  0  0
  -29.5218  -12.5327   18.2572 C   0  0  0  0  0  0
  -28.0580  -12.3072   18.6806 C   0  0  0  0  0  0
  -27.6220  -13.2544   19.8292 C   0  0  2  0  0  0
  -28.6649  -13.3263   20.9636 C   0  0  0  0  0  0
  -25.2440  -13.8184   20.5749 C   0  0  0  0  0  0
  -24.1758  -13.0413   20.9249 C   0  0  0  0  0  0
  -24.6392  -11.6908   20.8757 C   0  0  0  0  0  0
  -23.9079  -10.4282   21.0411 C   0  0  0  0  0  0
  -24.3628   -9.4199   21.9189 C   0  0  0  0  0  0
  -23.6299   -8.2235   22.0762 C   0  0  0  0  0  0
  -22.4279   -8.0281   21.3551 C   0  0  0  0  0  0
  -21.9915   -9.0251   20.4648 C   0  0  0  0  0  0
  -22.7250  -10.2127   20.3061 C   0  0  0  0  0  0
  -21.6851   -6.0737   22.5282 C   0  0  0  0  0  0
  -21.4013   -6.5638   23.8219 C   0  0  0  0  0  0
  -21.3656   -5.6792   24.9176 C   0  0  0  0  0  0
  -21.6047   -4.3054   24.7227 C   0  0  0  0  0  0
  -21.8818   -3.8149   23.4345 C   0  0  0  0  0  0
  -21.9191   -4.6964   22.3401 C   0  0  0  0  0  0
  -22.7779  -13.5185   21.1900 C   0  0  0  0  0  0
  -22.1660   -4.2149   21.0978 F   0  0  0  0  0  0
  -21.5633   -3.4538   25.7737 F   0  0  0  0  0  0
  -29.9286  -13.7522   20.3494 N   0  0  0  0  0  0
  -26.2859  -12.9444   20.3231 N   0  0  0  0  0  0
  -25.9323  -11.6564   20.5719 N   0  0  0  0  0  0
  -22.0415  -12.8173   22.0447 N   0  0  0  0  0  0
  -25.4088  -15.1899   20.4227 N   0  0  0  0  0  0
  -31.7425  -15.0492   20.1768 O   0  0  0  0  0  0
  -21.6641   -6.8880   21.4247 O   0  0  0  0  0  0
  -22.3465  -14.5491   20.6748 O   0  0  0  0  0  0
  -24.6474  -31.8389   23.1832 C   0  0  0  0  0  0
  -25.9231  -32.4664   23.8241 C   0  0  1  0  0  0
  -27.2223  -27.0945   20.1534 C   0  0  0  0  0  0
  -25.5960  -33.8474   24.2159 N   0  0  0  0  0  0
  -23.4535  -30.4555   21.5297 C   0  0  2  0  0  0
  -24.9049  -28.8731   20.1090 C   0  0  0  0  0  0
  -22.7584  -29.4517   22.4837 C   0  0  0  0  0  0
  -18.0307  -28.1391   22.8475 C   0  0  0  0  0  0
  -24.1497  -36.7241   23.2643 C   0  0  0  0  0  0
  -26.0124  -30.6990   21.3886 C   0  0  0  0  0  0
  -26.0834  -29.3062   20.7291 C   0  0  0  0  0  0
  -27.2416  -28.4339   20.7314 C   0  0  0  0  0  0
  -26.0164  -26.7713   19.4940 C   0  0  0  0  0  0
  -24.8866  -27.6208   19.4753 C   0  0  0  0  0  0
  -23.6822  -29.7787   20.1514 C   0  0  0  0  0  0
  -25.4132  -36.3013   24.0310 C   0  0  1  0  0  0
  -20.5922  -28.3722   23.1223 C   0  0  2  0  0  0
  -20.6785  -26.9420   22.5400 C   0  0  0  0  0  0
  -19.5760  -26.6377   21.5207 C   0  0  0  0  0  0
  -18.1942  -26.7931   22.1618 C   0  0  0  0  0  0
  -19.1564  -28.8874   23.2841 C   0  0  0  0  0  0
  -18.9477  -30.1470   23.8869 C   0  0  0  0  0  0
  -17.6471  -30.6587   24.0554 C   0  0  0  0  0  0
  -25.9081  -34.9388   23.5047 C   0  0  0  0  0  0
  -16.5364  -29.9073   23.6339 C   0  0  0  0  0  0
  -16.7291  -28.6493   23.0363 C   0  0  0  0  0  0
  -26.4542  -31.6545   25.0699 C   0  0  0  0  0  0
  -25.3718  -31.3745   26.1386 C   0  0  0  0  0  0
  -27.0414  -30.2929   24.6321 C   0  0  0  0  0  0
  -27.6057  -32.4327   25.7497 C   0  0  0  0  0  0
  -27.5580  -37.1775   24.8465 C   0  0  0  0  0  0
  -21.4271  -29.3042   22.3590 N   0  0  0  0  0  0
  -26.4291  -37.3731   23.9404 N   0  0  0  0  0  0
  -24.7244  -31.0204   22.0885 N   0  0  0  0  0  0
  -23.4204  -28.8076   23.3014 O   0  0  0  0  0  0
  -28.2693  -26.0899   20.2291 O   0  0  0  0  0  0
  -26.5675  -34.8897   22.4630 O   0  0  0  0  0  0
  -23.5580  -32.1289   23.7025 O   0  0  0  0  0  0
  -29.7639  -20.5546   20.6469 C   0  0  0  0  0  0
  -29.3937  -19.2271   20.2808 C   0  0  0  0  0  0
  -28.1761  -19.5229   19.5594 C   0  0  0  0  0  0
  -27.9352  -20.9102   19.5059 C   0  0  0  0  0  0
  -26.8466  -21.6767   18.8161 C   0  0  0  0  0  0
  -27.3664  -18.4791   17.3889 C   0  0  0  0  0  0
  -25.8831  -18.4303   19.4781 C   0  0  0  0  0  0
  -30.2096  -17.7664   20.5450 C   0  0  0  0  0  0
  -29.0739  -23.2365   20.4125 C   0  0  0  0  0  0
  -28.0319  -24.5410   20.0210 C   0  0  0  0  0  0
  -27.3171  -18.4420   18.9240 C   0  0  0  0  0  0
  -28.9039  -21.6404   20.2041 N   0  0  0  0  0  0
  -29.7677  -16.2321   20.4855 N   0  0  0  0  0  0
  -31.4697  -12.7972   19.1843 H   0  0  0  0  0  0
  -30.4420  -11.6964   20.0557 H   0  0  0  0  0  0
  -29.8529  -11.7242   17.6041 H   0  0  0  0  0  0
  -29.5967  -13.4510   17.6723 H   0  0  0  0  0  0
  -27.9690  -11.2704   19.0064 H   0  0  0  0  0  0
  -27.3930  -12.4153   17.8230 H   0  0  0  0  0  0
  -27.5687  -14.2458   19.3785 H   0  0  0  0  0  0
  -28.7692  -12.3646   21.4677 H   0  0  0  0  0  0
  -28.3538  -14.0440   21.7245 H   0  0  0  0  0  0
  -25.2771   -9.5669   22.4769 H   0  0  0  0  0  0
  -24.0001   -7.4621   22.7485 H   0  0  0  0  0  0
  -21.0851   -8.8768   19.8943 H   0  0  0  0  0  0
  -22.3718  -10.9665   19.6167 H   0  0  0  0  0  0
  -21.2002   -7.6149   23.9711 H   0  0  0  0  0  0
  -21.1485   -6.0530   25.9079 H   0  0  0  0  0  0
  -22.0599   -2.7612   23.2847 H   0  0  0  0  0  0
  -22.4028  -11.9836   22.4844 H   0  0  0  0  0  0
  -21.1028  -13.1196   22.2633 H   0  0  0  0  0  0
  -24.6373  -15.8367   20.5411 H   0  0  0  0  0  0
  -26.2449  -15.6306   20.0660 H   0  0  0  0  0  0
  -26.7293  -32.5257   23.0961 H   0  0  0  0  0  0
  -25.0081  -33.9582   25.0289 H   0  0  0  0  0  0
  -22.7585  -31.2824   21.3699 H   0  0  0  0  0  0
  -23.3766  -35.9564   23.3281 H   0  0  0  0  0  0
  -24.3583  -36.8902   22.2062 H   0  0  0  0  0  0
  -23.7243  -37.6423   23.6703 H   0  0  0  0  0  0
  -26.1747  -31.4528   20.6170 H   0  0  0  0  0  0
  -26.8794  -30.7487   22.0358 H   0  0  0  0  0  0
  -28.1390  -28.7609   21.2374 H   0  0  0  0  0  0
  -25.9156  -25.8133   19.0062 H   0  0  0  0  0  0
  -23.9872  -27.2840   18.9783 H   0  0  0  0  0  0
  -23.8176  -30.5498   19.3923 H   0  0  0  0  0  0
  -22.7970  -29.2193   19.8434 H   0  0  0  0  0  0
  -25.1323  -36.1832   25.0800 H   0  0  0  0  0  0
  -21.0017  -28.3314   24.1344 H   0  0  0  0  0  0
  -20.5669  -26.2336   23.3624 H   0  0  0  0  0  0
  -21.6649  -26.7413   22.1207 H   0  0  0  0  0  0
  -19.6920  -25.6284   21.1250 H   0  0  0  0  0  0
  -19.6696  -27.3176   20.6729 H   0  0  0  0  0  0
  -17.4212  -26.6682   21.4019 H   0  0  0  0  0  0
  -18.0337  -26.0076   22.9015 H   0  0  0  0  0  0
  -19.7951  -30.7295   24.2223 H   0  0  0  0  0  0
  -17.5023  -31.6267   24.5156 H   0  0  0  0  0  0
  -15.5363  -30.2961   23.7682 H   0  0  0  0  0  0
  -15.8695  -28.0798   22.7097 H   0  0  0  0  0  0
  -24.5908  -30.7088   25.7699 H   0  0  0  0  0  0
  -24.8905  -32.2932   26.4746 H   0  0  0  0  0  0
  -25.7997  -30.8956   27.0203 H   0  0  0  0  0  0
  -26.3042  -29.6631   24.1332 H   0  0  0  0  0  0
  -27.4000  -29.7254   25.4920 H   0  0  0  0  0  0
  -27.8963  -30.4133   23.9665 H   0  0  0  0  0  0
  -27.2633  -33.3648   26.2005 H   0  0  0  0  0  0
  -28.3910  -32.6856   25.0361 H   0  0  0  0  0  0
  -28.0682  -31.8503   26.5474 H   0  0  0  0  0  0
  -28.2577  -38.0091   24.7520 H   0  0  0  0  0  0
  -28.1097  -36.2618   24.6284 H   0  0  0  0  0  0
  -27.2298  -37.1411   25.8868 H   0  0  0  0  0  0
  -20.9488  -29.8744   21.6757 H   0  0  0  0  0  0
  -26.0152  -38.2796   24.1405 H   0  0  0  0  0  0
  -30.6443  -20.8437   21.2072 H   0  0  0  0  0  0
  -26.1860  -21.0435   18.2315 H   0  0  0  0  0  0
  -27.2678  -22.3980   18.1167 H   0  0  0  0  0  0
  -26.2287  -22.2127   19.5360 H   0  0  0  0  0  0
  -28.3942  -18.4075   17.0317 H   0  0  0  0  0  0
  -26.9398  -19.3915   16.9771 H   0  0  0  0  0  0
  -26.8161  -17.6401   16.9619 H   0  0  0  0  0  0
  -25.8883  -18.2843   20.5587 H   0  0  0  0  0  0
  -25.3021  -17.6201   19.0390 H   0  0  0  0  0  0
  -25.3388  -19.3502   19.2798 H   0  0  0  0  0  0
  -30.6331  -17.8757   21.5442 H   0  0  0  0  0  0
  -31.0761  -17.8256   19.8853 H   0  0  0  0  0  0
  -29.2855  -23.3544   21.4749 H   0  0  0  0  0  0
  -30.0203  -23.4759   19.9280 H   0  0  0  0  0  0
  -27.0860  -24.3215   20.5160 H   0  0  0  0  0  0
  -27.8241  -24.4486   18.9557 H   0  0  0  0  0  0
  -27.7526  -17.4858   19.2094 H   0  0  0  0  0  0
  -28.7770  -16.0831   20.5942 H   0  0  0  0  0  0
  1 25  1  0  0  0
  1 30  2  0  0  0
  1 83  1  0  0  0
  2  3  1  0  0  0
  2 25  1  0  0  0
  2 84  1  0  0  0
  2 85  1  0  0  0
  3  4  1  0  0  0
  3 86  1  0  0  0
  3 87  1  0  0  0
  4  5  1  0  0  0
  4 88  1  0  0  0
  4 89  1  0  0  0
  5  6  1  0  0  0
  5 26  1  0  0  0
  5 90  1  0  0  0
  6 25  1  0  0  0
  6 91  1  0  0  0
  6 92  1  0  0  0
  7  8  2  0  0  0
  7 26  1  0  0  0
  7 29  1  0  0  0
  8  9  1  0  0  0
  8 22  1  0  0  0
  9 10  1  0  0  0
  9 27  2  0  0  0
 10 11  2  0  0  0
 10 15  1  0  0  0
 11 12  1  0  0  0
 11 93  1  0  0  0
 12 13  2  0  0  0
 12 94  1  0  0  0
 13 14  1  0  0  0
 13 31  1  0  0  0
 14 15  2  0  0  0
 14 95  1  0  0  0
 15 96  1  0  0  0
 16 17  2  0  0  0
 16 21  1  0  0  0
 16 31  1  0  0  0
 17 18  1  0  0  0
 17 97  1  0  0  0
 18 19  2  0  0  0
 18 98  1  0  0  0
 19 20  1  0  0  0
 19 24  1  0  0  0
 20 21  2  0  0  0
 20 99  1  0  0  0
 21 23  1  0  0  0
 22 28  1  0  0  0
 22 32  2  0  0  0
 26 27  1  0  0  0
 28100  1  0  0  0
 28101  1  0  0  0
 29102  1  0  0  0
 29103  1  0  0  0
 33 34  1  0  0  0
 33 66  1  0  0  0
 33 70  2  0  0  0
 34 36  1  0  0  0
 34 59  1  0  0  0
 34104  1  0  0  0
 35 44  2  0  0  0
 35 45  1  0  0  0
 35 68  1  0  0  0
 36 56  1  0  0  0
 36105  1  0  0  0
 37 39  1  0  0  0
 37 47  1  0  0  0
 37 66  1  0  0  0
 37106  1  0  0  0
 38 43  2  0  0  0
 38 46  1  0  0  0
 38 47  1  0  0  0
 39 64  1  0  0  0
 39 67  2  0  0  0
 40 52  1  0  0  0
 40 53  2  0  0  0
 40 58  1  0  0  0
 41107  1  0  0  0
 41108  1  0  0  0
 41109  1  0  0  0
 41 48  1  0  0  0
 42 43  1  0  0  0
 42 66  1  0  0  0
 42110  1  0  0  0
 42111  1  0  0  0
 43 44  1  0  0  0
 44112  1  0  0  0
 45 46  2  0  0  0
 45113  1  0  0  0
 46114  1  0  0  0
 47115  1  0  0  0
 47116  1  0  0  0
 48 56  1  0  0  0
 48 65  1  0  0  0
 48117  1  0  0  0
 49 50  1  0  0  0
 49 53  1  0  0  0
 49 64  1  0  0  0
 49118  1  0  0  0
 50 51  1  0  0  0
 50119  1  0  0  0
 50120  1  0  0  0
 51 52  1  0  0  0
 51121  1  0  0  0
 51122  1  0  0  0
 52123  1  0  0  0
 52124  1  0  0  0
 53 54  1  0  0  0
 54 55  2  0  0  0
 54125  1  0  0  0
 55 57  1  0  0  0
 55126  1  0  0  0
 56 69  2  0  0  0
 57 58  2  0  0  0
 57127  1  0  0  0
 58128  1  0  0  0
 59 60  1  0  0  0
 59 61  1  0  0  0
 59 62  1  0  0  0
 60129  1  0  0  0
 60130  1  0  0  0
 60131  1  0  0  0
 61132  1  0  0  0
 61133  1  0  0  0
 61134  1  0  0  0
 62135  1  0  0  0
 62136  1  0  0  0
 62137  1  0  0  0
 63 65  1  0  0  0
 63138  1  0  0  0
 63139  1  0  0  0
 63140  1  0  0  0
 64141  1  0  0  0
 65142  1  0  0  0
 68 80  1  0  0  0
 71 72  2  0  0  0
 71 82  1  0  0  0
 71143  1  0  0  0
 72 73  1  0  0  0
 72 78  1  0  0  0
 73 74  2  0  0  0
 73 81  1  0  0  0
 74 75  1  0  0  0
 74 82  1  0  0  0
 75144  1  0  0  0
 75145  1  0  0  0
 75146  1  0  0  0
 76147  1  0  0  0
 76148  1  0  0  0
 76149  1  0  0  0
 76 81  1  0  0  0
 77 81  1  0  0  0
 77150  1  0  0  0
 77151  1  0  0  0
 77152  1  0  0  0
 78 83  1  0  0  0
 78153  1  0  0  0
 78154  1  0  0  0
 79 80  1  0  0  0
 79 82  1  0  0  0
 79155  1  0  0  0
 79156  1  0  0  0
 80157  1  0  0  0
 80158  1  0  0  0
 81159  1  0  0  0
 83160  1  0  0  0
M  ISO  4   1 100  68 101  80 101  83 100
M  END
> <chiral flag>
0

> <version>
0

> <s_m_source_file>
/data/baiqing/PycharmProjects/Reinvent-master-3.2/result/LINK_invent/BTK/process_docking_weight1_custom_sum_contain_oxygen_bond_distance_aromatic_linkinvent_7_9_3/rearranged_h_0104.sdf

> <i_m_source_file_index>
82

> <r_mmod_Potential_Energy-OPLS-2005>
526.964172363281

> <r_mmod_Stretch_Energy-OPLS-2005>
308.369415283203

> <r_mmod_Bend_Energy-OPLS-2005>
302.146301269531

> <r_mmod_Torsional_Energy-OPLS-2005>
214.163787841797

> <r_mmod_Improper_Torsional_Energy-OPLS-2005>
4.47830867767334

> <r_mmod_Van_der_Waal_Energy-OPLS-2005>
103.531028747559

> <r_mmod_Electrostatic_Energy-OPLS-2005>
-431.468200683594

> <r_mmod_Solvation_Energy-OPLS-2005>
-213.138076782227

> <b_mmod_Minimization_Converged-OPLS-2005>
0

> <r_mmod_RMS_Derivative-OPLS-2005>
1.00226378440857

$$$$
82
                    3D
 Structure written by MMmdl.
169177  0  0  1  0            999 V2000
  -30.7094  -14.4037   20.6784 C   0  0  0  0  0  0
  -30.4341  -12.3022   19.4119 C   0  0  0  0  0  0
  -29.4958  -12.5277   18.2084 C   0  0  0  0  0  0
  -28.0168  -12.3782   18.6175 C   0  0  0  0  0  0
  -27.6681  -13.1975   19.8871 C   0  0  2  0  0  0
  -28.7010  -12.9207   21.0006 C   0  0  0  0  0  0
  -25.2594  -13.8145   20.5659 C   0  0  0  0  0  0
  -24.1828  -13.0424   20.9158 C   0  0  0  0  0  0
  -24.6366  -11.6901   20.8719 C   0  0  0  0  0  0
  -23.9035  -10.4290   21.0405 C   0  0  0  0  0  0
  -24.3600   -9.4221   21.9178 C   0  0  0  0  0  0
  -23.6284   -8.2247   22.0758 C   0  0  0  0  0  0
  -22.4255   -8.0285   21.3548 C   0  0  0  0  0  0
  -21.9891   -9.0248   20.4651 C   0  0  0  0  0  0
  -22.7213  -10.2134   20.3052 C   0  0  0  0  0  0
  -21.6850   -6.0730   22.5277 C   0  0  0  0  0  0
  -21.4013   -6.5634   23.8222 C   0  0  0  0  0  0
  -21.3657   -5.6791   24.9177 C   0  0  0  0  0  0
  -21.6045   -4.3052   24.7231 C   0  0  0  0  0  0
  -21.8818   -3.8143   23.4344 C   0  0  0  0  0  0
  -21.9191   -4.6956   22.3410 C   0  0  0  0  0  0
  -22.7849  -13.5250   21.1821 C   0  0  0  0  0  0
  -22.1659   -4.2143   21.0982 F   0  0  0  0  0  0
  -21.5626   -3.4540   25.7740 F   0  0  0  0  0  0
  -30.0440  -13.2374   20.4757 N   0  0  0  0  0  0
  -26.3038  -12.9306   20.3382 N   0  0  0  0  0  0
  -25.9291  -11.6469   20.5752 N   0  0  0  0  0  0
  -22.0492  -12.8244   22.0403 N   0  0  0  0  0  0
  -25.4312  -15.1862   20.4068 N   0  0  0  0  0  0
  -31.7583  -14.7004   20.0952 O   0  0  0  0  0  0
  -21.6629   -6.8861   21.4240 O   0  0  0  0  0  0
  -22.3541  -14.5552   20.6679 O   0  0  0  0  0  0
  -24.6128  -31.8711   23.2150 C   0  0  0  0  0  0
  -25.9025  -32.4861   23.8423 C   0  0  1  0  0  0
  -27.2427  -27.4637   20.0864 C   0  0  0  0  0  0
  -25.5891  -33.8651   24.2362 N   0  0  0  0  0  0
  -23.4038  -30.4898   21.5541 C   0  0  2  0  0  0
  -24.8561  -28.9629   20.1147 C   0  0  0  0  0  0
  -22.7419  -29.4645   22.5025 C   0  0  0  0  0  0
  -18.0267  -28.1382   22.8494 C   0  0  0  0  0  0
  -24.1485  -36.7314   23.2641 C   0  0  0  0  0  0
  -25.9310  -30.8384   21.3697 C   0  0  0  0  0  0
  -26.0106  -29.4724   20.7243 C   0  0  0  0  0  0
  -27.2080  -28.7225   20.7205 C   0  0  0  0  0  0
  -26.0876  -26.9779   19.4446 C   0  0  0  0  0  0
  -24.8860  -27.7095   19.4794 C   0  0  0  0  0  0
  -23.6133  -29.8217   20.1683 C   0  0  0  0  0  0
  -25.4104  -36.3130   24.0349 C   0  0  1  0  0  0
  -20.5859  -28.3662   23.1331 C   0  0  2  0  0  0
  -20.6772  -26.9398   22.5433 C   0  0  0  0  0  0
  -19.5749  -26.6392   21.5232 C   0  0  0  0  0  0
  -18.1906  -26.7937   22.1624 C   0  0  0  0  0  0
  -19.1514  -28.8842   23.2910 C   0  0  0  0  0  0
  -18.9437  -30.1445   23.8921 C   0  0  0  0  0  0
  -17.6451  -30.6587   24.0563 C   0  0  0  0  0  0
  -25.9020  -34.9493   23.5152 C   0  0  0  0  0  0
  -16.5337  -29.9096   23.6328 C   0  0  0  0  0  0
  -16.7253  -28.6511   23.0351 C   0  0  0  0  0  0
  -26.4439  -31.6623   25.0740 C   0  0  0  0  0  0
  -25.3696  -31.3734   26.1490 C   0  0  0  0  0  0
  -27.0249  -30.3060   24.6107 C   0  0  0  0  0  0
  -27.6038  -32.4322   25.7483 C   0  0  0  0  0  0
  -27.5577  -37.1815   24.8468 C   0  0  0  0  0  0
  -21.4146  -29.3033   22.3754 N   0  0  0  0  0  0
  -26.4294  -37.3814   23.9407 N   0  0  0  0  0  0
  -24.6666  -31.0800   22.1055 N   0  0  0  0  0  0
  -23.4192  -28.8196   23.3064 O   0  0  0  0  0  0
  -28.4002  -26.7313   20.0169 O   0  0  0  0  0  0
  -26.5570  -34.8930   22.4706 O   0  0  0  0  0  0
  -23.5303  -32.1466   23.7527 O   0  0  0  0  0  0
  -28.6911  -19.5923   22.0702 C   0  0  0  0  0  0
  -30.1038  -21.0253   23.0228 C   0  0  0  0  0  0
  -29.6229  -18.8429   22.7431 C   0  0  0  0  0  0
  -30.5440  -19.7675   23.3414 C   0  0  0  0  0  0
  -31.3510  -19.2431   25.6581 C   0  0  0  0  0  0
  -32.8398  -20.5470   24.0837 C   0  0  0  0  0  0
  -26.5701  -24.6398   21.7890 C   0  0  0  0  0  0
  -29.6247  -17.3252   22.8164 C   0  0  0  0  0  0
  -28.8102  -23.4196   21.7357 C   0  0  0  0  0  0
  -28.1324  -22.0247   21.7671 C   0  0  0  0  0  0
  -30.3530  -16.6867   21.6160 C   0  0  0  0  0  0
  -28.6994  -25.9015   21.1387 C   0  0  0  0  0  0
  -31.7612  -19.4507   24.1938 C   0  0  0  0  0  0
  -27.9493  -24.5419   21.1024 C   0  0  2  0  0  0
  -28.9663  -20.9321   22.2524 N   0  0  0  0  0  0
  -30.0947  -15.2522   21.5148 N   0  0  0  0  0  0
  -31.4738  -12.4376   19.1082 H   0  0  0  0  0  0
  -30.3641  -11.2761   19.7757 H   0  0  0  0  0  0
  -29.7382  -11.8277   17.4082 H   0  0  0  0  0  0
  -29.6614  -13.5267   17.8010 H   0  0  0  0  0  0
  -27.8275  -11.3195   18.7975 H   0  0  0  0  0  0
  -27.3672  -12.6685   17.7902 H   0  0  0  0  0  0
  -27.7298  -14.2527   19.6224 H   0  0  0  0  0  0
  -28.6656  -11.8691   21.2869 H   0  0  0  0  0  0
  -28.4375  -13.4621   21.9096 H   0  0  0  0  0  0
  -25.2742   -9.5691   22.4763 H   0  0  0  0  0  0
  -23.9988   -7.4634   22.7484 H   0  0  0  0  0  0
  -21.0817   -8.8754   19.8966 H   0  0  0  0  0  0
  -22.3659  -10.9658   19.6168 H   0  0  0  0  0  0
  -21.2011   -7.6145   23.9715 H   0  0  0  0  0  0
  -21.1481   -6.0524   25.9081 H   0  0  0  0  0  0
  -22.0599   -2.7602   23.2852 H   0  0  0  0  0  0
  -22.4082  -11.9900   22.4786 H   0  0  0  0  0  0
  -21.1129  -13.1306   22.2632 H   0  0  0  0  0  0
  -24.6647  -15.8429   20.5107 H   0  0  0  0  0  0
  -26.2903  -15.6255   20.0998 H   0  0  0  0  0  0
  -26.7114  -32.5577   23.1202 H   0  0  0  0  0  0
  -25.0125  -33.9827   25.0559 H   0  0  0  0  0  0
  -22.6910  -31.3038   21.4127 H   0  0  0  0  0  0
  -23.3755  -35.9634   23.3323 H   0  0  0  0  0  0
  -24.3575  -36.8901   22.2037 H   0  0  0  0  0  0
  -23.7201  -37.6524   23.6617 H   0  0  0  0  0  0
  -26.0375  -31.5998   20.5943 H   0  0  0  0  0  0
  -26.8200  -30.8966   21.9888 H   0  0  0  0  0  0
  -28.1028  -29.1117   21.1851 H   0  0  0  0  0  0
  -26.1159  -26.0228   18.9399 H   0  0  0  0  0  0
  -24.0018  -27.3140   18.9992 H   0  0  0  0  0  0
  -23.7146  -30.5930   19.4061 H   0  0  0  0  0  0
  -22.7425  -29.2340   19.8783 H   0  0  0  0  0  0
  -25.1268  -36.2035   25.0848 H   0  0  0  0  0  0
  -20.9921  -28.3215   24.1473 H   0  0  0  0  0  0
  -20.5699  -26.2251   23.3609 H   0  0  0  0  0  0
  -21.6627  -26.7479   22.1193 H   0  0  0  0  0  0
  -19.6905  -25.6309   21.1243 H   0  0  0  0  0  0
  -19.6686  -27.3213   20.6767 H   0  0  0  0  0  0
  -17.4194  -26.6702   21.4008 H   0  0  0  0  0  0
  -18.0279  -26.0066   22.8996 H   0  0  0  0  0  0
  -19.7908  -30.7244   24.2305 H   0  0  0  0  0  0
  -17.5001  -31.6270   24.5157 H   0  0  0  0  0  0
  -15.5329  -30.3011   23.7646 H   0  0  0  0  0  0
  -15.8654  -28.0847   22.7070 H   0  0  0  0  0  0
  -24.5892  -30.7064   25.7831 H   0  0  0  0  0  0
  -24.8851  -32.2875   26.4919 H   0  0  0  0  0  0
  -25.8035  -30.8928   27.0268 H   0  0  0  0  0  0
  -26.2783  -29.6845   24.1174 H   0  0  0  0  0  0
  -27.4016  -29.7286   25.4558 H   0  0  0  0  0  0
  -27.8612  -30.4370   23.9247 H   0  0  0  0  0  0
  -27.2728  -33.3682   26.1997 H   0  0  0  0  0  0
  -28.3869  -32.6791   25.0302 H   0  0  0  0  0  0
  -28.0663  -31.8473   26.5445 H   0  0  0  0  0  0
  -28.2626  -38.0095   24.7531 H   0  0  0  0  0  0
  -28.1055  -36.2626   24.6297 H   0  0  0  0  0  0
  -27.2293  -37.1465   25.8879 H   0  0  0  0  0  0
  -20.9326  -29.8736   21.6950 H   0  0  0  0  0  0
  -26.0208  -38.2905   24.1413 H   0  0  0  0  0  0
  -27.8306  -19.2855   21.4838 H   0  0  0  0  0  0
  -30.4998  -21.9916   23.3006 H   0  0  0  0  0  0
  -30.6423  -18.4189   25.7640 H   0  0  0  0  0  0
  -30.8824  -20.1438   26.0603 H   0  0  0  0  0  0
  -32.2172  -19.0143   26.2822 H   0  0  0  0  0  0
  -33.1388  -20.7053   23.0470 H   0  0  0  0  0  0
  -33.7345  -20.2812   24.6503 H   0  0  0  0  0  0
  -32.4836  -21.4995   24.4809 H   0  0  0  0  0  0
  -25.9863  -23.7317   21.6442 H   0  0  0  0  0  0
  -25.9539  -25.4384   21.3992 H   0  0  0  0  0  0
  -26.6632  -24.8332   22.8564 H   0  0  0  0  0  0
  -28.5859  -16.9876   22.8534 H   0  0  0  0  0  0
  -30.0803  -17.0083   23.7572 H   0  0  0  0  0  0
  -29.0662  -23.7139   22.7539 H   0  0  0  0  0  0
  -29.7559  -23.3520   21.1894 H   0  0  0  0  0  0
  -27.7765  -21.7584   20.7679 H   0  0  0  0  0  0
  -27.2597  -22.0604   22.4205 H   0  0  0  0  0  0
  -31.4238  -16.8898   21.6766 H   0  0  0  0  0  0
  -30.0011  -17.1461   20.6919 H   0  0  0  0  0  0
  -29.7727  -25.7160   21.0837 H   0  0  0  0  0  0
  -28.5444  -26.4203   22.0877 H   0  0  0  0  0  0
  -32.1943  -18.5202   23.8235 H   0  0  0  0  0  0
  -27.8065  -24.2815   20.0530 H   0  0  0  0  0  0
  -29.2603  -14.9016   21.9633 H   0  0  0  0  0  0
  1 25  1  0  0  0
  1 30  2  0  0  0
  1 86  1  0  0  0
  2  3  1  0  0  0
  2 25  1  0  0  0
  2 87  1  0  0  0
  2 88  1  0  0  0
  3  4  1  0  0  0
  3 89  1  0  0  0
  3 90  1  0  0  0
  4  5  1  0  0  0
  4 91  1  0  0  0
  4 92  1  0  0  0
  5  6  1  0  0  0
  5 26  1  0  0  0
  5 93  1  0  0  0
  6 25  1  0  0  0
  6 94  1  0  0  0
  6 95  1  0  0  0
  7  8  2  0  0  0
  7 26  1  0  0  0
  7 29  1  0  0  0
  8  9  1  0  0  0
  8 22  1  0  0  0
  9 10  1  0  0  0
  9 27  2  0  0  0
 10 11  2  0  0  0
 10 15  1  0  0  0
 11 12  1  0  0  0
 11 96  1  0  0  0
 12 13  2  0  0  0
 12 97  1  0  0  0
 13 14  1  0  0  0
 13 31  1  0  0  0
 14 15  2  0  0  0
 14 98  1  0  0  0
 15 99  1  0  0  0
 16 17  2  0  0  0
 16 21  1  0  0  0
 16 31  1  0  0  0
 17 18  1  0  0  0
 17100  1  0  0  0
 18 19  2  0  0  0
 18101  1  0  0  0
 19 20  1  0  0  0
 19 24  1  0  0  0
 20 21  2  0  0  0
 20102  1  0  0  0
 21 23  1  0  0  0
 22 28  1  0  0  0
 22 32  2  0  0  0
 26 27  1  0  0  0
 28103  1  0  0  0
 28104  1  0  0  0
 29105  1  0  0  0
 29106  1  0  0  0
 33 34  1  0  0  0
 33 66  1  0  0  0
 33 70  2  0  0  0
 34 36  1  0  0  0
 34 59  1  0  0  0
 34107  1  0  0  0
 35 44  2  0  0  0
 35 45  1  0  0  0
 35 68  1  0  0  0
 36 56  1  0  0  0
 36108  1  0  0  0
 37 39  1  0  0  0
 37 47  1  0  0  0
 37 66  1  0  0  0
 37109  1  0  0  0
 38 43  2  0  0  0
 38 46  1  0  0  0
 38 47  1  0  0  0
 39 64  1  0  0  0
 39 67  2  0  0  0
 40 52  1  0  0  0
 40 53  2  0  0  0
 40 58  1  0  0  0
 41110  1  0  0  0
 41111  1  0  0  0
 41112  1  0  0  0
 41 48  1  0  0  0
 42 43  1  0  0  0
 42 66  1  0  0  0
 42113  1  0  0  0
 42114  1  0  0  0
 43 44  1  0  0  0
 44115  1  0  0  0
 45 46  2  0  0  0
 45116  1  0  0  0
 46117  1  0  0  0
 47118  1  0  0  0
 47119  1  0  0  0
 48 56  1  0  0  0
 48 65  1  0  0  0
 48120  1  0  0  0
 49 50  1  0  0  0
 49 53  1  0  0  0
 49 64  1  0  0  0
 49121  1  0  0  0
 50 51  1  0  0  0
 50122  1  0  0  0
 50123  1  0  0  0
 51 52  1  0  0  0
 51124  1  0  0  0
 51125  1  0  0  0
 52126  1  0  0  0
 52127  1  0  0  0
 53 54  1  0  0  0
 54 55  2  0  0  0
 54128  1  0  0  0
 55 57  1  0  0  0
 55129  1  0  0  0
 56 69  2  0  0  0
 57 58  2  0  0  0
 57130  1  0  0  0
 58131  1  0  0  0
 59 60  1  0  0  0
 59 61  1  0  0  0
 59 62  1  0  0  0
 60132  1  0  0  0
 60133  1  0  0  0
 60134  1  0  0  0
 61135  1  0  0  0
 61136  1  0  0  0
 61137  1  0  0  0
 62138  1  0  0  0
 62139  1  0  0  0
 62140  1  0  0  0
 63 65  1  0  0  0
 63141  1  0  0  0
 63142  1  0  0  0
 63143  1  0  0  0
 64144  1  0  0  0
 65145  1  0  0  0
 68 82  1  0  0  0
 71 73  2  0  0  0
 71 85  1  0  0  0
 71146  1  0  0  0
 72 74  2  0  0  0
 72 85  1  0  0  0
 72147  1  0  0  0
 73 74  1  0  0  0
 73 78  1  0  0  0
 74 83  1  0  0  0
 75148  1  0  0  0
 75149  1  0  0  0
 75150  1  0  0  0
 75 83  1  0  0  0
 76 83  1  0  0  0
 76151  1  0  0  0
 76152  1  0  0  0
 76153  1  0  0  0
 77154  1  0  0  0
 77155  1  0  0  0
 77156  1  0  0  0
 77 84  1  0  0  0
 78 81  1  0  0  0
 78157  1  0  0  0
 78158  1  0  0  0
 79 80  1  0  0  0
 79 84  1  0  0  0
 79159  1  0  0  0
 79160  1  0  0  0
 80 85  1  0  0  0
 80161  1  0  0  0
 80162  1  0  0  0
 81 86  1  0  0  0
 81163  1  0  0  0
 81164  1  0  0  0
 82 84  1  0  0  0
 82165  1  0  0  0
 82166  1  0  0  0
 83167  1  0  0  0
 84168  1  0  0  0
 86169  1  0  0  0
M  ISO  4   1 100  68 101  82 101  86 100
M  END
> <chiral flag>
0

> <version>
0

> <s_m_source_file>
/data/baiqing/PycharmProjects/Reinvent-master-3.2/result/LINK_invent/BTK/process_docking_weight1_custom_sum_contain_oxygen_bond_distance_aromatic_linkinvent_7_9_3/rearranged_h_0104.sdf

> <i_m_source_file_index>
83

> <r_mmod_Potential_Energy-OPLS-2005>
-104.89533996582

> <r_mmod_Stretch_Energy-OPLS-2005>
33.2426910400391

> <r_mmod_Bend_Energy-OPLS-2005>
96.0903930664062

> <r_mmod_Torsional_Energy-OPLS-2005>
239.946044921875

> <r_mmod_Improper_Torsional_Energy-OPLS-2005>
2.99442076683044

> <r_mmod_Van_der_Waal_Energy-OPLS-2005>
128.802429199219

> <r_mmod_Electrostatic_Energy-OPLS-2005>
-410.825531005859

> <r_mmod_Solvation_Energy-OPLS-2005>
-203.403167724609

> <b_mmod_Minimization_Converged-OPLS-2005>
0

> <r_mmod_RMS_Derivative-OPLS-2005>
5.42526006698608

$$$$
83
                    3D
 Structure written by MMmdl.
158166  0  0  1  0            999 V2000
  -30.6409  -14.7251   20.3991 C   0  0  0  0  0  0
  -30.4447  -12.4308   19.4590 C   0  0  0  0  0  0
  -29.5146  -12.4885   18.2316 C   0  0  0  0  0  0
  -28.0427  -12.3287   18.6575 C   0  0  0  0  0  0
  -27.6574  -13.2332   19.8561 C   0  0  2  0  0  0
  -28.7116  -13.1769   20.9832 C   0  0  0  0  0  0
  -25.2618  -13.8205   20.5724 C   0  0  0  0  0  0
  -24.1922  -13.0492   20.9198 C   0  0  0  0  0  0
  -24.6518  -11.6930   20.8792 C   0  0  0  0  0  0
  -23.9206  -10.4309   21.0414 C   0  0  0  0  0  0
  -24.3702   -9.4199   21.9182 C   0  0  0  0  0  0
  -23.6344   -8.2259   22.0780 C   0  0  0  0  0  0
  -22.4294   -8.0309   21.3588 C   0  0  0  0  0  0
  -21.9970   -9.0303   20.4681 C   0  0  0  0  0  0
  -22.7374  -10.2159   20.3084 C   0  0  0  0  0  0
  -21.6813   -6.0762   22.5289 C   0  0  0  0  0  0
  -21.4017   -6.5652   23.8238 C   0  0  0  0  0  0
  -21.3668   -5.6788   24.9186 C   0  0  0  0  0  0
  -21.6045   -4.3051   24.7210 C   0  0  0  0  0  0
  -21.8829   -3.8166   23.4315 C   0  0  0  0  0  0
  -21.9214   -4.7003   22.3390 C   0  0  0  0  0  0
  -22.7926  -13.5257   21.1825 C   0  0  0  0  0  0
  -22.1661   -4.2190   21.0962 F   0  0  0  0  0  0
  -21.5639   -3.4529   25.7719 F   0  0  0  0  0  0
  -30.0121  -13.5010   20.3823 N   0  0  0  0  0  0
  -26.3068  -12.9457   20.3343 N   0  0  0  0  0  0
  -25.9453  -11.6580   20.5830 N   0  0  0  0  0  0
  -22.0552  -12.8277   22.0333 N   0  0  0  0  0  0
  -25.4367  -15.1966   20.4090 N   0  0  0  0  0  0
  -31.8348  -14.8036   20.1039 O   0  0  0  0  0  0
  -21.6647   -6.8903   21.4251 O   0  0  0  0  0  0
  -22.3633  -14.5564   20.6635 O   0  0  0  0  0  0
  -24.6300  -31.8582   23.1994 C   0  0  0  0  0  0
  -25.9138  -32.4737   23.8272 C   0  0  1  0  0  0
  -27.1378  -27.2785   20.0292 C   0  0  0  0  0  0
  -25.5863  -33.8525   24.2196 N   0  0  0  0  0  0
  -23.4045  -30.5066   21.5545 C   0  0  2  0  0  0
  -24.8110  -28.9419   20.1234 C   0  0  0  0  0  0
  -22.7356  -29.4775   22.5025 C   0  0  0  0  0  0
  -18.0251  -28.1292   22.8287 C   0  0  0  0  0  0
  -24.1460  -36.7319   23.2658 C   0  0  0  0  0  0
  -25.9558  -30.7676   21.3683 C   0  0  0  0  0  0
  -25.9984  -29.3963   20.7029 C   0  0  0  0  0  0
  -27.1619  -28.5704   20.6571 C   0  0  0  0  0  0
  -25.9115  -26.8822   19.4451 C   0  0  0  0  0  0
  -24.7650  -27.6937   19.4970 C   0  0  0  0  0  0
  -23.6002  -29.8499   20.1696 C   0  0  0  0  0  0
  -25.4090  -36.3083   24.0360 C   0  0  1  0  0  0
  -20.5819  -28.3691   23.1227 C   0  0  2  0  0  0
  -20.6912  -26.9509   22.5199 C   0  0  0  0  0  0
  -19.5876  -26.6158   21.5118 C   0  0  0  0  0  0
  -18.1924  -26.7904   22.1276 C   0  0  0  0  0  0
  -19.1474  -28.8743   23.2821 C   0  0  0  0  0  0
  -18.9394  -30.1273   23.8969 C   0  0  0  0  0  0
  -17.6410  -30.6486   24.0407 C   0  0  0  0  0  0
  -25.9050  -34.9430   23.5100 C   0  0  0  0  0  0
  -16.5315  -29.9074   23.5996 C   0  0  0  0  0  0
  -16.7254  -28.6470   23.0056 C   0  0  0  0  0  0
  -26.4496  -31.6604   25.0714 C   0  0  0  0  0  0
  -25.3648  -31.3795   26.1395 C   0  0  0  0  0  0
  -27.0319  -30.3016   24.6223 C   0  0  0  0  0  0
  -27.6016  -32.4387   25.7511 C   0  0  0  0  0  0
  -27.5552  -37.1820   24.8471 C   0  0  0  0  0  0
  -21.4045  -29.3200   22.3790 N   0  0  0  0  0  0
  -26.4260  -37.3797   23.9419 N   0  0  0  0  0  0
  -24.6884  -31.0568   22.0980 N   0  0  0  0  0  0
  -23.4146  -28.8243   23.3016 O   0  0  0  0  0  0
  -28.2590  -26.4302   19.9913 O   0  0  0  0  0  0
  -26.5658  -34.8990   22.4685 O   0  0  0  0  0  0
  -23.5456  -32.1444   23.7321 O   0  0  0  0  0  0
  -27.5449  -21.9416   18.3531 C   0  0  0  0  0  0
  -28.8221  -21.1931   20.2494 C   0  0  0  0  0  0
  -27.5584  -20.6046   17.9137 C   0  0  0  0  0  0
  -28.1398  -22.2850   19.5812 C   0  0  0  0  0  0
  -28.8382  -19.8365   19.7301 C   0  0  0  0  0  0
  -28.1745  -23.8424   21.6756 C   0  0  0  0  0  0
  -30.1390  -17.2147   18.3842 C   0  0  0  0  0  0
  -29.3328  -18.5419   20.5476 C   0  0  0  0  0  0
  -28.2278  -25.0726   19.3523 C   0  0  0  0  0  0
  -27.8364  -23.7370   20.1762 C   0  0  1  0  0  0
  -30.1584  -17.2742   19.9267 C   0  0  1  0  0  0
  -28.1557  -19.5868   18.5885 N   0  0  0  0  0  0
  -29.8646  -15.8674   20.4721 N   0  0  0  0  0  0
  -31.4859  -12.5395   19.1454 H   0  0  0  0  0  0
  -30.3831  -11.4593   19.9478 H   0  0  0  0  0  0
  -29.7832  -11.7033   17.5251 H   0  0  0  0  0  0
  -29.6483  -13.4381   17.7098 H   0  0  0  0  0  0
  -27.9008  -11.2840   18.9270 H   0  0  0  0  0  0
  -27.3775  -12.5182   17.8144 H   0  0  0  0  0  0
  -27.6528  -14.2537   19.4721 H   0  0  0  0  0  0
  -28.7444  -12.1939   21.4541 H   0  0  0  0  0  0
  -28.4738  -13.8846   21.7782 H   0  0  0  0  0  0
  -25.2859   -9.5604   22.4738 H   0  0  0  0  0  0
  -24.0030   -7.4627   22.7502 H   0  0  0  0  0  0
  -21.0883   -8.8843   19.8974 H   0  0  0  0  0  0
  -22.3861  -10.9680   19.6159 H   0  0  0  0  0  0
  -21.1982   -7.6150   23.9742 H   0  0  0  0  0  0
  -21.1483   -6.0507   25.9090 H   0  0  0  0  0  0
  -22.0608   -2.7625   23.2799 H   0  0  0  0  0  0
  -22.4151  -11.9956   22.4737 H   0  0  0  0  0  0
  -21.1204  -13.1335   22.2574 H   0  0  0  0  0  0
  -24.6645  -15.8507   20.5106 H   0  0  0  0  0  0
  -26.2900  -15.6274   20.0718 H   0  0  0  0  0  0
  -26.7226  -32.5416   23.0976 H   0  0  0  0  0  0
  -24.9873  -33.9630   25.0265 H   0  0  0  0  0  0
  -22.7129  -31.3425   21.4213 H   0  0  0  0  0  0
  -23.3703  -35.9652   23.3309 H   0  0  0  0  0  0
  -24.3582  -36.8917   22.2074 H   0  0  0  0  0  0
  -23.7270  -37.6552   23.6678 H   0  0  0  0  0  0
  -26.0954  -31.5341   20.5974 H   0  0  0  0  0  0
  -26.8336  -30.8038   22.0002 H   0  0  0  0  0  0
  -28.0789  -28.9143   21.1127 H   0  0  0  0  0  0
  -25.7713  -25.9478   18.9175 H   0  0  0  0  0  0
  -23.8469  -27.3652   19.0383 H   0  0  0  0  0  0
  -23.7218  -30.6152   19.4079 H   0  0  0  0  0  0
  -22.7046  -29.2915   19.8878 H   0  0  0  0  0  0
  -25.1281  -36.1915   25.0869 H   0  0  0  0  0  0
  -20.9838  -28.3224   24.1364 H   0  0  0  0  0  0
  -20.6167  -26.2328   23.3356 H   0  0  0  0  0  0
  -21.6790  -26.7885   22.0847 H   0  0  0  0  0  0
  -19.7073  -25.5906   21.1496 H   0  0  0  0  0  0
  -19.6943  -27.2509   20.6335 H   0  0  0  0  0  0
  -17.4408  -26.6975   21.3433 H   0  0  0  0  0  0
  -17.9974  -25.9880   22.8340 H   0  0  0  0  0  0
  -19.7802  -30.7038   24.2589 H   0  0  0  0  0  0
  -17.4981  -31.6199   24.4974 H   0  0  0  0  0  0
  -15.5334  -30.3115   23.6906 H   0  0  0  0  0  0
  -15.8716  -28.0716   22.6757 H   0  0  0  0  0  0
  -24.5816  -30.7192   25.7664 H   0  0  0  0  0  0
  -24.8868  -32.2993   26.4774 H   0  0  0  0  0  0
  -25.7884  -30.8966   27.0207 H   0  0  0  0  0  0
  -26.2900  -29.6795   24.1220 H   0  0  0  0  0  0
  -27.3930  -29.7304   25.4765 H   0  0  0  0  0  0
  -27.8812  -30.4263   23.9517 H   0  0  0  0  0  0
  -27.2550  -33.3660   26.2105 H   0  0  0  0  0  0
  -28.3802  -32.6997   25.0334 H   0  0  0  0  0  0
  -28.0714  -31.8528   26.5403 H   0  0  0  0  0  0
  -28.2613  -38.0081   24.7510 H   0  0  0  0  0  0
  -28.1013  -36.2625   24.6281 H   0  0  0  0  0  0
  -27.2301  -37.1495   25.8888 H   0  0  0  0  0  0
  -20.9129  -29.9383   21.7477 H   0  0  0  0  0  0
  -26.0123  -38.2875   24.1370 H   0  0  0  0  0  0
  -27.0210  -22.6907   17.7683 H   0  0  0  0  0  0
  -29.2759  -21.3794   21.2111 H   0  0  0  0  0  0
  -27.0002  -20.3246   17.0281 H   0  0  0  0  0  0
  -27.6000  -23.1225   22.2675 H   0  0  0  0  0  0
  -27.9108  -24.8339   22.0364 H   0  0  0  0  0  0
  -29.2422  -23.7070   21.8586 H   0  0  0  0  0  0
  -30.4889  -18.1443   17.9344 H   0  0  0  0  0  0
  -29.1305  -17.0263   18.0204 H   0  0  0  0  0  0
  -30.7743  -16.4181   17.9927 H   0  0  0  0  0  0
  -28.4581  -18.1510   21.0662 H   0  0  0  0  0  0
  -29.9534  -18.9382   21.3550 H   0  0  0  0  0  0
  -27.6169  -25.1203   18.4517 H   0  0  0  0  0  0
  -29.2181  -24.9064   18.9301 H   0  0  0  0  0  0
  -26.7463  -23.7417   20.1590 H   0  0  0  0  0  0
  -31.2021  -17.4749   20.1856 H   0  0  0  0  0  0
  -28.9112  -15.6958   20.7540 H   0  0  0  0  0  0
  1 25  1  0  0  0
  1 30  2  0  0  0
  1 83  1  0  0  0
  2  3  1  0  0  0
  2 25  1  0  0  0
  2 84  1  0  0  0
  2 85  1  0  0  0
  3  4  1  0  0  0
  3 86  1  0  0  0
  3 87  1  0  0  0
  4  5  1  0  0  0
  4 88  1  0  0  0
  4 89  1  0  0  0
  5  6  1  0  0  0
  5 26  1  0  0  0
  5 90  1  0  0  0
  6 25  1  0  0  0
  6 91  1  0  0  0
  6 92  1  0  0  0
  7  8  2  0  0  0
  7 26  1  0  0  0
  7 29  1  0  0  0
  8  9  1  0  0  0
  8 22  1  0  0  0
  9 10  1  0  0  0
  9 27  2  0  0  0
 10 11  2  0  0  0
 10 15  1  0  0  0
 11 12  1  0  0  0
 11 93  1  0  0  0
 12 13  2  0  0  0
 12 94  1  0  0  0
 13 14  1  0  0  0
 13 31  1  0  0  0
 14 15  2  0  0  0
 14 95  1  0  0  0
 15 96  1  0  0  0
 16 17  2  0  0  0
 16 21  1  0  0  0
 16 31  1  0  0  0
 17 18  1  0  0  0
 17 97  1  0  0  0
 18 19  2  0  0  0
 18 98  1  0  0  0
 19 20  1  0  0  0
 19 24  1  0  0  0
 20 21  2  0  0  0
 20 99  1  0  0  0
 21 23  1  0  0  0
 22 28  1  0  0  0
 22 32  2  0  0  0
 26 27  1  0  0  0
 28100  1  0  0  0
 28101  1  0  0  0
 29102  1  0  0  0
 29103  1  0  0  0
 33 34  1  0  0  0
 33 66  1  0  0  0
 33 70  2  0  0  0
 34 36  1  0  0  0
 34 59  1  0  0  0
 34104  1  0  0  0
 35 44  2  0  0  0
 35 45  1  0  0  0
 35 68  1  0  0  0
 36 56  1  0  0  0
 36105  1  0  0  0
 37 39  1  0  0  0
 37 47  1  0  0  0
 37 66  1  0  0  0
 37106  1  0  0  0
 38 43  2  0  0  0
 38 46  1  0  0  0
 38 47  1  0  0  0
 39 64  1  0  0  0
 39 67  2  0  0  0
 40 52  1  0  0  0
 40 53  2  0  0  0
 40 58  1  0  0  0
 41107  1  0  0  0
 41108  1  0  0  0
 41109  1  0  0  0
 41 48  1  0  0  0
 42 43  1  0  0  0
 42 66  1  0  0  0
 42110  1  0  0  0
 42111  1  0  0  0
 43 44  1  0  0  0
 44112  1  0  0  0
 45 46  2  0  0  0
 45113  1  0  0  0
 46114  1  0  0  0
 47115  1  0  0  0
 47116  1  0  0  0
 48 56  1  0  0  0
 48 65  1  0  0  0
 48117  1  0  0  0
 49 50  1  0  0  0
 49 53  1  0  0  0
 49 64  1  0  0  0
 49118  1  0  0  0
 50 51  1  0  0  0
 50119  1  0  0  0
 50120  1  0  0  0
 51 52  1  0  0  0
 51121  1  0  0  0
 51122  1  0  0  0
 52123  1  0  0  0
 52124  1  0  0  0
 53 54  1  0  0  0
 54 55  2  0  0  0
 54125  1  0  0  0
 55 57  1  0  0  0
 55126  1  0  0  0
 56 69  2  0  0  0
 57 58  2  0  0  0
 57127  1  0  0  0
 58128  1  0  0  0
 59 60  1  0  0  0
 59 61  1  0  0  0
 59 62  1  0  0  0
 60129  1  0  0  0
 60130  1  0  0  0
 60131  1  0  0  0
 61132  1  0  0  0
 61133  1  0  0  0
 61134  1  0  0  0
 62135  1  0  0  0
 62136  1  0  0  0
 62137  1  0  0  0
 63 65  1  0  0  0
 63138  1  0  0  0
 63139  1  0  0  0
 63140  1  0  0  0
 64141  1  0  0  0
 65142  1  0  0  0
 68 79  1  0  0  0
 71 73  2  0  0  0
 71 74  1  0  0  0
 71143  1  0  0  0
 72 74  2  0  0  0
 72 75  1  0  0  0
 72144  1  0  0  0
 73 82  1  0  0  0
 73145  1  0  0  0
 74 80  1  0  0  0
 75 78  1  0  0  0
 75 82  2  0  0  0
 76146  1  0  0  0
 76147  1  0  0  0
 76148  1  0  0  0
 76 80  1  0  0  0
 77149  1  0  0  0
 77150  1  0  0  0
 77151  1  0  0  0
 77 81  1  0  0  0
 78 81  1  0  0  0
 78152  1  0  0  0
 78153  1  0  0  0
 79 80  1  0  0  0
 79154  1  0  0  0
 79155  1  0  0  0
 80156  1  0  0  0
 81 83  1  0  0  0
 81157  1  0  0  0
 83158  1  0  0  0
M  ISO  4   1 100  68 101  79 101  83 100
M  END
> <chiral flag>
0

> <version>
0

> <s_m_source_file>
/data/baiqing/PycharmProjects/Reinvent-master-3.2/result/LINK_invent/BTK/process_docking_weight1_custom_sum_contain_oxygen_bond_distance_aromatic_linkinvent_7_9_3/rearranged_h_0104.sdf

> <i_m_source_file_index>
84

> <r_mmod_Potential_Energy-OPLS-2005>
86.9103851318359

> <r_mmod_Stretch_Energy-OPLS-2005>
124.389221191406

> <r_mmod_Bend_Energy-OPLS-2005>
179.485412597656

> <r_mmod_Torsional_Energy-OPLS-2005>
217.221664428711

> <r_mmod_Improper_Torsional_Energy-OPLS-2005>
9.63632488250732

> <r_mmod_Van_der_Waal_Energy-OPLS-2005>
139.803131103516

> <r_mmod_Electrostatic_Energy-OPLS-2005>
-451.378082275391

> <r_mmod_Solvation_Energy-OPLS-2005>
-215.469619750977

> <b_mmod_Minimization_Converged-OPLS-2005>
0

> <r_mmod_RMS_Derivative-OPLS-2005>
12.1301794052124

$$$$
84
                    3D
 Structure written by MMmdl.
160167  0  0  1  0            999 V2000
  -30.6178  -14.6492   20.4847 C   0  0  0  0  0  0
  -30.4408  -12.3922   19.4680 C   0  0  0  0  0  0
  -29.5161  -12.5116   18.2350 C   0  0  0  0  0  0
  -28.0365  -12.3488   18.6380 C   0  0  0  0  0  0
  -27.6557  -13.2182   19.8663 C   0  0  2  0  0  0
  -28.6994  -13.0789   21.0009 C   0  0  0  0  0  0
  -25.2559  -13.8173   20.5676 C   0  0  0  0  0  0
  -24.1826  -13.0441   20.9191 C   0  0  0  0  0  0
  -24.6395  -11.6915   20.8734 C   0  0  0  0  0  0
  -23.9061  -10.4295   21.0393 C   0  0  0  0  0  0
  -24.3616   -9.4211   21.9171 C   0  0  0  0  0  0
  -23.6295   -8.2244   22.0745 C   0  0  0  0  0  0
  -22.4276   -8.0276   21.3538 C   0  0  0  0  0  0
  -21.9907   -9.0247   20.4640 C   0  0  0  0  0  0
  -22.7230  -10.2131   20.3047 C   0  0  0  0  0  0
  -21.6855   -6.0733   22.5278 C   0  0  0  0  0  0
  -21.4012   -6.5635   23.8210 C   0  0  0  0  0  0
  -21.3662   -5.6787   24.9170 C   0  0  0  0  0  0
  -21.6049   -4.3051   24.7220 C   0  0  0  0  0  0
  -21.8819   -3.8142   23.4340 C   0  0  0  0  0  0
  -21.9189   -4.6959   22.3399 C   0  0  0  0  0  0
  -22.7843  -13.5231   21.1855 C   0  0  0  0  0  0
  -22.1657   -4.2145   21.0977 F   0  0  0  0  0  0
  -21.5634   -3.4534   25.7732 F   0  0  0  0  0  0
  -30.0202  -13.4160   20.4458 N   0  0  0  0  0  0
  -26.2997  -12.9359   20.3322 N   0  0  0  0  0  0
  -25.9327  -11.6514   20.5759 N   0  0  0  0  0  0
  -22.0479  -12.8226   22.0411 N   0  0  0  0  0  0
  -25.4255  -15.1894   20.4086 N   0  0  0  0  0  0
  -31.7762  -14.8136   20.0918 O   0  0  0  0  0  0
  -21.6640   -6.8874   21.4240 O   0  0  0  0  0  0
  -22.3531  -14.5535   20.6692 O   0  0  0  0  0  0
  -24.6257  -31.8604   23.2037 C   0  0  0  0  0  0
  -25.9104  -32.4783   23.8362 C   0  0  1  0  0  0
  -27.2216  -27.3166   20.1226 C   0  0  0  0  0  0
  -25.5921  -33.8586   24.2289 N   0  0  0  0  0  0
  -23.4198  -30.4858   21.5449 C   0  0  2  0  0  0
  -24.8670  -28.9430   20.1119 C   0  0  0  0  0  0
  -22.7469  -29.4639   22.4920 C   0  0  0  0  0  0
  -18.0290  -28.1399   22.8483 C   0  0  0  0  0  0
  -24.1491  -36.7293   23.2638 C   0  0  0  0  0  0
  -25.9620  -30.7907   21.3766 C   0  0  0  0  0  0
  -26.0360  -29.4175   20.7208 C   0  0  0  0  0  0
  -27.2169  -28.6156   20.7187 C   0  0  0  0  0  0
  -26.0340  -26.9074   19.4725 C   0  0  0  0  0  0
  -24.8672  -27.6925   19.4795 C   0  0  0  0  0  0
  -23.6357  -29.8233   20.1599 C   0  0  0  0  0  0
  -25.4116  -36.3085   24.0329 C   0  0  1  0  0  0
  -20.5889  -28.3702   23.1274 C   0  0  2  0  0  0
  -20.6787  -26.9424   22.5404 C   0  0  0  0  0  0
  -19.5763  -26.6391   21.5208 C   0  0  0  0  0  0
  -18.1941  -26.7942   22.1620 C   0  0  0  0  0  0
  -19.1542  -28.8867   23.2876 C   0  0  0  0  0  0
  -18.9468  -30.1468   23.8892 C   0  0  0  0  0  0
  -17.6470  -30.6599   24.0570 C   0  0  0  0  0  0
  -25.9047  -34.9452   23.5110 C   0  0  0  0  0  0
  -16.5358  -29.9099   23.6335 C   0  0  0  0  0  0
  -16.7276  -28.6520   23.0347 C   0  0  0  0  0  0
  -26.4493  -31.6588   25.0725 C   0  0  0  0  0  0
  -25.3730  -31.3731   26.1453 C   0  0  0  0  0  0
  -27.0341  -30.3016   24.6175 C   0  0  0  0  0  0
  -27.6060  -32.4316   25.7494 C   0  0  0  0  0  0
  -27.5579  -37.1806   24.8467 C   0  0  0  0  0  0
  -21.4184  -29.3054   22.3662 N   0  0  0  0  0  0
  -26.4297  -37.3774   23.9405 N   0  0  0  0  0  0
  -24.6880  -31.0620   22.0989 N   0  0  0  0  0  0
  -23.4190  -28.8166   23.2992 O   0  0  0  0  0  0
  -28.3260  -26.4483   20.1652 O   0  0  0  0  0  0
  -26.5607  -34.8919   22.4668 O   0  0  0  0  0  0
  -23.5418  -32.1400   23.7359 O   0  0  0  0  0  0
  -30.0185  -18.3969   20.7971 C   0  0  0  0  0  0
  -28.6580  -22.3885   23.3481 C   0  0  0  0  0  0
  -30.1272  -17.0531   18.5772 C   0  0  0  0  0  0
  -29.0882  -19.6623   20.6087 C   0  0  0  0  0  0
  -27.8289  -22.2593   22.0600 C   0  0  0  0  0  0
  -29.6775  -21.1515   20.6199 C   0  0  0  0  0  0
  -28.0378  -25.0351   20.5283 C   0  0  0  0  0  0
  -29.6379  -17.0541   20.0385 C   0  0  1  0  0  0
  -28.6338  -22.3671   20.7374 C   0  0  2  0  0  0
  -29.1354  -23.8737   20.4521 C   0  0  2  0  0  0
  -29.7690  -15.7008   20.7072 N   0  0  0  0  0  0
  -31.0137  -18.4755   21.5194 O   0  0  0  0  0  0
  -30.1295  -24.1673   21.2919 F   0  0  0  0  0  0
  -31.4843  -12.5116   19.1708 H   0  0  0  0  0  0
  -30.3694  -11.3969   19.9094 H   0  0  0  0  0  0
  -29.7855  -11.7631   17.4887 H   0  0  0  0  0  0
  -29.6608  -13.4833   17.7594 H   0  0  0  0  0  0
  -27.8699  -11.2951   18.8654 H   0  0  0  0  0  0
  -27.3874  -12.5832   17.7928 H   0  0  0  0  0  0
  -27.6710  -14.2524   19.5218 H   0  0  0  0  0  0
  -28.7071  -12.0605   21.3927 H   0  0  0  0  0  0
  -28.4451  -13.7219   21.8451 H   0  0  0  0  0  0
  -25.2759   -9.5693   22.4748 H   0  0  0  0  0  0
  -24.0003   -7.4638   22.7467 H   0  0  0  0  0  0
  -21.0833   -8.8766   19.8953 H   0  0  0  0  0  0
  -22.3679  -10.9669   19.6159 H   0  0  0  0  0  0
  -21.2004   -7.6142   23.9714 H   0  0  0  0  0  0
  -21.1490   -6.0514   25.9075 H   0  0  0  0  0  0
  -22.0597   -2.7603   23.2839 H   0  0  0  0  0  0
  -22.4083  -11.9901   22.4841 H   0  0  0  0  0  0
  -21.1091  -13.1255   22.2603 H   0  0  0  0  0  0
  -24.6536  -15.8396   20.5071 H   0  0  0  0  0  0
  -26.2654  -15.6262   20.0528 H   0  0  0  0  0  0
  -26.7164  -32.5459   23.1105 H   0  0  0  0  0  0
  -25.0094  -33.9740   25.0452 H   0  0  0  0  0  0
  -22.7141  -31.3069   21.4025 H   0  0  0  0  0  0
  -23.3750  -35.9629   23.3313 H   0  0  0  0  0  0
  -24.3578  -36.8898   22.2050 H   0  0  0  0  0  0
  -23.7255  -37.6505   23.6650 H   0  0  0  0  0  0
  -26.0922  -31.5533   20.6074 H   0  0  0  0  0  0
  -26.8438  -30.8409   22.0039 H   0  0  0  0  0  0
  -28.1109  -28.9727   21.2100 H   0  0  0  0  0  0
  -25.9799  -25.9696   18.9415 H   0  0  0  0  0  0
  -23.9749  -27.3290   18.9887 H   0  0  0  0  0  0
  -23.7563  -30.6008   19.4052 H   0  0  0  0  0  0
  -22.7568  -29.2527   19.8551 H   0  0  0  0  0  0
  -25.1299  -36.1936   25.0822 H   0  0  0  0  0  0
  -20.9989  -28.3285   24.1391 H   0  0  0  0  0  0
  -20.5695  -26.2311   23.3604 H   0  0  0  0  0  0
  -21.6656  -26.7462   22.1194 H   0  0  0  0  0  0
  -19.6928  -25.6295   21.1250 H   0  0  0  0  0  0
  -19.6711  -27.3197   20.6733 H   0  0  0  0  0  0
  -17.4209  -26.6675   21.4024 H   0  0  0  0  0  0
  -18.0352  -26.0094   22.9029 H   0  0  0  0  0  0
  -19.7943  -30.7289   24.2254 H   0  0  0  0  0  0
  -17.5025  -31.6277   24.5177 H   0  0  0  0  0  0
  -15.5361  -30.3005   23.7669 H   0  0  0  0  0  0
  -15.8672  -28.0845   22.7056 H   0  0  0  0  0  0
  -24.5903  -30.7079   25.7784 H   0  0  0  0  0  0
  -24.8922  -32.2904   26.4866 H   0  0  0  0  0  0
  -25.8053  -30.8918   27.0232 H   0  0  0  0  0  0
  -26.2918  -29.6762   24.1201 H   0  0  0  0  0  0
  -27.4052  -29.7271   25.4671 H   0  0  0  0  0  0
  -27.8778  -30.4313   23.9395 H   0  0  0  0  0  0
  -27.2682  -33.3625   26.2063 H   0  0  0  0  0  0
  -28.3881  -32.6854   25.0326 H   0  0  0  0  0  0
  -28.0713  -31.8438   26.5419 H   0  0  0  0  0  0
  -28.2605  -38.0094   24.7495 H   0  0  0  0  0  0
  -28.1066  -36.2623   24.6318 H   0  0  0  0  0  0
  -27.2289  -37.1485   25.8868 H   0  0  0  0  0  0
  -20.9352  -29.8774   21.6877 H   0  0  0  0  0  0
  -26.0176  -38.2848   24.1399 H   0  0  0  0  0  0
  -29.4154  -21.6089   23.4262 H   0  0  0  0  0  0
  -28.0171  -22.2990   24.2258 H   0  0  0  0  0  0
  -29.1613  -23.3531   23.4127 H   0  0  0  0  0  0
  -29.8449  -17.9751   18.0667 H   0  0  0  0  0  0
  -29.6954  -16.2275   18.0106 H   0  0  0  0  0  0
  -31.2132  -16.9722   18.5207 H   0  0  0  0  0  0
  -28.3553  -19.5757   21.4088 H   0  0  0  0  0  0
  -28.5253  -19.5216   19.6866 H   0  0  0  0  0  0
  -27.0324  -23.0020   22.0785 H   0  0  0  0  0  0
  -27.2967  -21.3092   22.0876 H   0  0  0  0  0  0
  -30.2458  -21.2844   19.6991 H   0  0  0  0  0  0
  -30.4175  -21.2376   21.4156 H   0  0  0  0  0  0
  -27.6599  -25.0746   21.5501 H   0  0  0  0  0  0
  -27.2144  -24.6531   19.9310 H   0  0  0  0  0  0
  -28.5539  -17.1197   19.9411 H   0  0  0  0  0  0
  -27.9064  -22.1825   19.9453 H   0  0  0  0  0  0
  -29.5802  -23.8988   19.4566 H   0  0  0  0  0  0
  -28.9169  -15.4100   21.1627 H   0  0  0  0  0  0
  1 25  1  0  0  0
  1 30  2  0  0  0
  1 81  1  0  0  0
  2  3  1  0  0  0
  2 25  1  0  0  0
  2 84  1  0  0  0
  2 85  1  0  0  0
  3  4  1  0  0  0
  3 86  1  0  0  0
  3 87  1  0  0  0
  4  5  1  0  0  0
  4 88  1  0  0  0
  4 89  1  0  0  0
  5  6  1  0  0  0
  5 26  1  0  0  0
  5 90  1  0  0  0
  6 25  1  0  0  0
  6 91  1  0  0  0
  6 92  1  0  0  0
  7  8  2  0  0  0
  7 26  1  0  0  0
  7 29  1  0  0  0
  8  9  1  0  0  0
  8 22  1  0  0  0
  9 10  1  0  0  0
  9 27  2  0  0  0
 10 11  2  0  0  0
 10 15  1  0  0  0
 11 12  1  0  0  0
 11 93  1  0  0  0
 12 13  2  0  0  0
 12 94  1  0  0  0
 13 14  1  0  0  0
 13 31  1  0  0  0
 14 15  2  0  0  0
 14 95  1  0  0  0
 15 96  1  0  0  0
 16 17  2  0  0  0
 16 21  1  0  0  0
 16 31  1  0  0  0
 17 18  1  0  0  0
 17 97  1  0  0  0
 18 19  2  0  0  0
 18 98  1  0  0  0
 19 20  1  0  0  0
 19 24  1  0  0  0
 20 21  2  0  0  0
 20 99  1  0  0  0
 21 23  1  0  0  0
 22 28  1  0  0  0
 22 32  2  0  0  0
 26 27  1  0  0  0
 28100  1  0  0  0
 28101  1  0  0  0
 29102  1  0  0  0
 29103  1  0  0  0
 33 34  1  0  0  0
 33 66  1  0  0  0
 33 70  2  0  0  0
 34 36  1  0  0  0
 34 59  1  0  0  0
 34104  1  0  0  0
 35 44  2  0  0  0
 35 45  1  0  0  0
 35 68  1  0  0  0
 36 56  1  0  0  0
 36105  1  0  0  0
 37 39  1  0  0  0
 37 47  1  0  0  0
 37 66  1  0  0  0
 37106  1  0  0  0
 38 43  2  0  0  0
 38 46  1  0  0  0
 38 47  1  0  0  0
 39 64  1  0  0  0
 39 67  2  0  0  0
 40 52  1  0  0  0
 40 53  2  0  0  0
 40 58  1  0  0  0
 41107  1  0  0  0
 41108  1  0  0  0
 41109  1  0  0  0
 41 48  1  0  0  0
 42 43  1  0  0  0
 42 66  1  0  0  0
 42110  1  0  0  0
 42111  1  0  0  0
 43 44  1  0  0  0
 44112  1  0  0  0
 45 46  2  0  0  0
 45113  1  0  0  0
 46114  1  0  0  0
 47115  1  0  0  0
 47116  1  0  0  0
 48 56  1  0  0  0
 48 65  1  0  0  0
 48117  1  0  0  0
 49 50  1  0  0  0
 49 53  1  0  0  0
 49 64  1  0  0  0
 49118  1  0  0  0
 50 51  1  0  0  0
 50119  1  0  0  0
 50120  1  0  0  0
 51 52  1  0  0  0
 51121  1  0  0  0
 51122  1  0  0  0
 52123  1  0  0  0
 52124  1  0  0  0
 53 54  1  0  0  0
 54 55  2  0  0  0
 54125  1  0  0  0
 55 57  1  0  0  0
 55126  1  0  0  0
 56 69  2  0  0  0
 57 58  2  0  0  0
 57127  1  0  0  0
 58128  1  0  0  0
 59 60  1  0  0  0
 59 61  1  0  0  0
 59 62  1  0  0  0
 60129  1  0  0  0
 60130  1  0  0  0
 60131  1  0  0  0
 61132  1  0  0  0
 61133  1  0  0  0
 61134  1  0  0  0
 62135  1  0  0  0
 62136  1  0  0  0
 62137  1  0  0  0
 63 65  1  0  0  0
 63138  1  0  0  0
 63139  1  0  0  0
 63140  1  0  0  0
 64141  1  0  0  0
 65142  1  0  0  0
 68 77  1  0  0  0
 71 74  1  0  0  0
 71 78  1  0  0  0
 71 82  2  0  0  0
 72 75  1  0  0  0
 72143  1  0  0  0
 72144  1  0  0  0
 72145  1  0  0  0
 73146  1  0  0  0
 73147  1  0  0  0
 73148  1  0  0  0
 73 78  1  0  0  0
 74 76  1  0  0  0
 74149  1  0  0  0
 74150  1  0  0  0
 75151  1  0  0  0
 75152  1  0  0  0
 75 79  1  0  0  0
 76 79  1  0  0  0
 76153  1  0  0  0
 76154  1  0  0  0
 77 80  1  0  0  0
 77155  1  0  0  0
 77156  1  0  0  0
 78 81  1  0  0  0
 78157  1  0  0  0
 79 80  1  0  0  0
 79158  1  0  0  0
 80 83  1  0  0  0
 80159  1  0  0  0
 81160  1  0  0  0
M  ISO  4   1 100  68 101  77 101  81 100
M  END
> <chiral flag>
0

> <version>
0

> <s_m_source_file>
/data/baiqing/PycharmProjects/Reinvent-master-3.2/result/LINK_invent/BTK/process_docking_weight1_custom_sum_contain_oxygen_bond_distance_aromatic_linkinvent_7_9_3/rearranged_h_0104.sdf

> <i_m_source_file_index>
85

> <r_mmod_Potential_Energy-OPLS-2005>
76.9311141967773

> <r_mmod_Stretch_Energy-OPLS-2005>
91.0023193359375

> <r_mmod_Bend_Energy-OPLS-2005>
160.064208984375

> <r_mmod_Torsional_Energy-OPLS-2005>
247.234313964844

> <r_mmod_Improper_Torsional_Energy-OPLS-2005>
8.40543651580811

> <r_mmod_Van_der_Waal_Energy-OPLS-2005>
121.693069458008

> <r_mmod_Electrostatic_Energy-OPLS-2005>
-370.841278076172

> <r_mmod_Solvation_Energy-OPLS-2005>
-232.6025390625

> <b_mmod_Minimization_Converged-OPLS-2005>
0

> <r_mmod_RMS_Derivative-OPLS-2005>
1.24061501026154

$$$$
85
                    3D
 Structure written by MMmdl.
166174  0  0  1  0            999 V2000
  -30.5076  -15.0777   20.3969 C   0  0  0  0  0  0
  -30.4465  -12.6832   19.5053 C   0  0  0  0  0  0
  -29.5271  -12.5495   18.2686 C   0  0  0  0  0  0
  -28.0667  -12.3107   18.6926 C   0  0  0  0  0  0
  -27.6175  -13.2581   19.8343 C   0  0  2  0  0  0
  -28.6607  -13.3480   20.9703 C   0  0  0  0  0  0
  -25.2198  -13.7767   20.5704 C   0  0  0  0  0  0
  -24.1602  -13.0082   20.9289 C   0  0  0  0  0  0
  -24.6371  -11.6676   20.8810 C   0  0  0  0  0  0
  -23.9074  -10.4118   21.0435 C   0  0  0  0  0  0
  -24.3616   -9.4073   21.9222 C   0  0  0  0  0  0
  -23.6254   -8.2154   22.0775 C   0  0  0  0  0  0
  -22.4237   -8.0237   21.3547 C   0  0  0  0  0  0
  -21.9887   -9.0213   20.4633 C   0  0  0  0  0  0
  -22.7264  -10.2043   20.3054 C   0  0  0  0  0  0
  -21.6833   -6.0705   22.5265 C   0  0  0  0  0  0
  -21.4006   -6.5606   23.8191 C   0  0  0  0  0  0
  -21.3643   -5.6763   24.9165 C   0  0  0  0  0  0
  -21.6050   -4.3026   24.7210 C   0  0  0  0  0  0
  -21.8833   -3.8110   23.4329 C   0  0  0  0  0  0
  -21.9193   -4.6945   22.3383 C   0  0  0  0  0  0
  -22.7653  -13.4978   21.1909 C   0  0  0  0  0  0
  -22.1684   -4.2153   21.0972 F   0  0  0  0  0  0
  -21.5625   -3.4506   25.7706 F   0  0  0  0  0  0
  -29.9267  -13.7988   20.3622 N   0  0  0  0  0  0
  -26.2800  -12.9262   20.3237 N   0  0  0  0  0  0
  -25.9328  -11.6392   20.5771 N   0  0  0  0  0  0
  -22.0265  -12.8026   22.0454 N   0  0  0  0  0  0
  -25.3373  -15.1304   20.4045 N   0  0  0  0  0  0
  -31.7149  -15.1158   20.1218 O   0  0  0  0  0  0
  -21.6596   -6.8853   21.4228 O   0  0  0  0  0  0
  -22.3401  -14.5341   20.6791 O   0  0  0  0  0  0
  -24.6421  -31.8442   23.1829 C   0  0  0  0  0  0
  -25.9199  -32.4688   23.8234 C   0  0  1  0  0  0
  -27.2568  -27.1497   20.1573 C   0  0  0  0  0  0
  -25.5961  -33.8490   24.2173 N   0  0  0  0  0  0
  -23.4485  -30.4579   21.5278 C   0  0  2  0  0  0
  -24.9055  -28.8718   20.1195 C   0  0  0  0  0  0
  -22.7570  -29.4532   22.4845 C   0  0  0  0  0  0
  -18.0319  -28.1388   22.8484 C   0  0  0  0  0  0
  -24.1490  -36.7255   23.2645 C   0  0  0  0  0  0
  -26.0008  -30.7221   21.3785 C   0  0  0  0  0  0
  -26.0808  -29.3290   20.7296 C   0  0  0  0  0  0
  -27.2560  -28.4873   20.7234 C   0  0  0  0  0  0
  -26.0489  -26.7761   19.5305 C   0  0  0  0  0  0
  -24.9014  -27.6066   19.5066 C   0  0  0  0  0  0
  -23.6806  -29.7762   20.1521 C   0  0  0  0  0  0
  -25.4124  -36.3027   24.0318 C   0  0  1  0  0  0
  -20.5927  -28.3707   23.1234 C   0  0  2  0  0  0
  -20.6803  -26.9407   22.5401 C   0  0  0  0  0  0
  -19.5781  -26.6367   21.5216 C   0  0  0  0  0  0
  -18.1961  -26.7925   22.1623 C   0  0  0  0  0  0
  -19.1569  -28.8871   23.2865 C   0  0  0  0  0  0
  -18.9496  -30.1466   23.8893 C   0  0  0  0  0  0
  -17.6487  -30.6580   24.0573 C   0  0  0  0  0  0
  -25.9082  -34.9403   23.5065 C   0  0  0  0  0  0
  -16.5381  -29.9077   23.6321 C   0  0  0  0  0  0
  -16.7303  -28.6496   23.0347 C   0  0  0  0  0  0
  -26.4533  -31.6537   25.0661 C   0  0  0  0  0  0
  -25.3722  -31.3735   26.1363 C   0  0  0  0  0  0
  -27.0387  -30.2930   24.6207 C   0  0  0  0  0  0
  -27.6063  -32.4290   25.7468 C   0  0  0  0  0  0
  -27.5578  -37.1780   24.8468 C   0  0  0  0  0  0
  -21.4257  -29.3039   22.3595 N   0  0  0  0  0  0
  -26.4279  -37.3749   23.9431 N   0  0  0  0  0  0
  -24.7164  -31.0285   22.0864 N   0  0  0  0  0  0
  -23.4215  -28.8102   23.3008 O   0  0  0  0  0  0
  -28.3743  -26.2351   20.1191 O   0  0  0  0  0  0
  -26.5667  -34.8910   22.4633 O   0  0  0  0  0  0
  -23.5535  -32.1322   23.7052 O   0  0  0  0  0  0
  -27.7345  -20.9200   21.4374 C   0  0  0  0  0  0
  -26.9879  -19.7689   21.6933 C   0  0  0  0  0  0
  -28.8333  -20.5812   20.7046 C   0  0  0  0  0  0
  -27.5771  -18.7545   21.0121 C   0  0  0  0  0  0
  -24.4545  -19.6883   19.1929 C   0  0  0  0  0  0
  -24.0441  -17.6239   17.8468 C   0  0  0  0  0  0
  -29.6302  -21.9044   20.2457 C   0  0  0  0  0  0
  -26.8051  -17.5794   20.5821 C   0  0  0  0  0  0
  -28.9339  -23.3846   19.7346 C   0  0  0  0  0  0
  -26.2131  -17.7867   19.1642 C   0  0  0  0  0  0
  -28.3534  -24.7388   20.5644 C   0  0  0  0  0  0
  -29.9561  -17.8786   20.2745 C   0  0  0  0  0  0
  -24.7078  -18.1730   19.1178 C   0  0  0  0  0  0
  -28.9075  -19.0585   20.6608 N   0  0  0  0  0  0
  -29.7334  -16.2912   20.5340 N   0  0  0  0  0  0
  -31.4728  -12.8617   19.1749 H   0  0  0  0  0  0
  -30.4780  -11.7493   20.0685 H   0  0  0  0  0  0
  -29.8661  -11.7332   17.6289 H   0  0  0  0  0  0
  -29.5892  -13.4545   17.6623 H   0  0  0  0  0  0
  -27.9850  -11.2753   19.0274 H   0  0  0  0  0  0
  -27.4042  -12.4063   17.8337 H   0  0  0  0  0  0
  -27.5533  -14.2514   19.3855 H   0  0  0  0  0  0
  -28.7785  -12.3870   21.4717 H   0  0  0  0  0  0
  -28.3340  -14.0591   21.7315 H   0  0  0  0  0  0
  -25.2766   -9.5564   22.4806 H   0  0  0  0  0  0
  -23.9934   -7.4541   22.7499 H   0  0  0  0  0  0
  -21.0814   -8.8772   19.8946 H   0  0  0  0  0  0
  -22.3755  -10.9620   19.6179 H   0  0  0  0  0  0
  -21.2008   -7.6104   23.9695 H   0  0  0  0  0  0
  -21.1453   -6.0485   25.9065 H   0  0  0  0  0  0
  -22.0626   -2.7580   23.2811 H   0  0  0  0  0  0
  -22.3860  -11.9688   22.4845 H   0  0  0  0  0  0
  -21.0937  -13.1186   22.2731 H   0  0  0  0  0  0
  -24.5279  -15.7299   20.5072 H   0  0  0  0  0  0
  -26.1101  -15.5822   19.9408 H   0  0  0  0  0  0
  -26.7261  -32.5322   23.0969 H   0  0  0  0  0  0
  -25.0083  -33.9599   25.0307 H   0  0  0  0  0  0
  -22.7499  -31.2825   21.3660 H   0  0  0  0  0  0
  -23.3753  -35.9580   23.3270 H   0  0  0  0  0  0
  -24.3588  -36.8921   22.2064 H   0  0  0  0  0  0
  -23.7231  -37.6438   23.6699 H   0  0  0  0  0  0
  -26.1462  -31.4720   20.5984 H   0  0  0  0  0  0
  -26.8747  -30.7861   22.0142 H   0  0  0  0  0  0
  -28.1590  -28.8503   21.1943 H   0  0  0  0  0  0
  -25.9904  -25.8077   19.0522 H   0  0  0  0  0  0
  -24.0051  -27.2478   19.0211 H   0  0  0  0  0  0
  -23.8290  -30.5495   19.3965 H   0  0  0  0  0  0
  -22.7953  -29.2230   19.8330 H   0  0  0  0  0  0
  -25.1293  -36.1850   25.0803 H   0  0  0  0  0  0
  -21.0040  -28.3314   24.1354 H   0  0  0  0  0  0
  -20.5684  -26.2333   23.3636 H   0  0  0  0  0  0
  -21.6676  -26.7417   22.1215 H   0  0  0  0  0  0
  -19.6940  -25.6278   21.1259 H   0  0  0  0  0  0
  -19.6701  -27.3167   20.6739 H   0  0  0  0  0  0
  -17.4227  -26.6688   21.4024 H   0  0  0  0  0  0
  -18.0345  -26.0070   22.9012 H   0  0  0  0  0  0
  -19.7979  -30.7284   24.2254 H   0  0  0  0  0  0
  -17.5048  -31.6244   24.5193 H   0  0  0  0  0  0
  -15.5385  -30.2978   23.7645 H   0  0  0  0  0  0
  -15.8710  -28.0806   22.7055 H   0  0  0  0  0  0
  -24.5892  -30.7094   25.7687 H   0  0  0  0  0  0
  -24.8926  -32.2925   26.4734 H   0  0  0  0  0  0
  -25.8007  -30.8936   27.0171 H   0  0  0  0  0  0
  -26.2968  -29.6641   24.1257 H   0  0  0  0  0  0
  -27.4076  -29.7231   25.4747 H   0  0  0  0  0  0
  -27.8850  -30.4169   23.9445 H   0  0  0  0  0  0
  -27.2646  -33.3603   26.1999 H   0  0  0  0  0  0
  -28.3912  -32.6827   25.0326 H   0  0  0  0  0  0
  -28.0683  -31.8436   26.5429 H   0  0  0  0  0  0
  -28.2568  -38.0099   24.7524 H   0  0  0  0  0  0
  -28.1093  -36.2627   24.6258 H   0  0  0  0  0  0
  -27.2314  -37.1395   25.8875 H   0  0  0  0  0  0
  -20.9464  -29.8739   21.6765 H   0  0  0  0  0  0
  -26.0134  -38.2811   24.1439 H   0  0  0  0  0  0
  -27.4414  -21.9276   21.7035 H   0  0  0  0  0  0
  -26.0084  -19.7370   22.1513 H   0  0  0  0  0  0
  -23.3844  -19.9054   19.1712 H   0  0  0  0  0  0
  -24.9070  -20.2070   18.3471 H   0  0  0  0  0  0
  -24.8453  -20.1272   20.1077 H   0  0  0  0  0  0
  -22.9928  -17.9101   17.7995 H   0  0  0  0  0  0
  -24.0868  -16.5346   17.8154 H   0  0  0  0  0  0
  -24.5330  -18.0112   16.9523 H   0  0  0  0  0  0
  -30.2932  -21.5895   19.4394 H   0  0  0  0  0  0
  -30.3096  -22.1557   21.0606 H   0  0  0  0  0  0
  -26.0026  -17.4240   21.3055 H   0  0  0  0  0  0
  -27.3842  -16.6720   20.6302 H   0  0  0  0  0  0
  -28.1986  -23.1448   18.9671 H   0  0  0  0  0  0
  -29.7524  -23.8249   19.1647 H   0  0  0  0  0  0
  -26.3432  -16.8499   18.6214 H   0  0  0  0  0  0
  -26.8127  -18.5006   18.5977 H   0  0  0  0  0  0
  -28.9239  -24.7655   21.4919 H   0  0  0  0  0  0
  -27.3372  -24.5098   20.8836 H   0  0  0  0  0  0
  -30.8911  -18.1354   20.7715 H   0  0  0  0  0  0
  -30.1705  -17.9934   19.2106 H   0  0  0  0  0  0
  -24.1906  -17.7120   19.9610 H   0  0  0  0  0  0
  -28.7772  -16.0870   20.7670 H   0  0  0  0  0  0
  1 25  1  0  0  0
  1 30  2  0  0  0
  1 85  1  0  0  0
  2  3  1  0  0  0
  2 25  1  0  0  0
  2 86  1  0  0  0
  2 87  1  0  0  0
  3  4  1  0  0  0
  3 88  1  0  0  0
  3 89  1  0  0  0
  4  5  1  0  0  0
  4 90  1  0  0  0
  4 91  1  0  0  0
  5  6  1  0  0  0
  5 26  1  0  0  0
  5 92  1  0  0  0
  6 25  1  0  0  0
  6 93  1  0  0  0
  6 94  1  0  0  0
  7  8  2  0  0  0
  7 26  1  0  0  0
  7 29  1  0  0  0
  8  9  1  0  0  0
  8 22  1  0  0  0
  9 10  1  0  0  0
  9 27  2  0  0  0
 10 11  2  0  0  0
 10 15  1  0  0  0
 11 12  1  0  0  0
 11 95  1  0  0  0
 12 13  2  0  0  0
 12 96  1  0  0  0
 13 14  1  0  0  0
 13 31  1  0  0  0
 14 15  2  0  0  0
 14 97  1  0  0  0
 15 98  1  0  0  0
 16 17  2  0  0  0
 16 21  1  0  0  0
 16 31  1  0  0  0
 17 18  1  0  0  0
 17 99  1  0  0  0
 18 19  2  0  0  0
 18100  1  0  0  0
 19 20  1  0  0  0
 19 24  1  0  0  0
 20 21  2  0  0  0
 20101  1  0  0  0
 21 23  1  0  0  0
 22 28  1  0  0  0
 22 32  2  0  0  0
 26 27  1  0  0  0
 28102  1  0  0  0
 28103  1  0  0  0
 29104  1  0  0  0
 29105  1  0  0  0
 33 34  1  0  0  0
 33 66  1  0  0  0
 33 70  2  0  0  0
 34 36  1  0  0  0
 34 59  1  0  0  0
 34106  1  0  0  0
 35 44  2  0  0  0
 35 45  1  0  0  0
 35 68  1  0  0  0
 36 56  1  0  0  0
 36107  1  0  0  0
 37 39  1  0  0  0
 37 47  1  0  0  0
 37 66  1  0  0  0
 37108  1  0  0  0
 38 43  2  0  0  0
 38 46  1  0  0  0
 38 47  1  0  0  0
 39 64  1  0  0  0
 39 67  2  0  0  0
 40 52  1  0  0  0
 40 53  2  0  0  0
 40 58  1  0  0  0
 41109  1  0  0  0
 41110  1  0  0  0
 41111  1  0  0  0
 41 48  1  0  0  0
 42 43  1  0  0  0
 42 66  1  0  0  0
 42112  1  0  0  0
 42113  1  0  0  0
 43 44  1  0  0  0
 44114  1  0  0  0
 45 46  2  0  0  0
 45115  1  0  0  0
 46116  1  0  0  0
 47117  1  0  0  0
 47118  1  0  0  0
 48 56  1  0  0  0
 48 65  1  0  0  0
 48119  1  0  0  0
 49 50  1  0  0  0
 49 53  1  0  0  0
 49 64  1  0  0  0
 49120  1  0  0  0
 50 51  1  0  0  0
 50121  1  0  0  0
 50122  1  0  0  0
 51 52  1  0  0  0
 51123  1  0  0  0
 51124  1  0  0  0
 52125  1  0  0  0
 52126  1  0  0  0
 53 54  1  0  0  0
 54 55  2  0  0  0
 54127  1  0  0  0
 55 57  1  0  0  0
 55128  1  0  0  0
 56 69  2  0  0  0
 57 58  2  0  0  0
 57129  1  0  0  0
 58130  1  0  0  0
 59 60  1  0  0  0
 59 61  1  0  0  0
 59 62  1  0  0  0
 60131  1  0  0  0
 60132  1  0  0  0
 60133  1  0  0  0
 61134  1  0  0  0
 61135  1  0  0  0
 61136  1  0  0  0
 62137  1  0  0  0
 62138  1  0  0  0
 62139  1  0  0  0
 63 65  1  0  0  0
 63140  1  0  0  0
 63141  1  0  0  0
 63142  1  0  0  0
 64143  1  0  0  0
 65144  1  0  0  0
 68 81  1  0  0  0
 71 72  1  0  0  0
 71 73  2  0  0  0
 71145  1  0  0  0
 72 74  2  0  0  0
 72146  1  0  0  0
 73 77  1  0  0  0
 73 84  1  0  0  0
 74 78  1  0  0  0
 74 84  1  0  0  0
 75147  1  0  0  0
 75148  1  0  0  0
 75149  1  0  0  0
 75 83  1  0  0  0
 76 83  1  0  0  0
 76150  1  0  0  0
 76151  1  0  0  0
 76152  1  0  0  0
 77 79  1  0  0  0
 77153  1  0  0  0
 77154  1  0  0  0
 78 80  1  0  0  0
 78155  1  0  0  0
 78156  1  0  0  0
 79 81  1  0  0  0
 79157  1  0  0  0
 79158  1  0  0  0
 80 83  1  0  0  0
 80159  1  0  0  0
 80160  1  0  0  0
 81161  1  0  0  0
 81162  1  0  0  0
 82 84  1  0  0  0
 82 85  1  0  0  0
 82163  1  0  0  0
 82164  1  0  0  0
 83165  1  0  0  0
 85166  1  0  0  0
M  ISO  4   1 100  68 101  81 101  85 100
M  END
> <chiral flag>
0

> <version>
0

> <s_m_source_file>
/data/baiqing/PycharmProjects/Reinvent-master-3.2/result/LINK_invent/BTK/process_docking_weight1_custom_sum_contain_oxygen_bond_distance_aromatic_linkinvent_7_9_3/rearranged_h_0104.sdf

> <i_m_source_file_index>
86

> <r_mmod_Potential_Energy-OPLS-2005>
765.901550292969

> <r_mmod_Stretch_Energy-OPLS-2005>
339.562683105469

> <r_mmod_Bend_Energy-OPLS-2005>
386.412506103516

> <r_mmod_Torsional_Energy-OPLS-2005>
302.309753417969

> <r_mmod_Improper_Torsional_Energy-OPLS-2005>
6.78807592391968

> <r_mmod_Van_der_Waal_Energy-OPLS-2005>
116.218406677246

> <r_mmod_Electrostatic_Energy-OPLS-2005>
-420.723907470703

> <r_mmod_Solvation_Energy-OPLS-2005>
-198.643310546875

> <b_mmod_Minimization_Converged-OPLS-2005>
0

> <r_mmod_RMS_Derivative-OPLS-2005>
4.21033573150635

$$$$
86
                    3D
 Structure written by MMmdl.
170178  0  0  1  0            999 V2000
  -30.5323  -15.0123   20.4056 C   0  0  0  0  0  0
  -30.4340  -12.6317   19.5070 C   0  0  0  0  0  0
  -29.5210  -12.5315   18.2630 C   0  0  0  0  0  0
  -28.0575  -12.3057   18.6853 C   0  0  0  0  0  0
  -27.6236  -13.2540   19.8330 C   0  0  2  0  0  0
  -28.6637  -13.3290   20.9704 C   0  0  0  0  0  0
  -25.2454  -13.8234   20.5721 C   0  0  0  0  0  0
  -24.1781  -13.0438   20.9233 C   0  0  0  0  0  0
  -24.6403  -11.6932   20.8772 C   0  0  0  0  0  0
  -23.9103  -10.4298   21.0419 C   0  0  0  0  0  0
  -24.3651   -9.4201   21.9193 C   0  0  0  0  0  0
  -23.6309   -8.2250   22.0772 C   0  0  0  0  0  0
  -22.4286   -8.0300   21.3566 C   0  0  0  0  0  0
  -21.9930   -9.0276   20.4658 C   0  0  0  0  0  0
  -22.7276  -10.2142   20.3061 C   0  0  0  0  0  0
  -21.6859   -6.0745   22.5276 C   0  0  0  0  0  0
  -21.4018   -6.5646   23.8209 C   0  0  0  0  0  0
  -21.3657   -5.6794   24.9168 C   0  0  0  0  0  0
  -21.6043   -4.3059   24.7213 C   0  0  0  0  0  0
  -21.8822   -3.8152   23.4334 C   0  0  0  0  0  0
  -21.9193   -4.6972   22.3387 C   0  0  0  0  0  0
  -22.7798  -13.5206   21.1880 C   0  0  0  0  0  0
  -22.1658   -4.2148   21.0968 F   0  0  0  0  0  0
  -21.5626   -3.4546   25.7731 F   0  0  0  0  0  0
  -29.9300  -13.7506   20.3605 N   0  0  0  0  0  0
  -26.2868  -12.9464   20.3244 N   0  0  0  0  0  0
  -25.9340  -11.6593   20.5774 N   0  0  0  0  0  0
  -22.0453  -12.8200   22.0430 N   0  0  0  0  0  0
  -25.4106  -15.1964   20.4139 N   0  0  0  0  0  0
  -31.7420  -15.0452   20.1528 O   0  0  0  0  0  0
  -21.6646   -6.8898   21.4247 O   0  0  0  0  0  0
  -22.3484  -14.5508   20.6710 O   0  0  0  0  0  0
  -24.6472  -31.8404   23.1831 C   0  0  0  0  0  0
  -25.9231  -32.4668   23.8247 C   0  0  1  0  0  0
  -27.2171  -27.0908   20.1697 C   0  0  0  0  0  0
  -25.5973  -33.8477   24.2165 N   0  0  0  0  0  0
  -23.4534  -30.4587   21.5307 C   0  0  2  0  0  0
  -24.9031  -28.8729   20.1160 C   0  0  0  0  0  0
  -22.7591  -29.4546   22.4855 C   0  0  0  0  0  0
  -18.0329  -28.1374   22.8471 C   0  0  0  0  0  0
  -24.1502  -36.7238   23.2647 C   0  0  0  0  0  0
  -26.0128  -30.6994   21.3899 C   0  0  0  0  0  0
  -26.0824  -29.3053   20.7355 C   0  0  0  0  0  0
  -27.2402  -28.4323   20.7411 C   0  0  0  0  0  0
  -26.0110  -26.7714   19.5085 C   0  0  0  0  0  0
  -24.8823  -27.6193   19.4877 C   0  0  0  0  0  0
  -23.6825  -29.7813   20.1537 C   0  0  0  0  0  0
  -25.4131  -36.3005   24.0312 C   0  0  1  0  0  0
  -20.5951  -28.3728   23.1253 C   0  0  2  0  0  0
  -20.6862  -26.9445   22.5406 C   0  0  0  0  0  0
  -19.5828  -26.6426   21.5212 C   0  0  0  0  0  0
  -18.2006  -26.7921   22.1607 C   0  0  0  0  0  0
  -19.1583  -28.8868   23.2844 C   0  0  0  0  0  0
  -18.9484  -30.1448   23.8874 C   0  0  0  0  0  0
  -17.6472  -30.6571   24.0529 C   0  0  0  0  0  0
  -25.9085  -34.9388   23.5045 C   0  0  0  0  0  0
  -16.5377  -29.9072   23.6290 C   0  0  0  0  0  0
  -16.7308  -28.6470   23.0351 C   0  0  0  0  0  0
  -26.4540  -31.6546   25.0715 C   0  0  0  0  0  0
  -25.3711  -31.3760   26.1407 C   0  0  0  0  0  0
  -27.0427  -30.2933   24.6333 C   0  0  0  0  0  0
  -27.6053  -32.4331   25.7502 C   0  0  0  0  0  0
  -27.5572  -37.1773   24.8467 C   0  0  0  0  0  0
  -21.4286  -29.3066   22.3624 N   0  0  0  0  0  0
  -26.4287  -37.3726   23.9404 N   0  0  0  0  0  0
  -24.7251  -31.0229   22.0886 N   0  0  0  0  0  0
  -23.4218  -28.8079   23.3010 O   0  0  0  0  0  0
  -28.2706  -26.0917   20.2027 O   0  0  0  0  0  0
  -26.5685  -34.8896   22.4639 O   0  0  0  0  0  0
  -23.5586  -32.1300   23.7037 O   0  0  0  0  0  0
  -28.0457  -19.5072   20.7903 C   0  0  0  0  0  0
  -29.8140  -20.5596   20.1454 C   0  0  0  0  0  0
  -29.3990  -19.2199   20.4192 C   0  0  0  0  0  0
  -27.7179  -20.8667   20.6981 C   0  0  0  0  0  0
  -29.1734  -23.3258   18.4548 C   0  0  0  0  0  0
  -25.0422  -19.3732   18.8730 C   0  0  0  0  0  0
  -25.4863  -21.1090   17.2121 C   0  0  0  0  0  0
  -30.2380  -17.7565   20.3533 C   0  0  0  0  0  0
  -25.5765  -21.7025   19.6071 C   0  0  0  0  0  0
  -25.5652  -20.7929   22.0581 C   0  0  0  0  0  0
  -28.0195  -24.5462   20.4319 C   0  0  0  0  0  0
  -26.3666  -21.4902   20.9318 C   0  0  1  0  0  0
  -28.9957  -23.2123   19.9744 C   0  0  1  0  0  0
  -28.8300  -21.6288   20.2956 N   0  0  0  0  0  0
  -29.7849  -16.2340   20.5175 N   0  0  0  0  0  0
  -25.7671  -20.6324   18.5870 N   0  3  0  0  0  0
  -24.4104  -21.5331   22.4160 O   0  0  0  0  0  0
  -31.4677  -12.7882   19.1966 H   0  0  0  0  0  0
  -30.4309  -11.6929   20.0632 H   0  0  0  0  0  0
  -29.8558  -11.7215   17.6128 H   0  0  0  0  0  0
  -29.5952  -13.4487   17.6768 H   0  0  0  0  0  0
  -27.9735  -11.2708   19.0202 H   0  0  0  0  0  0
  -27.3889  -12.4072   17.8297 H   0  0  0  0  0  0
  -27.5707  -14.2458   19.3822 H   0  0  0  0  0  0
  -28.7699  -12.3704   21.4794 H   0  0  0  0  0  0
  -28.3519  -14.0532   21.7249 H   0  0  0  0  0  0
  -25.2804   -9.5663   22.4766 H   0  0  0  0  0  0
  -24.0007   -7.4646   22.7507 H   0  0  0  0  0  0
  -21.0856   -8.8822   19.8967 H   0  0  0  0  0  0
  -22.3760  -10.9696   19.6169 H   0  0  0  0  0  0
  -21.2019   -7.6157   23.9706 H   0  0  0  0  0  0
  -21.1474   -6.0530   25.9071 H   0  0  0  0  0  0
  -22.0600   -2.7618   23.2832 H   0  0  0  0  0  0
  -22.4076  -11.9841   22.4780 H   0  0  0  0  0  0
  -21.1083  -13.1246   22.2675 H   0  0  0  0  0  0
  -24.6392  -15.8439   20.5301 H   0  0  0  0  0  0
  -26.2568  -15.6416   20.0874 H   0  0  0  0  0  0
  -26.7298  -32.5254   23.0975 H   0  0  0  0  0  0
  -25.0066  -33.9578   25.0275 H   0  0  0  0  0  0
  -22.7580  -31.2851   21.3715 H   0  0  0  0  0  0
  -23.3767  -35.9569   23.3295 H   0  0  0  0  0  0
  -24.3584  -36.8886   22.2063 H   0  0  0  0  0  0
  -23.7258  -37.6429   23.6700 H   0  0  0  0  0  0
  -26.1817  -31.4472   20.6136 H   0  0  0  0  0  0
  -26.8787  -30.7484   22.0397 H   0  0  0  0  0  0
  -28.1395  -28.7630   21.2409 H   0  0  0  0  0  0
  -25.9141  -25.8216   19.0060 H   0  0  0  0  0  0
  -23.9828  -27.2828   18.9902 H   0  0  0  0  0  0
  -23.8252  -30.5526   19.3965 H   0  0  0  0  0  0
  -22.7949  -29.2275   19.8405 H   0  0  0  0  0  0
  -25.1323  -36.1819   25.0802 H   0  0  0  0  0  0
  -21.0052  -28.3315   24.1377 H   0  0  0  0  0  0
  -20.5794  -26.2317   23.3602 H   0  0  0  0  0  0
  -21.6731  -26.7510   22.1178 H   0  0  0  0  0  0
  -19.7019  -25.6383   21.1146 H   0  0  0  0  0  0
  -19.6764  -27.3346   20.6821 H   0  0  0  0  0  0
  -17.4329  -26.6725   21.3949 H   0  0  0  0  0  0
  -18.0380  -26.0024   22.8960 H   0  0  0  0  0  0
  -19.7946  -30.7263   24.2281 H   0  0  0  0  0  0
  -17.5009  -31.6241   24.5142 H   0  0  0  0  0  0
  -15.5369  -30.2965   23.7605 H   0  0  0  0  0  0
  -15.8695  -28.0764   22.7123 H   0  0  0  0  0  0
  -24.5888  -30.7113   25.7728 H   0  0  0  0  0  0
  -24.8925  -32.2965   26.4752 H   0  0  0  0  0  0
  -25.7986  -30.8978   27.0226 H   0  0  0  0  0  0
  -26.3069  -29.6634   24.1326 H   0  0  0  0  0  0
  -27.4016  -29.7242   25.4918 H   0  0  0  0  0  0
  -27.8979  -30.4162   23.9688 H   0  0  0  0  0  0
  -27.2618  -33.3645   26.2005 H   0  0  0  0  0  0
  -28.3892  -32.6862   25.0356 H   0  0  0  0  0  0
  -28.0690  -31.8517   26.5474 H   0  0  0  0  0  0
  -28.2580  -38.0076   24.7501 H   0  0  0  0  0  0
  -28.1075  -36.2603   24.6304 H   0  0  0  0  0  0
  -27.2294  -37.1425   25.8872 H   0  0  0  0  0  0
  -20.9481  -29.8776   21.6802 H   0  0  0  0  0  0
  -26.0145  -38.2794   24.1397 H   0  0  0  0  0  0
  -27.3422  -18.7438   21.0933 H   0  0  0  0  0  0
  -30.7987  -20.8698   19.8169 H   0  0  0  0  0  0
  -29.9759  -22.6807   18.0955 H   0  0  0  0  0  0
  -29.4253  -24.3461   18.1646 H   0  0  0  0  0  0
  -28.2574  -23.0489   17.9340 H   0  0  0  0  0  0
  -25.3656  -18.9231   19.8071 H   0  0  0  0  0  0
  -25.2367  -18.6350   18.0936 H   0  0  0  0  0  0
  -23.9657  -19.5373   18.9250 H   0  0  0  0  0  0
  -26.0827  -21.9856   16.9573 H   0  0  0  0  0  0
  -24.4333  -21.3721   17.1007 H   0  0  0  0  0  0
  -25.7211  -20.3363   16.4786 H   0  0  0  0  0  0
  -31.0423  -17.8771   21.0801 H   0  0  0  0  0  0
  -30.7456  -17.7861   19.3896 H   0  0  0  0  0  0
  -25.9466  -22.6250   19.1631 H   0  0  0  0  0  0
  -24.5188  -21.8890   19.7940 H   0  0  0  0  0  0
  -26.1970  -20.7263   22.9459 H   0  0  0  0  0  0
  -25.2863  -19.7702   21.8109 H   0  0  0  0  0  0
  -27.9224  -24.4707   21.5152 H   0  0  0  0  0  0
  -27.0241  -24.3350   20.0596 H   0  0  0  0  0  0
  -26.5443  -22.4823   21.3425 H   0  0  0  0  0  0
  -29.9645  -23.4560   20.4092 H   0  0  0  0  0  0
  -28.7970  -16.1003   20.6742 H   0  0  0  0  0  0
  -26.7538  -20.4132   18.6145 H   0  0  0  0  0  0
  -24.0385  -21.1265   23.1945 H   0  0  0  0  0  0
  1 25  1  0  0  0
  1 30  2  0  0  0
  1 85  1  0  0  0
  2  3  1  0  0  0
  2 25  1  0  0  0
  2 88  1  0  0  0
  2 89  1  0  0  0
  3  4  1  0  0  0
  3 90  1  0  0  0
  3 91  1  0  0  0
  4  5  1  0  0  0
  4 92  1  0  0  0
  4 93  1  0  0  0
  5  6  1  0  0  0
  5 26  1  0  0  0
  5 94  1  0  0  0
  6 25  1  0  0  0
  6 95  1  0  0  0
  6 96  1  0  0  0
  7  8  2  0  0  0
  7 26  1  0  0  0
  7 29  1  0  0  0
  8  9  1  0  0  0
  8 22  1  0  0  0
  9 10  1  0  0  0
  9 27  2  0  0  0
 10 11  2  0  0  0
 10 15  1  0  0  0
 11 12  1  0  0  0
 11 97  1  0  0  0
 12 13  2  0  0  0
 12 98  1  0  0  0
 13 14  1  0  0  0
 13 31  1  0  0  0
 14 15  2  0  0  0
 14 99  1  0  0  0
 15100  1  0  0  0
 16 17  2  0  0  0
 16 21  1  0  0  0
 16 31  1  0  0  0
 17 18  1  0  0  0
 17101  1  0  0  0
 18 19  2  0  0  0
 18102  1  0  0  0
 19 20  1  0  0  0
 19 24  1  0  0  0
 20 21  2  0  0  0
 20103  1  0  0  0
 21 23  1  0  0  0
 22 28  1  0  0  0
 22 32  2  0  0  0
 26 27  1  0  0  0
 28104  1  0  0  0
 28105  1  0  0  0
 29106  1  0  0  0
 29107  1  0  0  0
 33 34  1  0  0  0
 33 66  1  0  0  0
 33 70  2  0  0  0
 34 36  1  0  0  0
 34 59  1  0  0  0
 34108  1  0  0  0
 35 44  2  0  0  0
 35 45  1  0  0  0
 35 68  1  0  0  0
 36 56  1  0  0  0
 36109  1  0  0  0
 37 39  1  0  0  0
 37 47  1  0  0  0
 37 66  1  0  0  0
 37110  1  0  0  0
 38 43  2  0  0  0
 38 46  1  0  0  0
 38 47  1  0  0  0
 39 64  1  0  0  0
 39 67  2  0  0  0
 40 52  1  0  0  0
 40 53  2  0  0  0
 40 58  1  0  0  0
 41111  1  0  0  0
 41112  1  0  0  0
 41113  1  0  0  0
 41 48  1  0  0  0
 42 43  1  0  0  0
 42 66  1  0  0  0
 42114  1  0  0  0
 42115  1  0  0  0
 43 44  1  0  0  0
 44116  1  0  0  0
 45 46  2  0  0  0
 45117  1  0  0  0
 46118  1  0  0  0
 47119  1  0  0  0
 47120  1  0  0  0
 48 56  1  0  0  0
 48 65  1  0  0  0
 48121  1  0  0  0
 49 50  1  0  0  0
 49 53  1  0  0  0
 49 64  1  0  0  0
 49122  1  0  0  0
 50 51  1  0  0  0
 50123  1  0  0  0
 50124  1  0  0  0
 51 52  1  0  0  0
 51125  1  0  0  0
 51126  1  0  0  0
 52127  1  0  0  0
 52128  1  0  0  0
 53 54  1  0  0  0
 54 55  2  0  0  0
 54129  1  0  0  0
 55 57  1  0  0  0
 55130  1  0  0  0
 56 69  2  0  0  0
 57 58  2  0  0  0
 57131  1  0  0  0
 58132  1  0  0  0
 59 60  1  0  0  0
 59 61  1  0  0  0
 59 62  1  0  0  0
 60133  1  0  0  0
 60134  1  0  0  0
 60135  1  0  0  0
 61136  1  0  0  0
 61137  1  0  0  0
 61138  1  0  0  0
 62139  1  0  0  0
 62140  1  0  0  0
 62141  1  0  0  0
 63 65  1  0  0  0
 63142  1  0  0  0
 63143  1  0  0  0
 63144  1  0  0  0
 64145  1  0  0  0
 65146  1  0  0  0
 68 81  1  0  0  0
 71 73  1  0  0  0
 71 74  2  0  0  0
 71147  1  0  0  0
 72 73  2  0  0  0
 72 84  1  0  0  0
 72148  1  0  0  0
 73 78  1  0  0  0
 74 82  1  0  0  0
 74 84  1  0  0  0
 75149  1  0  0  0
 75150  1  0  0  0
 75151  1  0  0  0
 75 83  1  0  0  0
 76152  1  0  0  0
 76153  1  0  0  0
 76154  1  0  0  0
 76 86  1  0  0  0
 77 86  1  0  0  0
 77155  1  0  0  0
 77156  1  0  0  0
 77157  1  0  0  0
 78 85  1  0  0  0
 78158  1  0  0  0
 78159  1  0  0  0
 79 86  1  0  0  0
 79160  1  0  0  0
 79161  1  0  0  0
 79 82  1  0  0  0
 80 82  1  0  0  0
 80 87  1  0  0  0
 80162  1  0  0  0
 80163  1  0  0  0
 81 83  1  0  0  0
 81164  1  0  0  0
 81165  1  0  0  0
 82166  1  0  0  0
 83 84  1  0  0  0
 83167  1  0  0  0
 85168  1  0  0  0
 86169  1  0  0  0
 87170  1  0  0  0
M  CHG  1  86   1
M  ISO  4   1 100  68 101  81 101  85 100
M  END
> <chiral flag>
0

> <version>
0

> <s_m_source_file>
/data/baiqing/PycharmProjects/Reinvent-master-3.2/result/LINK_invent/BTK/process_docking_weight1_custom_sum_contain_oxygen_bond_distance_aromatic_linkinvent_7_9_3/rearranged_h_0104.sdf

> <i_m_source_file_index>
87

> <r_mmod_Potential_Energy-OPLS-2005>
491.015441894531

> <r_mmod_Stretch_Energy-OPLS-2005>
311.875122070312

> <r_mmod_Bend_Energy-OPLS-2005>
313.6435546875

> <r_mmod_Torsional_Energy-OPLS-2005>
274.270538330078

> <r_mmod_Improper_Torsional_Energy-OPLS-2005>
4.62398242950439

> <r_mmod_Van_der_Waal_Energy-OPLS-2005>
102.50560760498

> <r_mmod_Electrostatic_Energy-OPLS-2005>
-293.111297607422

> <r_mmod_Solvation_Energy-OPLS-2005>
-458.617736816406

> <b_mmod_Minimization_Converged-OPLS-2005>
0

> <r_mmod_RMS_Derivative-OPLS-2005>
2.71537041664124

$$$$
87
                    3D
 Structure written by MMmdl.
169177  0  0  1  0            999 V2000
  -30.6721  -14.5848   20.6009 C   0  0  0  0  0  0
  -30.4336  -12.3886   19.4410 C   0  0  0  0  0  0
  -29.5016  -12.5229   18.2182 C   0  0  0  0  0  0
  -28.0261  -12.3586   18.6300 C   0  0  0  0  0  0
  -27.6570  -13.2160   19.8687 C   0  0  2  0  0  0
  -28.6964  -13.0396   20.9959 C   0  0  0  0  0  0
  -25.2573  -13.8171   20.5682 C   0  0  0  0  0  0
  -24.1833  -13.0439   20.9176 C   0  0  0  0  0  0
  -24.6398  -11.6909   20.8729 C   0  0  0  0  0  0
  -23.9065  -10.4292   21.0400 C   0  0  0  0  0  0
  -24.3617   -9.4210   21.9184 C   0  0  0  0  0  0
  -23.6291   -8.2244   22.0755 C   0  0  0  0  0  0
  -22.4274   -8.0282   21.3544 C   0  0  0  0  0  0
  -21.9910   -9.0255   20.4648 C   0  0  0  0  0  0
  -22.7237  -10.2133   20.3052 C   0  0  0  0  0  0
  -21.6855   -6.0737   22.5280 C   0  0  0  0  0  0
  -21.4012   -6.5641   23.8212 C   0  0  0  0  0  0
  -21.3658   -5.6792   24.9176 C   0  0  0  0  0  0
  -21.6043   -4.3056   24.7227 C   0  0  0  0  0  0
  -21.8821   -3.8148   23.4349 C   0  0  0  0  0  0
  -21.9194   -4.6963   22.3405 C   0  0  0  0  0  0
  -22.7856  -13.5236   21.1840 C   0  0  0  0  0  0
  -22.1663   -4.2150   21.0983 F   0  0  0  0  0  0
  -21.5629   -3.4539   25.7740 F   0  0  0  0  0  0
  -30.0218  -13.3846   20.4522 N   0  0  0  0  0  0
  -26.3004  -12.9353   20.3329 N   0  0  0  0  0  0
  -25.9327  -11.6506   20.5745 N   0  0  0  0  0  0
  -22.0496  -12.8231   22.0400 N   0  0  0  0  0  0
  -25.4298  -15.1888   20.4117 N   0  0  0  0  0  0
  -31.7301  -14.8223   20.0092 O   0  0  0  0  0  0
  -21.6642   -6.8880   21.4242 O   0  0  0  0  0  0
  -22.3541  -14.5544   20.6694 O   0  0  0  0  0  0
  -24.6234  -31.8611   23.2019 C   0  0  0  0  0  0
  -25.9093  -32.4786   23.8348 C   0  0  1  0  0  0
  -27.2277  -27.3297   20.1129 C   0  0  0  0  0  0
  -25.5913  -33.8585   24.2276 N   0  0  0  0  0  0
  -23.4170  -30.4830   21.5449 C   0  0  2  0  0  0
  -24.8646  -28.9391   20.1086 C   0  0  0  0  0  0
  -22.7467  -29.4618   22.4940 C   0  0  0  0  0  0
  -18.0278  -28.1386   22.8490 C   0  0  0  0  0  0
  -24.1485  -36.7285   23.2642 C   0  0  0  0  0  0
  -25.9560  -30.7932   21.3730 C   0  0  0  0  0  0
  -26.0300  -29.4211   20.7159 C   0  0  0  0  0  0
  -27.2122  -28.6253   20.7122 C   0  0  0  0  0  0
  -26.0431  -26.9036   19.4689 C   0  0  0  0  0  0
  -24.8725  -27.6860   19.4762 C   0  0  0  0  0  0
  -23.6314  -29.8174   20.1594 C   0  0  0  0  0  0
  -25.4112  -36.3084   24.0330 C   0  0  1  0  0  0
  -20.5877  -28.3683   23.1287 C   0  0  2  0  0  0
  -20.6769  -26.9409   22.5409 C   0  0  0  0  0  0
  -19.5746  -26.6385   21.5210 C   0  0  0  0  0  0
  -18.1924  -26.7926   22.1624 C   0  0  0  0  0  0
  -19.1533  -28.8852   23.2880 C   0  0  0  0  0  0
  -18.9463  -30.1458   23.8896 C   0  0  0  0  0  0
  -17.6466  -30.6594   24.0571 C   0  0  0  0  0  0
  -25.9051  -34.9455   23.5101 C   0  0  0  0  0  0
  -16.5355  -29.9098   23.6339 C   0  0  0  0  0  0
  -16.7267  -28.6515   23.0354 C   0  0  0  0  0  0
  -26.4476  -31.6594   25.0719 C   0  0  0  0  0  0
  -25.3707  -31.3731   26.1444 C   0  0  0  0  0  0
  -27.0319  -30.3027   24.6157 C   0  0  0  0  0  0
  -27.6042  -32.4327   25.7481 C   0  0  0  0  0  0
  -27.5573  -37.1794   24.8469 C   0  0  0  0  0  0
  -21.4182  -29.3038   22.3688 N   0  0  0  0  0  0
  -26.4289  -37.3781   23.9411 N   0  0  0  0  0  0
  -24.6841  -31.0622   22.0974 N   0  0  0  0  0  0
  -23.4199  -28.8168   23.3019 O   0  0  0  0  0  0
  -28.3615  -26.5072   20.1814 O   0  0  0  0  0  0
  -26.5625  -34.8928   22.4671 O   0  0  0  0  0  0
  -23.5399  -32.1412   23.7349 O   0  0  0  0  0  0
  -28.1838  -20.3355   23.6125 C   0  0  0  0  0  0
  -28.1733  -21.2128   22.5124 C   0  0  0  0  0  0
  -28.8726  -19.2201   23.2473 C   0  0  0  0  0  0
  -28.8674  -20.6414   21.4838 C   0  0  0  0  0  0
  -29.1872  -18.0718   24.1406 C   0  0  0  0  0  0
  -30.3088  -22.9848   18.6546 C   0  0  0  0  0  0
  -31.1725  -22.4959   20.9298 C   0  0  0  0  0  0
  -30.3523  -15.2677   22.8724 C   0  0  0  0  0  0
  -29.0546  -21.3800   20.1550 C   0  0  0  0  0  0
  -29.2592  -24.1261   20.6848 C   0  0  0  0  0  0
  -30.0371  -18.2229   21.2000 C   0  0  0  0  0  0
  -29.3571  -16.7747   21.0871 C   0  0  0  0  0  0
  -28.2722  -25.0632   19.8705 C   0  0  0  0  0  0
  -29.8808  -22.7517   20.1190 C   0  0  0  0  0  0
  -29.2618  -19.3197   21.9013 N   0  0  0  0  0  0
  -30.1177  -15.5100   21.4475 N   0  0  0  0  0  0
  -31.4740  -12.5150   19.1359 H   0  0  0  0  0  0
  -30.3718  -11.3837   19.8620 H   0  0  0  0  0  0
  -29.7627  -11.7800   17.4633 H   0  0  0  0  0  0
  -29.6465  -13.4982   17.7507 H   0  0  0  0  0  0
  -27.8582  -11.3030   18.8482 H   0  0  0  0  0  0
  -27.3711  -12.6034   17.7928 H   0  0  0  0  0  0
  -27.6875  -14.2586   19.5506 H   0  0  0  0  0  0
  -28.7001  -12.0093   21.3543 H   0  0  0  0  0  0
  -28.4186  -13.6479   21.8560 H   0  0  0  0  0  0
  -25.2761   -9.5691   22.4755 H   0  0  0  0  0  0
  -24.0004   -7.4640   22.7473 H   0  0  0  0  0  0
  -21.0841   -8.8775   19.8952 H   0  0  0  0  0  0
  -22.3698  -10.9673   19.6157 H   0  0  0  0  0  0
  -21.2001   -7.6147   23.9718 H   0  0  0  0  0  0
  -21.1476   -6.0522   25.9079 H   0  0  0  0  0  0
  -22.0599   -2.7609   23.2852 H   0  0  0  0  0  0
  -22.4114  -11.9894   22.4790 H   0  0  0  0  0  0
  -21.1111  -13.1255   22.2597 H   0  0  0  0  0  0
  -24.6691  -15.8482   20.5335 H   0  0  0  0  0  0
  -26.2909  -15.6278   20.1120 H   0  0  0  0  0  0
  -26.7169  -32.5462   23.1101 H   0  0  0  0  0  0
  -25.0059  -33.9736   25.0418 H   0  0  0  0  0  0
  -22.7096  -31.3030   21.4017 H   0  0  0  0  0  0
  -23.3757  -35.9611   23.3318 H   0  0  0  0  0  0
  -24.3571  -36.8889   22.2055 H   0  0  0  0  0  0
  -23.7231  -37.6487   23.6656 H   0  0  0  0  0  0
  -26.0840  -31.5574   20.6048 H   0  0  0  0  0  0
  -26.8374  -30.8431   22.0007 H   0  0  0  0  0  0
  -28.1059  -28.9888   21.1996 H   0  0  0  0  0  0
  -25.9945  -25.9563   18.9541 H   0  0  0  0  0  0
  -23.9823  -27.3153   18.9869 H   0  0  0  0  0  0
  -23.7478  -30.5952   19.4032 H   0  0  0  0  0  0
  -22.7518  -29.2455   19.8579 H   0  0  0  0  0  0
  -25.1289  -36.1939   25.0824 H   0  0  0  0  0  0
  -20.9970  -28.3254   24.1406 H   0  0  0  0  0  0
  -20.5665  -26.2292   23.3604 H   0  0  0  0  0  0
  -21.6635  -26.7436   22.1202 H   0  0  0  0  0  0
  -19.6912  -25.6298   21.1238 H   0  0  0  0  0  0
  -19.6686  -27.3203   20.6747 H   0  0  0  0  0  0
  -17.4190  -26.6674   21.4031 H   0  0  0  0  0  0
  -18.0332  -26.0060   22.9014 H   0  0  0  0  0  0
  -19.7947  -30.7277   24.2253 H   0  0  0  0  0  0
  -17.5031  -31.6271   24.5180 H   0  0  0  0  0  0
  -15.5363  -30.3013   23.7665 H   0  0  0  0  0  0
  -15.8658  -28.0851   22.7063 H   0  0  0  0  0  0
  -24.5893  -30.7061   25.7772 H   0  0  0  0  0  0
  -24.8878  -32.2897   26.4853 H   0  0  0  0  0  0
  -25.8027  -30.8925   27.0231 H   0  0  0  0  0  0
  -26.2885  -29.6787   24.1183 H   0  0  0  0  0  0
  -27.4035  -29.7273   25.4646 H   0  0  0  0  0  0
  -27.8744  -30.4331   23.9362 H   0  0  0  0  0  0
  -27.2664  -33.3639   26.2044 H   0  0  0  0  0  0
  -28.3853  -32.6869   25.0301 H   0  0  0  0  0  0
  -28.0708  -31.8460   26.5403 H   0  0  0  0  0  0
  -28.2595  -38.0085   24.7510 H   0  0  0  0  0  0
  -28.1057  -36.2614   24.6304 H   0  0  0  0  0  0
  -27.2284  -37.1454   25.8870 H   0  0  0  0  0  0
  -20.9363  -29.8761   21.6898 H   0  0  0  0  0  0
  -26.0172  -38.2851   24.1432 H   0  0  0  0  0  0
  -27.7471  -20.5119   24.5872 H   0  0  0  0  0  0
  -27.7112  -22.1900   22.4840 H   0  0  0  0  0  0
  -29.0892  -18.3623   25.1871 H   0  0  0  0  0  0
  -30.2136  -17.7414   24.0100 H   0  0  0  0  0  0
  -28.4931  -17.2506   23.9744 H   0  0  0  0  0  0
  -30.9246  -22.1668   18.2793 H   0  0  0  0  0  0
  -30.8907  -23.9009   18.5440 H   0  0  0  0  0  0
  -29.4459  -23.0594   17.9916 H   0  0  0  0  0  0
  -31.6595  -21.5680   20.6262 H   0  0  0  0  0  0
  -30.9651  -22.4168   21.9978 H   0  0  0  0  0  0
  -31.9015  -23.2964   20.7991 H   0  0  0  0  0  0
  -29.4358  -15.3806   23.4462 H   0  0  0  0  0  0
  -31.1199  -15.9409   23.2504 H   0  0  0  0  0  0
  -30.7055  -14.2538   23.0758 H   0  0  0  0  0  0
  -28.0698  -21.5700   19.7270 H   0  0  0  0  0  0
  -29.5183  -20.6782   19.4609 H   0  0  0  0  0  0
  -28.8333  -23.9514   21.6712 H   0  0  0  0  0  0
  -30.1111  -24.7756   20.8880 H   0  0  0  0  0  0
  -30.2985  -18.5732   20.2017 H   0  0  0  0  0  0
  -30.9904  -18.1253   21.7200 H   0  0  0  0  0  0
  -29.0076  -16.6598   20.0601 H   0  0  0  0  0  0
  -28.4386  -16.7710   21.6730 H   0  0  0  0  0  0
  -27.2727  -24.6732   20.0616 H   0  0  0  0  0  0
  -28.4433  -24.9636   18.8000 H   0  0  0  0  0  0
  1 25  1  0  0  0
  1 30  2  0  0  0
  1 86  1  0  0  0
  2  3  1  0  0  0
  2 25  1  0  0  0
  2 87  1  0  0  0
  2 88  1  0  0  0
  3  4  1  0  0  0
  3 89  1  0  0  0
  3 90  1  0  0  0
  4  5  1  0  0  0
  4 91  1  0  0  0
  4 92  1  0  0  0
  5  6  1  0  0  0
  5 26  1  0  0  0
  5 93  1  0  0  0
  6 25  1  0  0  0
  6 94  1  0  0  0
  6 95  1  0  0  0
  7  8  2  0  0  0
  7 26  1  0  0  0
  7 29  1  0  0  0
  8  9  1  0  0  0
  8 22  1  0  0  0
  9 10  1  0  0  0
  9 27  2  0  0  0
 10 11  2  0  0  0
 10 15  1  0  0  0
 11 12  1  0  0  0
 11 96  1  0  0  0
 12 13  2  0  0  0
 12 97  1  0  0  0
 13 14  1  0  0  0
 13 31  1  0  0  0
 14 15  2  0  0  0
 14 98  1  0  0  0
 15 99  1  0  0  0
 16 17  2  0  0  0
 16 21  1  0  0  0
 16 31  1  0  0  0
 17 18  1  0  0  0
 17100  1  0  0  0
 18 19  2  0  0  0
 18101  1  0  0  0
 19 20  1  0  0  0
 19 24  1  0  0  0
 20 21  2  0  0  0
 20102  1  0  0  0
 21 23  1  0  0  0
 22 28  1  0  0  0
 22 32  2  0  0  0
 26 27  1  0  0  0
 28103  1  0  0  0
 28104  1  0  0  0
 29105  1  0  0  0
 29106  1  0  0  0
 33 34  1  0  0  0
 33 66  1  0  0  0
 33 70  2  0  0  0
 34 36  1  0  0  0
 34 59  1  0  0  0
 34107  1  0  0  0
 35 44  2  0  0  0
 35 45  1  0  0  0
 35 68  1  0  0  0
 36 56  1  0  0  0
 36108  1  0  0  0
 37 39  1  0  0  0
 37 47  1  0  0  0
 37 66  1  0  0  0
 37109  1  0  0  0
 38 43  2  0  0  0
 38 46  1  0  0  0
 38 47  1  0  0  0
 39 64  1  0  0  0
 39 67  2  0  0  0
 40 52  1  0  0  0
 40 53  2  0  0  0
 40 58  1  0  0  0
 41110  1  0  0  0
 41111  1  0  0  0
 41112  1  0  0  0
 41 48  1  0  0  0
 42 43  1  0  0  0
 42 66  1  0  0  0
 42113  1  0  0  0
 42114  1  0  0  0
 43 44  1  0  0  0
 44115  1  0  0  0
 45 46  2  0  0  0
 45116  1  0  0  0
 46117  1  0  0  0
 47118  1  0  0  0
 47119  1  0  0  0
 48 56  1  0  0  0
 48 65  1  0  0  0
 48120  1  0  0  0
 49 50  1  0  0  0
 49 53  1  0  0  0
 49 64  1  0  0  0
 49121  1  0  0  0
 50 51  1  0  0  0
 50122  1  0  0  0
 50123  1  0  0  0
 51 52  1  0  0  0
 51124  1  0  0  0
 51125  1  0  0  0
 52126  1  0  0  0
 52127  1  0  0  0
 53 54  1  0  0  0
 54 55  2  0  0  0
 54128  1  0  0  0
 55 57  1  0  0  0
 55129  1  0  0  0
 56 69  2  0  0  0
 57 58  2  0  0  0
 57130  1  0  0  0
 58131  1  0  0  0
 59 60  1  0  0  0
 59 61  1  0  0  0
 59 62  1  0  0  0
 60132  1  0  0  0
 60133  1  0  0  0
 60134  1  0  0  0
 61135  1  0  0  0
 61136  1  0  0  0
 61137  1  0  0  0
 62138  1  0  0  0
 62139  1  0  0  0
 62140  1  0  0  0
 63 65  1  0  0  0
 63141  1  0  0  0
 63142  1  0  0  0
 63143  1  0  0  0
 64144  1  0  0  0
 65145  1  0  0  0
 68 83  1  0  0  0
 71 72  1  0  0  0
 71 73  2  0  0  0
 71146  1  0  0  0
 72 74  2  0  0  0
 72147  1  0  0  0
 73 75  1  0  0  0
 73 85  1  0  0  0
 74 79  1  0  0  0
 74 85  1  0  0  0
 75148  1  0  0  0
 75149  1  0  0  0
 75150  1  0  0  0
 76151  1  0  0  0
 76152  1  0  0  0
 76153  1  0  0  0
 76 84  1  0  0  0
 77 84  1  0  0  0
 77154  1  0  0  0
 77155  1  0  0  0
 77156  1  0  0  0
 78 86  1  0  0  0
 78157  1  0  0  0
 78158  1  0  0  0
 78159  1  0  0  0
 79 84  1  0  0  0
 79160  1  0  0  0
 79161  1  0  0  0
 80 83  1  0  0  0
 80 84  1  0  0  0
 80162  1  0  0  0
 80163  1  0  0  0
 81 82  1  0  0  0
 81 85  1  0  0  0
 81164  1  0  0  0
 81165  1  0  0  0
 82 86  1  0  0  0
 82166  1  0  0  0
 82167  1  0  0  0
 83168  1  0  0  0
 83169  1  0  0  0
M  ISO  4   1 100  68 101  83 101  86 100
M  END
> <chiral flag>
0

> <version>
0

> <s_m_source_file>
/data/baiqing/PycharmProjects/Reinvent-master-3.2/result/LINK_invent/BTK/process_docking_weight1_custom_sum_contain_oxygen_bond_distance_aromatic_linkinvent_7_9_3/rearranged_h_0104.sdf

> <i_m_source_file_index>
88

> <r_mmod_Potential_Energy-OPLS-2005>
282.748809814453

> <r_mmod_Stretch_Energy-OPLS-2005>
94.9887619018555

> <r_mmod_Bend_Energy-OPLS-2005>
186.566848754883

> <r_mmod_Torsional_Energy-OPLS-2005>
334.229522705078

> <r_mmod_Improper_Torsional_Energy-OPLS-2005>
2.21422863006592

> <r_mmod_Van_der_Waal_Energy-OPLS-2005>
124.530914306641

> <r_mmod_Electrostatic_Energy-OPLS-2005>
-307.097351074219

> <r_mmod_Solvation_Energy-OPLS-2005>
-190.826690673828

> <b_mmod_Minimization_Converged-OPLS-2005>
0

> <r_mmod_RMS_Derivative-OPLS-2005>
0.971375703811646

$$$$
88
                    3D
 Structure written by MMmdl.
173181  0  0  1  0            999 V2000
  -30.7089  -14.5320   20.5155 C   0  0  0  0  0  0
  -30.4105  -12.3269   19.4527 C   0  0  0  0  0  0
  -29.4940  -12.4882   18.2229 C   0  0  0  0  0  0
  -28.0171  -12.3472   18.6350 C   0  0  0  0  0  0
  -27.6517  -13.2210   19.8653 C   0  0  2  0  0  0
  -28.6938  -13.0768   20.9987 C   0  0  0  0  0  0
  -25.2543  -13.8192   20.5719 C   0  0  0  0  0  0
  -24.1807  -13.0446   20.9173 C   0  0  0  0  0  0
  -24.6381  -11.6916   20.8722 C   0  0  0  0  0  0
  -23.9059  -10.4297   21.0386 C   0  0  0  0  0  0
  -24.3614   -9.4219   21.9173 C   0  0  0  0  0  0
  -23.6293   -8.2251   22.0751 C   0  0  0  0  0  0
  -22.4273   -8.0280   21.3541 C   0  0  0  0  0  0
  -21.9906   -9.0248   20.4642 C   0  0  0  0  0  0
  -22.7229  -10.2134   20.3048 C   0  0  0  0  0  0
  -21.6854   -6.0729   22.5272 C   0  0  0  0  0  0
  -21.4005   -6.5633   23.8205 C   0  0  0  0  0  0
  -21.3673   -5.6788   24.9171 C   0  0  0  0  0  0
  -21.6055   -4.3049   24.7222 C   0  0  0  0  0  0
  -21.8813   -3.8140   23.4342 C   0  0  0  0  0  0
  -21.9188   -4.6956   22.3397 C   0  0  0  0  0  0
  -22.7829  -13.5229   21.1846 C   0  0  0  0  0  0
  -22.1663   -4.2139   21.0976 F   0  0  0  0  0  0
  -21.5647   -3.4537   25.7739 F   0  0  0  0  0  0
  -30.0194  -13.3578   20.4325 N   0  0  0  0  0  0
  -26.2973  -12.9390   20.3345 N   0  0  0  0  0  0
  -25.9314  -11.6537   20.5769 N   0  0  0  0  0  0
  -22.0481  -12.8209   22.0401 N   0  0  0  0  0  0
  -25.4294  -15.1922   20.4227 N   0  0  0  0  0  0
  -31.8678  -14.6258   20.1060 O   0  0  0  0  0  0
  -21.6644   -6.8872   21.4234 O   0  0  0  0  0  0
  -22.3519  -14.5540   20.6702 O   0  0  0  0  0  0
  -24.6204  -31.8657   23.2087 C   0  0  0  0  0  0
  -25.9083  -32.4805   23.8392 C   0  0  1  0  0  0
  -27.2158  -27.3750   20.0968 C   0  0  0  0  0  0
  -25.5932  -33.8604   24.2313 N   0  0  0  0  0  0
  -23.4091  -30.4922   21.5528 C   0  0  2  0  0  0
  -24.8515  -28.9633   20.1087 C   0  0  0  0  0  0
  -22.7442  -29.4639   22.4968 C   0  0  0  0  0  0
  -18.0276  -28.1360   22.8469 C   0  0  0  0  0  0
  -24.1490  -36.7309   23.2634 C   0  0  0  0  0  0
  -25.9463  -30.8126   21.3740 C   0  0  0  0  0  0
  -26.0193  -29.4470   20.7124 C   0  0  0  0  0  0
  -27.2047  -28.6620   20.7015 C   0  0  0  0  0  0
  -26.0246  -26.9400   19.4642 C   0  0  0  0  0  0
  -24.8528  -27.7118   19.4790 C   0  0  0  0  0  0
  -23.6182  -29.8363   20.1643 C   0  0  0  0  0  0
  -25.4115  -36.3095   24.0324 C   0  0  1  0  0  0
  -20.5874  -28.3665   23.1281 C   0  0  2  0  0  0
  -20.6768  -26.9397   22.5394 C   0  0  0  0  0  0
  -19.5751  -26.6375   21.5182 C   0  0  0  0  0  0
  -18.1930  -26.7909   22.1599 C   0  0  0  0  0  0
  -19.1526  -28.8828   23.2872 C   0  0  0  0  0  0
  -18.9454  -30.1434   23.8887 C   0  0  0  0  0  0
  -17.6457  -30.6571   24.0547 C   0  0  0  0  0  0
  -25.9048  -34.9463   23.5113 C   0  0  0  0  0  0
  -16.5349  -29.9067   23.6320 C   0  0  0  0  0  0
  -16.7267  -28.6482   23.0342 C   0  0  0  0  0  0
  -26.4496  -31.6591   25.0739 C   0  0  0  0  0  0
  -25.3735  -31.3695   26.1465 C   0  0  0  0  0  0
  -27.0351  -30.3025   24.6164 C   0  0  0  0  0  0
  -27.6068  -32.4313   25.7506 C   0  0  0  0  0  0
  -27.5586  -37.1806   24.8461 C   0  0  0  0  0  0
  -21.4161  -29.3032   22.3698 N   0  0  0  0  0  0
  -26.4295  -37.3785   23.9404 N   0  0  0  0  0  0
  -24.6773  -31.0716   22.1021 N   0  0  0  0  0  0
  -23.4194  -28.8173   23.3023 O   0  0  0  0  0  0
  -28.3472  -26.5577   20.1488 O   0  0  0  0  0  0
  -26.5610  -34.8914   22.4676 O   0  0  0  0  0  0
  -23.5386  -32.1447   23.7448 O   0  0  0  0  0  0
  -29.0828  -21.5284   20.7363 C   0  0  0  0  0  0
  -28.5144  -22.3653   18.5505 C   0  0  0  0  0  0
  -28.9392  -22.6417   19.8606 C   0  0  0  0  0  0
  -28.7720  -20.2084   20.2872 C   0  0  0  0  0  0
  -28.2953  -20.0784   18.9570 C   0  0  0  0  0  0
  -31.3428  -19.2278   21.3983 C   0  0  0  0  0  0
  -30.1593  -17.6731   22.9456 C   0  0  0  0  0  0
  -24.0999  -19.7064   17.7130 C   0  0  0  0  0  0
  -29.2376  -24.1091   20.2767 C   0  0  0  0  0  0
  -28.8164  -18.9883   21.2530 C   0  0  0  0  0  0
  -30.4890  -17.0310   20.5166 C   0  0  0  0  0  0
  -26.2291  -18.6628   18.4474 C   0  0  0  0  0  0
  -28.1437  -25.1444   19.8468 C   0  0  0  0  0  0
  -27.7630  -18.7634   18.3761 C   0  0  1  0  0  0
  -30.1747  -18.2216   21.5040 C   0  0  0  0  0  0
  -28.1680  -21.1365   18.1244 N   0  0  0  0  0  0
  -30.0125  -15.6530   20.8418 N   0  0  0  0  0  0
  -25.5664  -19.6435   17.5610 N   0  3  0  0  0  0
  -28.1514  -18.6135   17.1059 F   0  0  0  0  0  0
  -31.4576  -12.4007   19.1542 H   0  0  0  0  0  0
  -30.2992  -11.3332   19.8896 H   0  0  0  0  0  0
  -29.7404  -11.7418   17.4667 H   0  0  0  0  0  0
  -29.6587  -13.4623   17.7594 H   0  0  0  0  0  0
  -27.8403  -11.2960   18.8641 H   0  0  0  0  0  0
  -27.3651  -12.5866   17.7943 H   0  0  0  0  0  0
  -27.6735  -14.2558   19.5237 H   0  0  0  0  0  0
  -28.6735  -12.0678   21.4132 H   0  0  0  0  0  0
  -28.4622  -13.7477   21.8274 H   0  0  0  0  0  0
  -25.2757   -9.5700   22.4744 H   0  0  0  0  0  0
  -24.0001   -7.4651   22.7477 H   0  0  0  0  0  0
  -21.0835   -8.8761   19.8951 H   0  0  0  0  0  0
  -22.3673  -10.9670   19.6156 H   0  0  0  0  0  0
  -21.1981   -7.6138   23.9705 H   0  0  0  0  0  0
  -21.1516   -6.0520   25.9081 H   0  0  0  0  0  0
  -22.0575   -2.7596   23.2839 H   0  0  0  0  0  0
  -22.4099  -11.9857   22.4766 H   0  0  0  0  0  0
  -21.1107  -13.1237   22.2644 H   0  0  0  0  0  0
  -24.6799  -15.8512   20.6012 H   0  0  0  0  0  0
  -26.3128  -15.6308   20.2053 H   0  0  0  0  0  0
  -26.7159  -32.5489   23.1151 H   0  0  0  0  0  0
  -25.0075  -33.9762   25.0457 H   0  0  0  0  0  0
  -22.6992  -31.3117   21.4180 H   0  0  0  0  0  0
  -23.3744  -35.9650   23.3288 H   0  0  0  0  0  0
  -24.3585  -36.8949   22.2050 H   0  0  0  0  0  0
  -23.7253  -37.6511   23.6668 H   0  0  0  0  0  0
  -26.0726  -31.5806   20.6095 H   0  0  0  0  0  0
  -26.8291  -30.8575   22.0002 H   0  0  0  0  0  0
  -28.1023  -29.0277   21.1814 H   0  0  0  0  0  0
  -25.9600  -25.9920   18.9522 H   0  0  0  0  0  0
  -23.9580  -27.3378   18.9995 H   0  0  0  0  0  0
  -23.7327  -30.6174   19.4114 H   0  0  0  0  0  0
  -22.7384  -29.2643   19.8637 H   0  0  0  0  0  0
  -25.1286  -36.1952   25.0815 H   0  0  0  0  0  0
  -20.9952  -28.3239   24.1404 H   0  0  0  0  0  0
  -20.5652  -26.2281   23.3588 H   0  0  0  0  0  0
  -21.6643  -26.7436   22.1209 H   0  0  0  0  0  0
  -19.6915  -25.6284   21.1224 H   0  0  0  0  0  0
  -19.6679  -27.3166   20.6697 H   0  0  0  0  0  0
  -17.4198  -26.6632   21.4009 H   0  0  0  0  0  0
  -18.0346  -26.0050   22.8996 H   0  0  0  0  0  0
  -19.7937  -30.7234   24.2264 H   0  0  0  0  0  0
  -17.5025  -31.6247   24.5149 H   0  0  0  0  0  0
  -15.5352  -30.2967   23.7645 H   0  0  0  0  0  0
  -15.8672  -28.0798   22.7064 H   0  0  0  0  0  0
  -24.5936  -30.7020   25.7778 H   0  0  0  0  0  0
  -24.8894  -32.2844   26.4882 H   0  0  0  0  0  0
  -25.8078  -30.8882   27.0238 H   0  0  0  0  0  0
  -26.2922  -29.6755   24.1222 H   0  0  0  0  0  0
  -27.4099  -29.7293   25.4656 H   0  0  0  0  0  0
  -27.8770  -30.4322   23.9361 H   0  0  0  0  0  0
  -27.2702  -33.3625   26.2068 H   0  0  0  0  0  0
  -28.3889  -32.6844   25.0336 H   0  0  0  0  0  0
  -28.0723  -31.8440   26.5427 H   0  0  0  0  0  0
  -28.2582  -38.0119   24.7539 H   0  0  0  0  0  0
  -28.1100  -36.2656   24.6257 H   0  0  0  0  0  0
  -27.2303  -37.1430   25.8860 H   0  0  0  0  0  0
  -20.9326  -29.8796   21.6948 H   0  0  0  0  0  0
  -26.0173  -38.2855   24.1418 H   0  0  0  0  0  0
  -29.4080  -21.6878   21.7554 H   0  0  0  0  0  0
  -28.4113  -23.1500   17.8168 H   0  0  0  0  0  0
  -31.2074  -20.0742   22.0715 H   0  0  0  0  0  0
  -31.4489  -19.6199   20.3859 H   0  0  0  0  0  0
  -32.2949  -18.7671   21.6648 H   0  0  0  0  0  0
  -30.0916  -18.4748   23.6824 H   0  0  0  0  0  0
  -31.0638  -17.1056   23.1665 H   0  0  0  0  0  0
  -29.3083  -17.0121   23.1123 H   0  0  0  0  0  0
  -23.6743  -20.4266   17.0142 H   0  0  0  0  0  0
  -23.8220  -20.0137   18.7218 H   0  0  0  0  0  0
  -23.6443  -18.7357   17.5157 H   0  0  0  0  0  0
  -30.1945  -24.3951   19.8393 H   0  0  0  0  0  0
  -29.3697  -24.1554   21.3582 H   0  0  0  0  0  0
  -28.0197  -18.2757   21.0412 H   0  0  0  0  0  0
  -28.5046  -19.4141   22.2090 H   0  0  0  0  0  0
  -31.5756  -16.9831   20.4349 H   0  0  0  0  0  0
  -30.1772  -17.2816   19.5055 H   0  0  0  0  0  0
  -25.9056  -18.8113   19.4789 H   0  0  0  0  0  0
  -25.9134  -17.6586   18.1618 H   0  0  0  0  0  0
  -27.2214  -24.8019   20.3178 H   0  0  0  0  0  0
  -27.9993  -25.0808   18.7688 H   0  0  0  0  0  0
  -28.1893  -17.9092   18.8911 H   0  0  0  0  0  0
  -29.0599  -15.5365   21.1512 H   0  0  0  0  0  0
  -25.9688  -20.5538   17.7377 H   0  0  0  0  0  0
  -25.7947  -19.4068   16.6083 H   0  0  0  0  0  0
  1 25  1  0  0  0
  1 30  2  0  0  0
  1 87  1  0  0  0
  2  3  1  0  0  0
  2 25  1  0  0  0
  2 90  1  0  0  0
  2 91  1  0  0  0
  3  4  1  0  0  0
  3 92  1  0  0  0
  3 93  1  0  0  0
  4  5  1  0  0  0
  4 94  1  0  0  0
  4 95  1  0  0  0
  5  6  1  0  0  0
  5 26  1  0  0  0
  5 96  1  0  0  0
  6 25  1  0  0  0
  6 97  1  0  0  0
  6 98  1  0  0  0
  7  8  2  0  0  0
  7 26  1  0  0  0
  7 29  1  0  0  0
  8  9  1  0  0  0
  8 22  1  0  0  0
  9 10  1  0  0  0
  9 27  2  0  0  0
 10 11  2  0  0  0
 10 15  1  0  0  0
 11 12  1  0  0  0
 11 99  1  0  0  0
 12 13  2  0  0  0
 12100  1  0  0  0
 13 14  1  0  0  0
 13 31  1  0  0  0
 14 15  2  0  0  0
 14101  1  0  0  0
 15102  1  0  0  0
 16 17  2  0  0  0
 16 21  1  0  0  0
 16 31  1  0  0  0
 17 18  1  0  0  0
 17103  1  0  0  0
 18 19  2  0  0  0
 18104  1  0  0  0
 19 20  1  0  0  0
 19 24  1  0  0  0
 20 21  2  0  0  0
 20105  1  0  0  0
 21 23  1  0  0  0
 22 28  1  0  0  0
 22 32  2  0  0  0
 26 27  1  0  0  0
 28106  1  0  0  0
 28107  1  0  0  0
 29108  1  0  0  0
 29109  1  0  0  0
 33 34  1  0  0  0
 33 66  1  0  0  0
 33 70  2  0  0  0
 34 36  1  0  0  0
 34 59  1  0  0  0
 34110  1  0  0  0
 35 44  2  0  0  0
 35 45  1  0  0  0
 35 68  1  0  0  0
 36 56  1  0  0  0
 36111  1  0  0  0
 37 39  1  0  0  0
 37 47  1  0  0  0
 37 66  1  0  0  0
 37112  1  0  0  0
 38 43  2  0  0  0
 38 46  1  0  0  0
 38 47  1  0  0  0
 39 64  1  0  0  0
 39 67  2  0  0  0
 40 52  1  0  0  0
 40 53  2  0  0  0
 40 58  1  0  0  0
 41113  1  0  0  0
 41114  1  0  0  0
 41115  1  0  0  0
 41 48  1  0  0  0
 42 43  1  0  0  0
 42 66  1  0  0  0
 42116  1  0  0  0
 42117  1  0  0  0
 43 44  1  0  0  0
 44118  1  0  0  0
 45 46  2  0  0  0
 45119  1  0  0  0
 46120  1  0  0  0
 47121  1  0  0  0
 47122  1  0  0  0
 48 56  1  0  0  0
 48 65  1  0  0  0
 48123  1  0  0  0
 49 50  1  0  0  0
 49 53  1  0  0  0
 49 64  1  0  0  0
 49124  1  0  0  0
 50 51  1  0  0  0
 50125  1  0  0  0
 50126  1  0  0  0
 51 52  1  0  0  0
 51127  1  0  0  0
 51128  1  0  0  0
 52129  1  0  0  0
 52130  1  0  0  0
 53 54  1  0  0  0
 54 55  2  0  0  0
 54131  1  0  0  0
 55 57  1  0  0  0
 55132  1  0  0  0
 56 69  2  0  0  0
 57 58  2  0  0  0
 57133  1  0  0  0
 58134  1  0  0  0
 59 60  1  0  0  0
 59 61  1  0  0  0
 59 62  1  0  0  0
 60135  1  0  0  0
 60136  1  0  0  0
 60137  1  0  0  0
 61138  1  0  0  0
 61139  1  0  0  0
 61140  1  0  0  0
 62141  1  0  0  0
 62142  1  0  0  0
 62143  1  0  0  0
 63 65  1  0  0  0
 63144  1  0  0  0
 63145  1  0  0  0
 63146  1  0  0  0
 64147  1  0  0  0
 65148  1  0  0  0
 68 83  1  0  0  0
 71 73  2  0  0  0
 71 74  1  0  0  0
 71149  1  0  0  0
 72 73  1  0  0  0
 72 86  2  0  0  0
 72150  1  0  0  0
 73 79  1  0  0  0
 74 75  2  0  0  0
 74 80  1  0  0  0
 75 84  1  0  0  0
 75 86  1  0  0  0
 76151  1  0  0  0
 76152  1  0  0  0
 76153  1  0  0  0
 76 85  1  0  0  0
 77 85  1  0  0  0
 77154  1  0  0  0
 77155  1  0  0  0
 77156  1  0  0  0
 78 88  1  0  0  0
 78157  1  0  0  0
 78158  1  0  0  0
 78159  1  0  0  0
 79 83  1  0  0  0
 79160  1  0  0  0
 79161  1  0  0  0
 80 85  1  0  0  0
 80162  1  0  0  0
 80163  1  0  0  0
 81 85  1  0  0  0
 81 87  1  0  0  0
 81164  1  0  0  0
 81165  1  0  0  0
 82 84  1  0  0  0
 82 88  1  0  0  0
 82166  1  0  0  0
 82167  1  0  0  0
 83168  1  0  0  0
 83169  1  0  0  0
 84 89  1  0  0  0
 84170  1  0  0  0
 87171  1  0  0  0
 88172  1  0  0  0
 88173  1  0  0  0
M  CHG  1  88   1
M  ISO  4   1 100  68 101  83 101  87 100
M  END
> <chiral flag>
0

> <version>
0

> <s_m_source_file>
/data/baiqing/PycharmProjects/Reinvent-master-3.2/result/LINK_invent/BTK/process_docking_weight1_custom_sum_contain_oxygen_bond_distance_aromatic_linkinvent_7_9_3/rearranged_h_0104.sdf

> <i_m_source_file_index>
89

> <r_mmod_Potential_Energy-OPLS-2005>
-371.415374755859

> <r_mmod_Stretch_Energy-OPLS-2005>
58.5082817077637

> <r_mmod_Bend_Energy-OPLS-2005>
129.233810424805

> <r_mmod_Torsional_Energy-OPLS-2005>
225.115737915039

> <r_mmod_Improper_Torsional_Energy-OPLS-2005>
6.1317310333252

> <r_mmod_Van_der_Waal_Energy-OPLS-2005>
164.593521118164

> <r_mmod_Electrostatic_Energy-OPLS-2005>
-520.265502929688

> <r_mmod_Solvation_Energy-OPLS-2005>
-463.248748779297

> <b_mmod_Minimization_Converged-OPLS-2005>
0

> <r_mmod_RMS_Derivative-OPLS-2005>
1.44983494281769

$$$$
89
                    3D
 Structure written by MMmdl.
150158  0  0  1  0            999 V2000
  -30.4838  -15.1763   20.4174 C   0  0  0  0  0  0
  -30.4470  -12.7522   19.5187 C   0  0  0  0  0  0
  -29.5327  -12.5699   18.2820 C   0  0  0  0  0  0
  -28.0810  -12.3024   18.7135 C   0  0  0  0  0  0
  -27.6269  -13.2602   19.8446 C   0  0  2  0  0  0
  -28.6690  -13.3483   20.9794 C   0  0  0  0  0  0
  -25.2444  -13.8215   20.5712 C   0  0  0  0  0  0
  -24.1767  -13.0428   20.9201 C   0  0  0  0  0  0
  -24.6401  -11.6924   20.8740 C   0  0  0  0  0  0
  -23.9087  -10.4285   21.0396 C   0  0  0  0  0  0
  -24.3624   -9.4200   21.9186 C   0  0  0  0  0  0
  -23.6277   -8.2244   22.0763 C   0  0  0  0  0  0
  -22.4265   -8.0281   21.3543 C   0  0  0  0  0  0
  -21.9906   -9.0266   20.4655 C   0  0  0  0  0  0
  -22.7249  -10.2136   20.3054 C   0  0  0  0  0  0
  -21.6848   -6.0721   22.5265 C   0  0  0  0  0  0
  -21.4019   -6.5630   23.8198 C   0  0  0  0  0  0
  -21.3652   -5.6784   24.9160 C   0  0  0  0  0  0
  -21.6039   -4.3048   24.7218 C   0  0  0  0  0  0
  -21.8822   -3.8136   23.4342 C   0  0  0  0  0  0
  -21.9196   -4.6951   22.3392 C   0  0  0  0  0  0
  -22.7787  -13.5207   21.1844 C   0  0  0  0  0  0
  -22.1656   -4.2133   21.0971 F   0  0  0  0  0  0
  -21.5629   -3.4530   25.7733 F   0  0  0  0  0  0
  -29.9062  -13.8754   20.3703 N   0  0  0  0  0  0
  -26.2890  -12.9468   20.3299 N   0  0  0  0  0  0
  -25.9351  -11.6586   20.5773 N   0  0  0  0  0  0
  -22.0431  -12.8209   22.0410 N   0  0  0  0  0  0
  -25.4069  -15.1938   20.4110 N   0  0  0  0  0  0
  -31.6740  -15.1845   20.0691 O   0  0  0  0  0  0
  -21.6638   -6.8872   21.4232 O   0  0  0  0  0  0
  -22.3467  -14.5504   20.6676 O   0  0  0  0  0  0
  -24.6600  -31.8264   23.1720 C   0  0  0  0  0  0
  -25.9299  -32.4597   23.8161 C   0  0  1  0  0  0
  -27.2107  -26.9659   20.1713 C   0  0  0  0  0  0
  -25.5998  -33.8407   24.2079 N   0  0  0  0  0  0
  -23.4719  -30.4433   21.5190 C   0  0  2  0  0  0
  -24.9229  -28.8405   20.1096 C   0  0  0  0  0  0
  -22.7654  -29.4469   22.4756 C   0  0  0  0  0  0
  -18.0337  -28.1404   22.8471 C   0  0  0  0  0  0
  -24.1495  -36.7180   23.2651 C   0  0  0  0  0  0
  -26.0411  -30.6446   21.3980 C   0  0  0  0  0  0
  -26.1071  -29.2400   20.7413 C   0  0  0  0  0  0
  -27.2467  -28.3226   20.7515 C   0  0  0  0  0  0
  -25.9966  -26.7145   19.4894 C   0  0  0  0  0  0
  -24.8903  -27.5957   19.4650 C   0  0  0  0  0  0
  -23.7090  -29.7637   20.1434 C   0  0  0  0  0  0
  -25.4131  -36.2950   24.0308 C   0  0  1  0  0  0
  -20.5963  -28.3741   23.1181 C   0  0  2  0  0  0
  -20.6813  -26.9429   22.5381 C   0  0  0  0  0  0
  -19.5780  -26.6378   21.5199 C   0  0  0  0  0  0
  -18.1965  -26.7952   22.1611 C   0  0  0  0  0  0
  -19.1601  -28.8894   23.2826 C   0  0  0  0  0  0
  -18.9512  -30.1491   23.8853 C   0  0  0  0  0  0
  -17.6507  -30.6595   24.0562 C   0  0  0  0  0  0
  -25.9101  -34.9340   23.5001 C   0  0  0  0  0  0
  -16.5393  -29.9085   23.6355 C   0  0  0  0  0  0
  -16.7319  -28.6503   23.0370 C   0  0  0  0  0  0
  -26.4584  -31.6530   25.0664 C   0  0  0  0  0  0
  -25.3727  -31.3758   26.1322 C   0  0  0  0  0  0
  -27.0501  -30.2917   24.6363 C   0  0  0  0  0  0
  -27.6096  -32.4334   25.7440 C   0  0  0  0  0  0
  -27.5566  -37.1732   24.8479 C   0  0  0  0  0  0
  -21.4323  -29.3046   22.3523 N   0  0  0  0  0  0
  -26.4268  -37.3694   23.9435 N   0  0  0  0  0  0
  -24.7452  -30.9975   22.0831 N   0  0  0  0  0  0
  -23.4227  -28.8035   23.2976 O   0  0  0  0  0  0
  -28.1969  -25.8584   20.2555 O   0  0  0  0  0  0
  -26.5690  -34.8891   22.4586 O   0  0  0  0  0  0
  -23.5671  -32.1215   23.6835 O   0  0  0  0  0  0
  -29.8679  -22.2347   20.1752 C   0  0  0  0  0  0
  -27.6933  -21.5150   20.3163 C   0  0  0  0  0  0
  -28.5054  -22.7272   20.2264 C   0  0  0  0  0  0
  -29.4831  -19.6043   20.2791 C   0  0  0  0  0  0
  -30.3123  -20.8156   20.2054 C   0  0  0  0  0  0
  -28.1168  -20.0929   20.3325 C   0  0  0  0  0  0
  -28.8269  -16.5182   21.7222 C   0  0  0  0  0  0
  -30.1130  -17.9865   20.1077 C   0  0  0  0  0  0
  -27.7968  -24.3013   20.0216 C   0  0  0  0  0  0
  -29.7601  -16.4569   20.5992 N   0  0  0  0  0  0
  -32.0220  -20.5893   20.1013 Cl  0  0  0  0  0  0
  -26.8536  -18.9170   20.3591 Cl  0  0  0  0  0  0
  -31.4646  -12.9473   19.1776 H   0  0  0  0  0  0
  -30.5134  -11.8244   20.0893 H   0  0  0  0  0  0
  -29.8981  -11.7488   17.6636 H   0  0  0  0  0  0
  -29.5724  -13.4653   17.6598 H   0  0  0  0  0  0
  -28.0373  -11.2727   19.0723 H   0  0  0  0  0  0
  -27.4052  -12.3581   17.8602 H   0  0  0  0  0  0
  -27.5696  -14.2497   19.3893 H   0  0  0  0  0  0
  -28.8272  -12.3705   21.4360 H   0  0  0  0  0  0
  -28.3136  -13.9782   21.7903 H   0  0  0  0  0  0
  -25.2768   -9.5671   22.4772 H   0  0  0  0  0  0
  -23.9966   -7.4640   22.7495 H   0  0  0  0  0  0
  -21.0827   -8.8805   19.8965 H   0  0  0  0  0  0
  -22.3713  -10.9683   19.6171 H   0  0  0  0  0  0
  -21.2013   -7.6138   23.9696 H   0  0  0  0  0  0
  -21.1462   -6.0514   25.9062 H   0  0  0  0  0  0
  -22.0609   -2.7595   23.2846 H   0  0  0  0  0  0
  -22.4034  -11.9878   22.4808 H   0  0  0  0  0  0
  -21.1065  -13.1281   22.2624 H   0  0  0  0  0  0
  -24.6413  -15.8467   20.5329 H   0  0  0  0  0  0
  -26.2628  -15.6419   20.1102 H   0  0  0  0  0  0
  -26.7348  -32.5144   23.0849 H   0  0  0  0  0  0
  -25.0185  -33.9503   25.0257 H   0  0  0  0  0  0
  -22.7845  -31.2749   21.3501 H   0  0  0  0  0  0
  -23.3783  -35.9486   23.3269 H   0  0  0  0  0  0
  -24.3592  -36.8857   22.2079 H   0  0  0  0  0  0
  -23.7218  -37.6344   23.6722 H   0  0  0  0  0  0
  -26.2249  -31.3872   20.6204 H   0  0  0  0  0  0
  -26.9005  -30.6937   22.0539 H   0  0  0  0  0  0
  -28.1402  -28.6210   21.2809 H   0  0  0  0  0  0
  -25.8525  -25.7686   18.9902 H   0  0  0  0  0  0
  -23.9882  -27.2836   18.9560 H   0  0  0  0  0  0
  -23.8633  -30.5326   19.3858 H   0  0  0  0  0  0
  -22.8202  -29.2159   19.8246 H   0  0  0  0  0  0
  -25.1328  -36.1726   25.0799 H   0  0  0  0  0  0
  -21.0081  -28.3334   24.1291 H   0  0  0  0  0  0
  -20.5698  -26.2360   23.3614 H   0  0  0  0  0  0
  -21.6674  -26.7405   22.1174 H   0  0  0  0  0  0
  -19.6943  -25.6277   21.1250 H   0  0  0  0  0  0
  -19.6726  -27.3173   20.6718 H   0  0  0  0  0  0
  -17.4237  -26.6714   21.4015 H   0  0  0  0  0  0
  -18.0359  -26.0104   22.9013 H   0  0  0  0  0  0
  -19.7995  -30.7322   24.2190 H   0  0  0  0  0  0
  -17.5063  -31.6283   24.5157 H   0  0  0  0  0  0
  -15.5394  -30.2971   23.7712 H   0  0  0  0  0  0
  -15.8726  -28.0803   22.7107 H   0  0  0  0  0  0
  -24.5925  -30.7111   25.7593 H   0  0  0  0  0  0
  -24.8917  -32.2963   26.4641 H   0  0  0  0  0  0
  -25.7969  -30.8966   27.0153 H   0  0  0  0  0  0
  -26.3172  -29.6575   24.1365 H   0  0  0  0  0  0
  -27.4093  -29.7277   25.4979 H   0  0  0  0  0  0
  -27.9081  -30.4148   23.9751 H   0  0  0  0  0  0
  -27.2707  -33.3724   26.1817 H   0  0  0  0  0  0
  -28.3993  -32.6730   25.0308 H   0  0  0  0  0  0
  -28.0656  -31.8574   26.5497 H   0  0  0  0  0  0
  -28.2534  -38.0071   24.7552 H   0  0  0  0  0  0
  -28.1097  -36.2595   24.6254 H   0  0  0  0  0  0
  -27.2293  -37.1310   25.8882 H   0  0  0  0  0  0
  -20.9547  -29.8734   21.6668 H   0  0  0  0  0  0
  -26.0098  -38.2737   24.1487 H   0  0  0  0  0  0
  -30.6433  -22.9810   20.0774 H   0  0  0  0  0  0
  -26.6249  -21.6754   20.3384 H   0  0  0  0  0  0
  -27.8367  -16.1799   21.4222 H   0  0  0  0  0  0
  -28.7275  -17.5296   22.1150 H   0  0  0  0  0  0
  -29.1717  -15.9083   22.5593 H   0  0  0  0  0  0
  -31.1528  -18.0717   20.4189 H   0  0  0  0  0  0
  -30.1784  -17.8735   19.0250 H   0  0  0  0  0  0
  -26.8656  -24.2050   20.5813 H   0  0  0  0  0  0
  -27.4895  -24.2695   18.9763 H   0  0  0  0  0  0
  1 25  1  0  0  0
  1 30  2  0  0  0
  1 80  1  0  0  0
  2  3  1  0  0  0
  2 25  1  0  0  0
  2 83  1  0  0  0
  2 84  1  0  0  0
  3  4  1  0  0  0
  3 85  1  0  0  0
  3 86  1  0  0  0
  4  5  1  0  0  0
  4 87  1  0  0  0
  4 88  1  0  0  0
  5  6  1  0  0  0
  5 26  1  0  0  0
  5 89  1  0  0  0
  6 25  1  0  0  0
  6 90  1  0  0  0
  6 91  1  0  0  0
  7  8  2  0  0  0
  7 26  1  0  0  0
  7 29  1  0  0  0
  8  9  1  0  0  0
  8 22  1  0  0  0
  9 10  1  0  0  0
  9 27  2  0  0  0
 10 11  2  0  0  0
 10 15  1  0  0  0
 11 12  1  0  0  0
 11 92  1  0  0  0
 12 13  2  0  0  0
 12 93  1  0  0  0
 13 14  1  0  0  0
 13 31  1  0  0  0
 14 15  2  0  0  0
 14 94  1  0  0  0
 15 95  1  0  0  0
 16 17  2  0  0  0
 16 21  1  0  0  0
 16 31  1  0  0  0
 17 18  1  0  0  0
 17 96  1  0  0  0
 18 19  2  0  0  0
 18 97  1  0  0  0
 19 20  1  0  0  0
 19 24  1  0  0  0
 20 21  2  0  0  0
 20 98  1  0  0  0
 21 23  1  0  0  0
 22 28  1  0  0  0
 22 32  2  0  0  0
 26 27  1  0  0  0
 28 99  1  0  0  0
 28100  1  0  0  0
 29101  1  0  0  0
 29102  1  0  0  0
 33 34  1  0  0  0
 33 66  1  0  0  0
 33 70  2  0  0  0
 34 36  1  0  0  0
 34 59  1  0  0  0
 34103  1  0  0  0
 35 44  2  0  0  0
 35 45  1  0  0  0
 35 68  1  0  0  0
 36 56  1  0  0  0
 36104  1  0  0  0
 37 39  1  0  0  0
 37 47  1  0  0  0
 37 66  1  0  0  0
 37105  1  0  0  0
 38 43  2  0  0  0
 38 46  1  0  0  0
 38 47  1  0  0  0
 39 64  1  0  0  0
 39 67  2  0  0  0
 40 52  1  0  0  0
 40 53  2  0  0  0
 40 58  1  0  0  0
 41106  1  0  0  0
 41107  1  0  0  0
 41108  1  0  0  0
 41 48  1  0  0  0
 42 43  1  0  0  0
 42 66  1  0  0  0
 42109  1  0  0  0
 42110  1  0  0  0
 43 44  1  0  0  0
 44111  1  0  0  0
 45 46  2  0  0  0
 45112  1  0  0  0
 46113  1  0  0  0
 47114  1  0  0  0
 47115  1  0  0  0
 48 56  1  0  0  0
 48 65  1  0  0  0
 48116  1  0  0  0
 49 50  1  0  0  0
 49 53  1  0  0  0
 49 64  1  0  0  0
 49117  1  0  0  0
 50 51  1  0  0  0
 50118  1  0  0  0
 50119  1  0  0  0
 51 52  1  0  0  0
 51120  1  0  0  0
 51121  1  0  0  0
 52122  1  0  0  0
 52123  1  0  0  0
 53 54  1  0  0  0
 54 55  2  0  0  0
 54124  1  0  0  0
 55 57  1  0  0  0
 55125  1  0  0  0
 56 69  2  0  0  0
 57 58  2  0  0  0
 57126  1  0  0  0
 58127  1  0  0  0
 59 60  1  0  0  0
 59 61  1  0  0  0
 59 62  1  0  0  0
 60128  1  0  0  0
 60129  1  0  0  0
 60130  1  0  0  0
 61131  1  0  0  0
 61132  1  0  0  0
 61133  1  0  0  0
 62134  1  0  0  0
 62135  1  0  0  0
 62136  1  0  0  0
 63 65  1  0  0  0
 63137  1  0  0  0
 63138  1  0  0  0
 63139  1  0  0  0
 64140  1  0  0  0
 65141  1  0  0  0
 68 79  1  0  0  0
 71 73  2  0  0  0
 71 75  1  0  0  0
 71142  1  0  0  0
 72 73  1  0  0  0
 72 76  2  0  0  0
 72143  1  0  0  0
 73 79  1  0  0  0
 74 75  2  0  0  0
 74 76  1  0  0  0
 74 78  1  0  0  0
 75 81  1  0  0  0
 76 82  1  0  0  0
 77 80  1  0  0  0
 77144  1  0  0  0
 77145  1  0  0  0
 77146  1  0  0  0
 78 80  1  0  0  0
 78147  1  0  0  0
 78148  1  0  0  0
 79149  1  0  0  0
 79150  1  0  0  0
M  ISO  4   1 100  68 101  79 101  80 100
M  END
> <chiral flag>
0

> <version>
0

> <s_m_source_file>
/data/baiqing/PycharmProjects/Reinvent-master-3.2/result/LINK_invent/BTK/process_docking_weight1_custom_sum_contain_oxygen_bond_distance_aromatic_linkinvent_7_9_3/rearranged_h_0104.sdf

> <i_m_source_file_index>
90

> <r_mmod_Potential_Energy-OPLS-2005>
1165.65270996094

> <r_mmod_Stretch_Energy-OPLS-2005>
462.164001464844

> <r_mmod_Bend_Energy-OPLS-2005>
438.290679931641

> <r_mmod_Torsional_Energy-OPLS-2005>
254.741027832031

> <r_mmod_Improper_Torsional_Energy-OPLS-2005>
8.2294282913208

> <r_mmod_Van_der_Waal_Energy-OPLS-2005>
132.496353149414

> <r_mmod_Electrostatic_Energy-OPLS-2005>
-310.053070068359

> <r_mmod_Solvation_Energy-OPLS-2005>
-198.897857666016

> <b_mmod_Minimization_Converged-OPLS-2005>
0

> <r_mmod_RMS_Derivative-OPLS-2005>
2.10537195205688

$$$$
90
                    3D
 Structure written by MMmdl.
149156  0  0  1  0            999 V2000
  -30.3266  -15.5799   20.3454 C   0  0  0  0  0  0
  -30.4322  -13.0436   19.5260 C   0  0  0  0  0  0
  -29.5461  -12.6422   18.3126 C   0  0  0  0  0  0
  -28.1154  -12.2930   18.7562 C   0  0  0  0  0  0
  -27.5993  -13.2872   19.8202 C   0  0  2  0  0  0
  -28.6319  -13.5760   20.9365 C   0  0  0  0  0  0
  -25.2291  -13.8188   20.5776 C   0  0  0  0  0  0
  -24.1682  -13.0361   20.9280 C   0  0  0  0  0  0
  -24.6394  -11.6884   20.8781 C   0  0  0  0  0  0
  -23.9101  -10.4252   21.0415 C   0  0  0  0  0  0
  -24.3640   -9.4165   21.9191 C   0  0  0  0  0  0
  -23.6298   -8.2215   22.0763 C   0  0  0  0  0  0
  -22.4277   -8.0268   21.3552 C   0  0  0  0  0  0
  -21.9926   -9.0244   20.4652 C   0  0  0  0  0  0
  -22.7271  -10.2109   20.3059 C   0  0  0  0  0  0
  -21.6844   -6.0732   22.5285 C   0  0  0  0  0  0
  -21.4008   -6.5636   23.8217 C   0  0  0  0  0  0
  -21.3659   -5.6792   24.9179 C   0  0  0  0  0  0
  -21.6046   -4.3054   24.7230 C   0  0  0  0  0  0
  -21.8811   -3.8146   23.4350 C   0  0  0  0  0  0
  -21.9185   -4.6961   22.3407 C   0  0  0  0  0  0
  -22.7701  -13.5116   21.1917 C   0  0  0  0  0  0
  -22.1657   -4.2149   21.0986 F   0  0  0  0  0  0
  -21.5633   -3.4539   25.7742 F   0  0  0  0  0  0
  -29.7990  -14.2164   20.2786 N   0  0  0  0  0  0
  -26.2775  -12.9518   20.3286 N   0  0  0  0  0  0
  -25.9342  -11.6606   20.5752 N   0  0  0  0  0  0
  -22.0374  -12.8113   22.0491 N   0  0  0  0  0  0
  -25.3741  -15.1918   20.4193 N   0  0  0  0  0  0
  -31.5632  -15.5158   20.2003 O   0  0  0  0  0  0
  -21.6627   -6.8879   21.4251 O   0  0  0  0  0  0
  -22.3379  -14.5420   20.6759 O   0  0  0  0  0  0
  -24.6792  -31.8039   23.1543 C   0  0  0  0  0  0
  -25.9388  -32.4487   23.8079 C   0  0  1  0  0  0
  -27.2335  -26.7484   20.2129 C   0  0  0  0  0  0
  -25.5981  -33.8310   24.1967 N   0  0  0  0  0  0
  -23.5038  -30.4065   21.5065 C   0  0  2  0  0  0
  -24.9627  -28.7545   20.1184 C   0  0  0  0  0  0
  -22.7744  -29.4334   22.4714 C   0  0  0  0  0  0
  -18.0335  -28.1416   22.8455 C   0  0  0  0  0  0
  -24.1494  -36.7166   23.2652 C   0  0  0  0  0  0
  -26.0820  -30.5530   21.4114 C   0  0  0  0  0  0
  -26.1507  -29.1220   20.7617 C   0  0  0  0  0  0
  -27.2726  -28.1467   20.7749 C   0  0  0  0  0  0
  -26.0104  -26.5758   19.5176 C   0  0  0  0  0  0
  -24.9288  -27.5058   19.4732 C   0  0  0  0  0  0
  -23.7559  -29.7038   20.1415 C   0  0  0  0  0  0
  -25.4142  -36.2906   24.0284 C   0  0  1  0  0  0
  -20.5968  -28.3775   23.1144 C   0  0  2  0  0  0
  -20.6801  -26.9434   22.5404 C   0  0  0  0  0  0
  -19.5780  -26.6365   21.5215 C   0  0  0  0  0  0
  -18.1962  -26.7943   22.1620 C   0  0  0  0  0  0
  -19.1601  -28.8921   23.2782 C   0  0  0  0  0  0
  -18.9507  -30.1504   23.8828 C   0  0  0  0  0  0
  -17.6499  -30.6601   24.0549 C   0  0  0  0  0  0
  -25.9119  -34.9294   23.4961 C   0  0  0  0  0  0
  -16.5387  -29.9085   23.6345 C   0  0  0  0  0  0
  -16.7317  -28.6505   23.0365 C   0  0  0  0  0  0
  -26.4581  -31.6510   25.0688 C   0  0  0  0  0  0
  -25.3659  -31.3820   26.1313 C   0  0  0  0  0  0
  -27.0506  -30.2851   24.6563 C   0  0  0  0  0  0
  -27.6029  -32.4368   25.7511 C   0  0  0  0  0  0
  -27.5563  -37.1739   24.8463 C   0  0  0  0  0  0
  -21.4397  -29.3031   22.3467 N   0  0  0  0  0  0
  -26.4272  -37.3661   23.9403 N   0  0  0  0  0  0
  -24.7779  -30.9529   22.0770 N   0  0  0  0  0  0
  -23.4206  -28.7932   23.3044 O   0  0  0  0  0  0
  -28.2201  -25.5648   20.2810 O   0  0  0  0  0  0
  -26.5757  -34.8864   22.4576 O   0  0  0  0  0  0
  -23.5820  -32.1094   23.6522 O   0  0  0  0  0  0
  -29.8800  -22.4245   21.6208 C   0  0  0  0  0  0
  -28.1184  -16.8370   20.4151 C   0  0  0  0  0  0
  -28.8152  -20.3088   20.2990 C   0  0  0  0  0  0
  -29.8493  -18.6894   20.3422 C   0  0  0  0  0  0
  -28.0338  -23.8344   20.2092 C   0  0  0  0  0  0
  -29.0575  -22.2136   20.3442 C   0  0  1  0  0  0
  -29.5698  -16.9501   20.3754 N   0  0  0  0  0  0
  -31.4235  -13.3098   19.1576 H   0  0  0  0  0  0
  -30.5996  -12.1900   20.1854 H   0  0  0  0  0  0
  -29.9899  -11.8040   17.7738 H   0  0  0  0  0  0
  -29.5127  -13.4757   17.6090 H   0  0  0  0  0  0
  -28.1306  -11.2867   19.1763 H   0  0  0  0  0  0
  -27.4430  -12.2598   17.8981 H   0  0  0  0  0  0
  -27.4641  -14.2082   19.2586 H   0  0  0  0  0  0
  -28.8984  -12.6654   21.4745 H   0  0  0  0  0  0
  -28.2161  -14.2396   21.6917 H   0  0  0  0  0  0
  -25.2785   -9.5626   22.4764 H   0  0  0  0  0  0
  -23.9992   -7.4599   22.7481 H   0  0  0  0  0  0
  -21.0854   -8.8769   19.8959 H   0  0  0  0  0  0
  -22.3742  -10.9649   19.6165 H   0  0  0  0  0  0
  -21.2003   -7.6146   23.9720 H   0  0  0  0  0  0
  -21.1491   -6.0526   25.9082 H   0  0  0  0  0  0
  -22.0591   -2.7608   23.2853 H   0  0  0  0  0  0
  -22.4018  -11.9790   22.4887 H   0  0  0  0  0  0
  -21.0992  -13.1127   22.2717 H   0  0  0  0  0  0
  -24.5952  -15.8292   20.5431 H   0  0  0  0  0  0
  -26.2206  -15.6538   20.1176 H   0  0  0  0  0  0
  -26.7470  -32.4976   23.0797 H   0  0  0  0  0  0
  -25.0033  -33.9359   25.0055 H   0  0  0  0  0  0
  -22.8271  -31.2426   21.3180 H   0  0  0  0  0  0
  -23.3768  -35.9484   23.3269 H   0  0  0  0  0  0
  -24.3563  -36.8872   22.2075 H   0  0  0  0  0  0
  -23.7250  -37.6331   23.6759 H   0  0  0  0  0  0
  -26.2791  -31.2804   20.6228 H   0  0  0  0  0  0
  -26.9349  -30.6207   22.0746 H   0  0  0  0  0  0
  -28.1692  -28.4347   21.3054 H   0  0  0  0  0  0
  -25.8538  -25.6277   19.0232 H   0  0  0  0  0  0
  -24.0305  -27.2157   18.9454 H   0  0  0  0  0  0
  -23.9261  -30.4636   19.3781 H   0  0  0  0  0  0
  -22.8624  -29.1659   19.8197 H   0  0  0  0  0  0
  -25.1352  -36.1671   25.0775 H   0  0  0  0  0  0
  -21.0057  -28.3403   24.1268 H   0  0  0  0  0  0
  -20.5656  -26.2402   23.3666 H   0  0  0  0  0  0
  -21.6664  -26.7372   22.1228 H   0  0  0  0  0  0
  -19.6934  -25.6255   21.1295 H   0  0  0  0  0  0
  -19.6725  -27.3131   20.6711 H   0  0  0  0  0  0
  -17.4228  -26.6679   21.4026 H   0  0  0  0  0  0
  -18.0356  -26.0105   22.9035 H   0  0  0  0  0  0
  -19.7985  -30.7333   24.2167 H   0  0  0  0  0  0
  -17.5052  -31.6274   24.5165 H   0  0  0  0  0  0
  -15.5385  -30.2966   23.7708 H   0  0  0  0  0  0
  -15.8718  -28.0800   22.7122 H   0  0  0  0  0  0
  -24.5858  -30.7156   25.7615 H   0  0  0  0  0  0
  -24.8839  -32.3046   26.4558 H   0  0  0  0  0  0
  -25.7850  -30.9099   27.0209 H   0  0  0  0  0  0
  -26.3214  -29.6474   24.1558 H   0  0  0  0  0  0
  -27.3941  -29.7287   25.5294 H   0  0  0  0  0  0
  -27.9191  -30.3974   24.0073 H   0  0  0  0  0  0
  -27.2557  -33.3724   26.1905 H   0  0  0  0  0  0
  -28.3940  -32.6843   25.0421 H   0  0  0  0  0  0
  -28.0589  -31.8626   26.5587 H   0  0  0  0  0  0
  -28.2546  -38.0062   24.7501 H   0  0  0  0  0  0
  -28.1090  -36.2584   24.6300 H   0  0  0  0  0  0
  -27.2275  -37.1386   25.8863 H   0  0  0  0  0  0
  -20.9688  -29.8691   21.6544 H   0  0  0  0  0  0
  -26.0099  -38.2707   24.1418 H   0  0  0  0  0  0
  -30.6940  -21.7027   21.6950 H   0  0  0  0  0  0
  -29.2564  -22.3174   22.5089 H   0  0  0  0  0  0
  -30.3220  -23.4213   21.6446 H   0  0  0  0  0  0
  -27.6159  -17.8034   20.4364 H   0  0  0  0  0  0
  -27.7894  -16.3074   21.3064 H   0  0  0  0  0  0
  -27.7643  -16.3316   19.5198 H   0  0  0  0  0  0
  -28.1056  -20.1514   21.1122 H   0  0  0  0  0  0
  -28.2042  -20.1721   19.4066 H   0  0  0  0  0  0
  -30.5059  -18.8253   21.2019 H   0  0  0  0  0  0
  -30.5250  -18.7914   19.4923 H   0  0  0  0  0  0
  -27.2479  -23.6815   20.9490 H   0  0  0  0  0  0
  -27.5120  -23.7116   19.2602 H   0  0  0  0  0  0
  -29.7585  -22.3492   19.5198 H   0  0  0  0  0  0
  1 25  1  0  0  0
  1 30  2  0  0  0
  1 77  1  0  0  0
  2  3  1  0  0  0
  2 25  1  0  0  0
  2 78  1  0  0  0
  2 79  1  0  0  0
  3  4  1  0  0  0
  3 80  1  0  0  0
  3 81  1  0  0  0
  4  5  1  0  0  0
  4 82  1  0  0  0
  4 83  1  0  0  0
  5  6  1  0  0  0
  5 26  1  0  0  0
  5 84  1  0  0  0
  6 25  1  0  0  0
  6 85  1  0  0  0
  6 86  1  0  0  0
  7  8  2  0  0  0
  7 26  1  0  0  0
  7 29  1  0  0  0
  8  9  1  0  0  0
  8 22  1  0  0  0
  9 10  1  0  0  0
  9 27  2  0  0  0
 10 11  2  0  0  0
 10 15  1  0  0  0
 11 12  1  0  0  0
 11 87  1  0  0  0
 12 13  2  0  0  0
 12 88  1  0  0  0
 13 14  1  0  0  0
 13 31  1  0  0  0
 14 15  2  0  0  0
 14 89  1  0  0  0
 15 90  1  0  0  0
 16 17  2  0  0  0
 16 21  1  0  0  0
 16 31  1  0  0  0
 17 18  1  0  0  0
 17 91  1  0  0  0
 18 19  2  0  0  0
 18 92  1  0  0  0
 19 20  1  0  0  0
 19 24  1  0  0  0
 20 21  2  0  0  0
 20 93  1  0  0  0
 21 23  1  0  0  0
 22 28  1  0  0  0
 22 32  2  0  0  0
 26 27  1  0  0  0
 28 94  1  0  0  0
 28 95  1  0  0  0
 29 96  1  0  0  0
 29 97  1  0  0  0
 33 34  1  0  0  0
 33 66  1  0  0  0
 33 70  2  0  0  0
 34 36  1  0  0  0
 34 59  1  0  0  0
 34 98  1  0  0  0
 35 44  2  0  0  0
 35 45  1  0  0  0
 35 68  1  0  0  0
 36 56  1  0  0  0
 36 99  1  0  0  0
 37 39  1  0  0  0
 37 47  1  0  0  0
 37 66  1  0  0  0
 37100  1  0  0  0
 38 43  2  0  0  0
 38 46  1  0  0  0
 38 47  1  0  0  0
 39 64  1  0  0  0
 39 67  2  0  0  0
 40 52  1  0  0  0
 40 53  2  0  0  0
 40 58  1  0  0  0
 41101  1  0  0  0
 41102  1  0  0  0
 41103  1  0  0  0
 41 48  1  0  0  0
 42 43  1  0  0  0
 42 66  1  0  0  0
 42104  1  0  0  0
 42105  1  0  0  0
 43 44  1  0  0  0
 44106  1  0  0  0
 45 46  2  0  0  0
 45107  1  0  0  0
 46108  1  0  0  0
 47109  1  0  0  0
 47110  1  0  0  0
 48 56  1  0  0  0
 48 65  1  0  0  0
 48111  1  0  0  0
 49 50  1  0  0  0
 49 53  1  0  0  0
 49 64  1  0  0  0
 49112  1  0  0  0
 50 51  1  0  0  0
 50113  1  0  0  0
 50114  1  0  0  0
 51 52  1  0  0  0
 51115  1  0  0  0
 51116  1  0  0  0
 52117  1  0  0  0
 52118  1  0  0  0
 53 54  1  0  0  0
 54 55  2  0  0  0
 54119  1  0  0  0
 55 57  1  0  0  0
 55120  1  0  0  0
 56 69  2  0  0  0
 57 58  2  0  0  0
 57121  1  0  0  0
 58122  1  0  0  0
 59 60  1  0  0  0
 59 61  1  0  0  0
 59 62  1  0  0  0
 60123  1  0  0  0
 60124  1  0  0  0
 60125  1  0  0  0
 61126  1  0  0  0
 61127  1  0  0  0
 61128  1  0  0  0
 62129  1  0  0  0
 62130  1  0  0  0
 62131  1  0  0  0
 63 65  1  0  0  0
 63132  1  0  0  0
 63133  1  0  0  0
 63134  1  0  0  0
 64135  1  0  0  0
 65136  1  0  0  0
 68 75  1  0  0  0
 71137  1  0  0  0
 71138  1  0  0  0
 71139  1  0  0  0
 71 76  1  0  0  0
 72 77  1  0  0  0
 72140  1  0  0  0
 72141  1  0  0  0
 72142  1  0  0  0
 73 74  1  0  0  0
 73 76  1  0  0  0
 73143  1  0  0  0
 73144  1  0  0  0
 74 77  1  0  0  0
 74145  1  0  0  0
 74146  1  0  0  0
 75 76  1  0  0  0
 75147  1  0  0  0
 75148  1  0  0  0
 76149  1  0  0  0
M  ISO  4   1 100  68 101  75 101  77 100
M  END
> <chiral flag>
0

> <version>
0

> <s_m_source_file>
/data/baiqing/PycharmProjects/Reinvent-master-3.2/result/LINK_invent/BTK/process_docking_weight1_custom_sum_contain_oxygen_bond_distance_aromatic_linkinvent_7_9_3/rearranged_h_0104.sdf

> <i_m_source_file_index>
91

> <r_mmod_Potential_Energy-OPLS-2005>
2411.29272460938

> <r_mmod_Stretch_Energy-OPLS-2005>
1098.2578125

> <r_mmod_Bend_Energy-OPLS-2005>
603.540771484375

> <r_mmod_Torsional_Energy-OPLS-2005>
269.639404296875

> <r_mmod_Improper_Torsional_Energy-OPLS-2005>
3.8608877658844

> <r_mmod_Van_der_Waal_Energy-OPLS-2005>
112.727157592773

> <r_mmod_Electrostatic_Energy-OPLS-2005>
-274.683410644531

> <r_mmod_Solvation_Energy-OPLS-2005>
-206.314010620117

> <b_mmod_Minimization_Converged-OPLS-2005>
0

> <r_mmod_RMS_Derivative-OPLS-2005>
0.850766897201538

$$$$
92
                    3D
 Structure written by MMmdl.
175183  0  0  1  0            999 V2000
  -30.7328  -14.3649   20.6179 C   0  0  0  0  0  0
  -30.4198  -12.2580   19.3854 C   0  0  0  0  0  0
  -29.4840  -12.4976   18.1845 C   0  0  0  0  0  0
  -28.0031  -12.3797   18.5974 C   0  0  0  0  0  0
  -27.6637  -13.1948   19.8713 C   0  0  2  0  0  0
  -28.7017  -12.9143   20.9769 C   0  0  0  0  0  0
  -25.2619  -13.8139   20.5685 C   0  0  0  0  0  0
  -24.1817  -13.0411   20.9170 C   0  0  0  0  0  0
  -24.6352  -11.6904   20.8690 C   0  0  0  0  0  0
  -23.8996  -10.4299   21.0365 C   0  0  0  0  0  0
  -24.3571   -9.4249   21.9149 C   0  0  0  0  0  0
  -23.6287   -8.2269   22.0731 C   0  0  0  0  0  0
  -22.4273   -8.0286   21.3515 C   0  0  0  0  0  0
  -21.9875   -9.0257   20.4610 C   0  0  0  0  0  0
  -22.7177  -10.2150   20.3015 C   0  0  0  0  0  0
  -21.6877   -6.0732   22.5281 C   0  0  0  0  0  0
  -21.4011   -6.5634   23.8209 C   0  0  0  0  0  0
  -21.3648   -5.6789   24.9186 C   0  0  0  0  0  0
  -21.6051   -4.3052   24.7238 C   0  0  0  0  0  0
  -21.8811   -3.8145   23.4359 C   0  0  0  0  0  0
  -21.9186   -4.6954   22.3420 C   0  0  0  0  0  0
  -22.7855  -13.5251   21.1895 C   0  0  0  0  0  0
  -22.1670   -4.2141   21.0993 F   0  0  0  0  0  0
  -21.5635   -3.4532   25.7749 F   0  0  0  0  0  0
  -30.0419  -13.2113   20.4371 N   0  0  0  0  0  0
  -26.3013  -12.9274   20.3310 N   0  0  0  0  0  0
  -25.9257  -11.6437   20.5645 N   0  0  0  0  0  0
  -22.0458  -12.8268   22.0443 N   0  0  0  0  0  0
  -25.4436  -15.1851   20.4216 N   0  0  0  0  0  0
  -31.8358  -14.5945   20.1145 O   0  0  0  0  0  0
  -21.6653   -6.8879   21.4243 O   0  0  0  0  0  0
  -22.3574  -14.5572   20.6760 O   0  0  0  0  0  0
  -24.6144  -31.8719   23.2105 C   0  0  0  0  0  0
  -25.9049  -32.4854   23.8416 C   0  0  1  0  0  0
  -27.2268  -27.4262   20.0881 C   0  0  0  0  0  0
  -25.5922  -33.8652   24.2344 N   0  0  0  0  0  0
  -23.4007  -30.4940   21.5541 C   0  0  2  0  0  0
  -24.8406  -28.9612   20.1204 C   0  0  0  0  0  0
  -22.7432  -29.4663   22.5032 C   0  0  0  0  0  0
  -18.0267  -28.1337   22.8559 C   0  0  0  0  0  0
  -24.1473  -36.7318   23.2631 C   0  0  0  0  0  0
  -25.9295  -30.8323   21.3638 C   0  0  0  0  0  0
  -26.0032  -29.4672   20.7101 C   0  0  0  0  0  0
  -27.1964  -28.7075   20.6890 C   0  0  0  0  0  0
  -26.0304  -26.9288   19.5184 C   0  0  0  0  0  0
  -24.8500  -27.6917   19.5223 C   0  0  0  0  0  0
  -23.6063  -29.8311   20.1666 C   0  0  0  0  0  0
  -25.4101  -36.3124   24.0343 C   0  0  1  0  0  0
  -20.5873  -28.3664   23.1320 C   0  0  2  0  0  0
  -20.6763  -26.9432   22.5352 C   0  0  0  0  0  0
  -19.5666  -26.6437   21.5226 C   0  0  0  0  0  0
  -18.1920  -26.7848   22.1795 C   0  0  0  0  0  0
  -19.1534  -28.8826   23.2922 C   0  0  0  0  0  0
  -18.9472  -30.1441   23.8930 C   0  0  0  0  0  0
  -17.6472  -30.6584   24.0593 C   0  0  0  0  0  0
  -25.9047  -34.9501   23.5138 C   0  0  0  0  0  0
  -16.5361  -29.9078   23.6361 C   0  0  0  0  0  0
  -16.7275  -28.6500   23.0363 C   0  0  0  0  0  0
  -26.4459  -31.6605   25.0735 C   0  0  0  0  0  0
  -25.3720  -31.3745   26.1476 C   0  0  0  0  0  0
  -27.0254  -30.3030   24.6127 C   0  0  0  0  0  0
  -27.6037  -32.4313   25.7509 C   0  0  0  0  0  0
  -27.5586  -37.1810   24.8469 C   0  0  0  0  0  0
  -21.4165  -29.3053   22.3757 N   0  0  0  0  0  0
  -26.4286  -37.3802   23.9424 N   0  0  0  0  0  0
  -24.6664  -31.0803   22.1013 N   0  0  0  0  0  0
  -23.4225  -28.8222   23.3069 O   0  0  0  0  0  0
  -28.4253  -26.7328   20.0826 O   0  0  0  0  0  0
  -26.5608  -34.8944   22.4700 O   0  0  0  0  0  0
  -23.5354  -32.1482   23.7497 O   0  0  0  0  0  0
  -29.1240  -18.6102   20.9951 C   0  0  0  0  0  0
  -29.4333  -17.5838   21.8334 C   0  0  0  0  0  0
  -28.4941  -17.6062   22.9109 C   0  0  0  0  0  0
  -27.6652  -18.6915   22.7020 C   0  0  0  0  0  0
  -26.5474  -19.2492   23.5353 C   0  0  0  0  0  0
  -26.3739  -22.9305   17.9348 C   0  0  0  0  0  0
  -27.1455  -16.0575   24.4769 C   0  0  0  0  0  0
  -29.2902  -17.2017   25.2499 C   0  0  0  0  0  0
  -30.5696  -16.6173   21.6341 C   0  0  0  0  0  0
  -27.7563  -22.6585   18.5519 C   0  0  0  0  0  0
  -28.3548  -21.6878   20.8479 C   0  0  0  0  0  0
  -28.4141  -24.2715   20.5223 C   0  0  0  0  0  0
  -27.4516  -20.4286   20.8025 C   0  0  0  0  0  0
  -28.5166  -25.4288   19.4860 C   0  0  0  0  0  0
  -28.5202  -16.6110   24.0658 C   0  0  0  0  0  0
  -27.7732  -22.9136   20.0812 C   0  0  1  0  0  0
  -28.0416  -19.2901   21.5009 N   0  0  0  0  0  0
  -30.0825  -15.2844   21.3288 N   0  0  0  0  0  0
  -31.4613  -12.3604   19.0793 H   0  0  0  0  0  0
  -30.3284  -11.2327   19.7519 H   0  0  0  0  0  0
  -29.7048  -11.7869   17.3875 H   0  0  0  0  0  0
  -29.6779  -13.4873   17.7618 H   0  0  0  0  0  0
  -27.7836  -11.3247   18.7690 H   0  0  0  0  0  0
  -27.3646  -12.6929   17.7723 H   0  0  0  0  0  0
  -27.7231  -14.2494   19.6009 H   0  0  0  0  0  0
  -28.6615  -11.8597   21.2561 H   0  0  0  0  0  0
  -28.4605  -13.4660   21.8858 H   0  0  0  0  0  0
  -25.2684   -9.5791   22.4737 H   0  0  0  0  0  0
  -24.0015   -7.4668   22.7459 H   0  0  0  0  0  0
  -21.0785   -8.8743   19.8938 H   0  0  0  0  0  0
  -22.3574  -10.9695   19.6141 H   0  0  0  0  0  0
  -21.1999   -7.6137   23.9735 H   0  0  0  0  0  0
  -21.1474   -6.0502   25.9086 H   0  0  0  0  0  0
  -22.0589   -2.7603   23.2869 H   0  0  0  0  0  0
  -22.4001  -11.9917   22.4857 H   0  0  0  0  0  0
  -21.1064  -13.1319   22.2607 H   0  0  0  0  0  0
  -24.6963  -15.8537   20.5585 H   0  0  0  0  0  0
  -26.3272  -15.6287   20.1972 H   0  0  0  0  0  0
  -26.7132  -32.5532   23.1206 H   0  0  0  0  0  0
  -25.0052  -33.9808   25.0475 H   0  0  0  0  0  0
  -22.6880  -31.3109   21.4199 H   0  0  0  0  0  0
  -23.3749  -35.9636   23.3301 H   0  0  0  0  0  0
  -24.3534  -36.8929   22.2035 H   0  0  0  0  0  0
  -23.7219  -37.6531   23.6629 H   0  0  0  0  0  0
  -26.0446  -31.5966   20.5946 H   0  0  0  0  0  0
  -26.8178  -30.8848   21.9825 H   0  0  0  0  0  0
  -28.0995  -29.1010   21.1350 H   0  0  0  0  0  0
  -25.9589  -25.9532   19.0700 H   0  0  0  0  0  0
  -23.9514  -27.2928   19.0737 H   0  0  0  0  0  0
  -23.7356  -30.6108   19.4152 H   0  0  0  0  0  0
  -22.7248  -29.2661   19.8589 H   0  0  0  0  0  0
  -25.1268  -36.1995   25.0839 H   0  0  0  0  0  0
  -20.9955  -28.3164   24.1449 H   0  0  0  0  0  0
  -20.5761  -26.2290   23.3536 H   0  0  0  0  0  0
  -21.6623  -26.7507   22.1085 H   0  0  0  0  0  0
  -19.6865  -25.6384   21.1197 H   0  0  0  0  0  0
  -19.6478  -27.3331   20.6813 H   0  0  0  0  0  0
  -17.4078  -26.6419   21.4341 H   0  0  0  0  0  0
  -18.0528  -26.0021   22.9288 H   0  0  0  0  0  0
  -19.7962  -30.7257   24.2272 H   0  0  0  0  0  0
  -17.5034  -31.6257   24.5203 H   0  0  0  0  0  0
  -15.5362  -30.2992   23.7648 H   0  0  0  0  0  0
  -15.8683  -28.0829   22.7064 H   0  0  0  0  0  0
  -24.5896  -30.7087   25.7834 H   0  0  0  0  0  0
  -24.8900  -32.2902   26.4905 H   0  0  0  0  0  0
  -25.8041  -30.8940   27.0259 H   0  0  0  0  0  0
  -26.2796  -29.6865   24.1102 H   0  0  0  0  0  0
  -27.3911  -29.7211   25.4601 H   0  0  0  0  0  0
  -27.8686  -30.4344   23.9348 H   0  0  0  0  0  0
  -27.2683  -33.3631   26.2091 H   0  0  0  0  0  0
  -28.3846  -32.6854   25.0328 H   0  0  0  0  0  0
  -28.0714  -31.8438   26.5424 H   0  0  0  0  0  0
  -28.2612  -38.0100   24.7507 H   0  0  0  0  0  0
  -28.1064  -36.2626   24.6283 H   0  0  0  0  0  0
  -27.2297  -37.1477   25.8871 H   0  0  0  0  0  0
  -20.9342  -29.8800   21.6966 H   0  0  0  0  0  0
  -26.0187  -38.2886   24.1421 H   0  0  0  0  0  0
  -29.5762  -18.9370   20.0689 H   0  0  0  0  0  0
  -26.9273  -19.9615   24.2651 H   0  0  0  0  0  0
  -26.0082  -18.4769   24.0751 H   0  0  0  0  0  0
  -25.8015  -19.7657   22.9364 H   0  0  0  0  0  0
  -25.6027  -22.3469   18.4405 H   0  0  0  0  0  0
  -26.3519  -22.6509   16.8804 H   0  0  0  0  0  0
  -26.0794  -23.9771   18.0142 H   0  0  0  0  0  0
  -26.5101  -15.8739   23.6088 H   0  0  0  0  0  0
  -26.6235  -16.7229   25.1633 H   0  0  0  0  0  0
  -27.2537  -15.1083   25.0039 H   0  0  0  0  0  0
  -30.3154  -17.4401   24.9598 H   0  0  0  0  0  0
  -29.3380  -16.5046   26.0869 H   0  0  0  0  0  0
  -28.8205  -18.1225   25.5945 H   0  0  0  0  0  0
  -31.2125  -16.9887   20.8327 H   0  0  0  0  0  0
  -31.1738  -16.5832   22.5380 H   0  0  0  0  0  0
  -28.5263  -23.2322   18.0375 H   0  0  0  0  0  0
  -28.0136  -21.6239   18.3309 H   0  0  0  0  0  0
  -29.3421  -21.4333   20.4561 H   0  0  0  0  0  0
  -28.5085  -21.9439   21.8965 H   0  0  0  0  0  0
  -27.8448  -24.6267   21.3824 H   0  0  0  0  0  0
  -29.4184  -24.0917   20.9102 H   0  0  0  0  0  0
  -27.2983  -20.1082   19.7726 H   0  0  0  0  0  0
  -26.4559  -20.6466   21.1775 H   0  0  0  0  0  0
  -27.8436  -25.3233   18.6433 H   0  0  0  0  0  0
  -29.5032  -25.3670   19.0216 H   0  0  0  0  0  0
  -29.0845  -15.7419   23.7261 H   0  0  0  0  0  0
  -26.7346  -22.9827   20.4110 H   0  0  0  0  0  0
  -29.1415  -15.0565   21.6090 H   0  0  0  0  0  0
  1 25  1  0  0  0
  1 30  2  0  0  0
  1 88  1  0  0  0
  2  3  1  0  0  0
  2 25  1  0  0  0
  2 89  1  0  0  0
  2 90  1  0  0  0
  3  4  1  0  0  0
  3 91  1  0  0  0
  3 92  1  0  0  0
  4  5  1  0  0  0
  4 93  1  0  0  0
  4 94  1  0  0  0
  5  6  1  0  0  0
  5 26  1  0  0  0
  5 95  1  0  0  0
  6 25  1  0  0  0
  6 96  1  0  0  0
  6 97  1  0  0  0
  7  8  2  0  0  0
  7 26  1  0  0  0
  7 29  1  0  0  0
  8  9  1  0  0  0
  8 22  1  0  0  0
  9 10  1  0  0  0
  9 27  2  0  0  0
 10 11  2  0  0  0
 10 15  1  0  0  0
 11 12  1  0  0  0
 11 98  1  0  0  0
 12 13  2  0  0  0
 12 99  1  0  0  0
 13 14  1  0  0  0
 13 31  1  0  0  0
 14 15  2  0  0  0
 14100  1  0  0  0
 15101  1  0  0  0
 16 17  2  0  0  0
 16 21  1  0  0  0
 16 31  1  0  0  0
 17 18  1  0  0  0
 17102  1  0  0  0
 18 19  2  0  0  0
 18103  1  0  0  0
 19 20  1  0  0  0
 19 24  1  0  0  0
 20 21  2  0  0  0
 20104  1  0  0  0
 21 23  1  0  0  0
 22 28  1  0  0  0
 22 32  2  0  0  0
 26 27  1  0  0  0
 28105  1  0  0  0
 28106  1  0  0  0
 29107  1  0  0  0
 29108  1  0  0  0
 33 34  1  0  0  0
 33 66  1  0  0  0
 33 70  2  0  0  0
 34 36  1  0  0  0
 34 59  1  0  0  0
 34109  1  0  0  0
 35 44  2  0  0  0
 35 45  1  0  0  0
 35 68  1  0  0  0
 36 56  1  0  0  0
 36110  1  0  0  0
 37 39  1  0  0  0
 37 47  1  0  0  0
 37 66  1  0  0  0
 37111  1  0  0  0
 38 43  2  0  0  0
 38 46  1  0  0  0
 38 47  1  0  0  0
 39 64  1  0  0  0
 39 67  2  0  0  0
 40 52  1  0  0  0
 40 53  2  0  0  0
 40 58  1  0  0  0
 41112  1  0  0  0
 41113  1  0  0  0
 41114  1  0  0  0
 41 48  1  0  0  0
 42 43  1  0  0  0
 42 66  1  0  0  0
 42115  1  0  0  0
 42116  1  0  0  0
 43 44  1  0  0  0
 44117  1  0  0  0
 45 46  2  0  0  0
 45118  1  0  0  0
 46119  1  0  0  0
 47120  1  0  0  0
 47121  1  0  0  0
 48 56  1  0  0  0
 48 65  1  0  0  0
 48122  1  0  0  0
 49 50  1  0  0  0
 49 53  1  0  0  0
 49 64  1  0  0  0
 49123  1  0  0  0
 50 51  1  0  0  0
 50124  1  0  0  0
 50125  1  0  0  0
 51 52  1  0  0  0
 51126  1  0  0  0
 51127  1  0  0  0
 52128  1  0  0  0
 52129  1  0  0  0
 53 54  1  0  0  0
 54 55  2  0  0  0
 54130  1  0  0  0
 55 57  1  0  0  0
 55131  1  0  0  0
 56 69  2  0  0  0
 57 58  2  0  0  0
 57132  1  0  0  0
 58133  1  0  0  0
 59 60  1  0  0  0
 59 61  1  0  0  0
 59 62  1  0  0  0
 60134  1  0  0  0
 60135  1  0  0  0
 60136  1  0  0  0
 61137  1  0  0  0
 61138  1  0  0  0
 61139  1  0  0  0
 62140  1  0  0  0
 62141  1  0  0  0
 62142  1  0  0  0
 63 65  1  0  0  0
 63143  1  0  0  0
 63144  1  0  0  0
 63145  1  0  0  0
 64146  1  0  0  0
 65147  1  0  0  0
 68 84  1  0  0  0
 71 72  2  0  0  0
 71 87  1  0  0  0
 71148  1  0  0  0
 72 73  1  0  0  0
 72 79  1  0  0  0
 73 74  2  0  0  0
 73 85  1  0  0  0
 74 75  1  0  0  0
 74 87  1  0  0  0
 75149  1  0  0  0
 75150  1  0  0  0
 75151  1  0  0  0
 76 80  1  0  0  0
 76152  1  0  0  0
 76153  1  0  0  0
 76154  1  0  0  0
 77155  1  0  0  0
 77156  1  0  0  0
 77157  1  0  0  0
 77 85  1  0  0  0
 78 85  1  0  0  0
 78158  1  0  0  0
 78159  1  0  0  0
 78160  1  0  0  0
 79 88  1  0  0  0
 79161  1  0  0  0
 79162  1  0  0  0
 80163  1  0  0  0
 80164  1  0  0  0
 80 86  1  0  0  0
 81 83  1  0  0  0
 81 86  1  0  0  0
 81165  1  0  0  0
 81166  1  0  0  0
 82 84  1  0  0  0
 82 86  1  0  0  0
 82167  1  0  0  0
 82168  1  0  0  0
 83 87  1  0  0  0
 83169  1  0  0  0
 83170  1  0  0  0
 84171  1  0  0  0
 84172  1  0  0  0
 85173  1  0  0  0
 86174  1  0  0  0
 88175  1  0  0  0
M  ISO  4   1 100  68 101  84 101  88 100
M  END
> <chiral flag>
0

> <version>
0

> <s_m_source_file>
/data/baiqing/PycharmProjects/Reinvent-master-3.2/result/LINK_invent/BTK/process_docking_weight1_custom_sum_contain_oxygen_bond_distance_aromatic_linkinvent_7_9_3/rearranged_h_0104.sdf

> <i_m_source_file_index>
92

> <r_mmod_Potential_Energy-OPLS-2005>
-99.17529296875

> <r_mmod_Stretch_Energy-OPLS-2005>
37.5378150939941

> <r_mmod_Bend_Energy-OPLS-2005>
120.754707336426

> <r_mmod_Torsional_Energy-OPLS-2005>
242.585083007812

> <r_mmod_Improper_Torsional_Energy-OPLS-2005>
2.26142072677612

> <r_mmod_Van_der_Waal_Energy-OPLS-2005>
133.61376953125

> <r_mmod_Electrostatic_Energy-OPLS-2005>
-456.566223144531

> <r_mmod_Solvation_Energy-OPLS-2005>
-189.980010986328

> <b_mmod_Minimization_Converged-OPLS-2005>
0

> <r_mmod_RMS_Derivative-OPLS-2005>
5.84786128997803

$$$$
93
                    3D
 Structure written by MMmdl.
167175  0  0  1  0            999 V2000
  -30.6360  -14.7012   20.4412 C   0  0  0  0  0  0
  -30.4343  -12.4265   19.4652 C   0  0  0  0  0  0
  -29.5095  -12.4995   18.2303 C   0  0  0  0  0  0
  -28.0336  -12.3371   18.6432 C   0  0  0  0  0  0
  -27.6459  -13.2305   19.8515 C   0  0  2  0  0  0
  -28.6935  -13.1513   20.9853 C   0  0  0  0  0  0
  -25.2513  -13.8193   20.5707 C   0  0  0  0  0  0
  -24.1795  -13.0431   20.9221 C   0  0  0  0  0  0
  -24.6372  -11.6920   20.8739 C   0  0  0  0  0  0
  -23.9045  -10.4289   21.0386 C   0  0  0  0  0  0
  -24.3596   -9.4219   21.9168 C   0  0  0  0  0  0
  -23.6284   -8.2244   22.0731 C   0  0  0  0  0  0
  -22.4270   -8.0271   21.3522 C   0  0  0  0  0  0
  -21.9897   -9.0236   20.4626 C   0  0  0  0  0  0
  -22.7213  -10.2129   20.3046 C   0  0  0  0  0  0
  -21.6854   -6.0718   22.5265 C   0  0  0  0  0  0
  -21.4010   -6.5620   23.8196 C   0  0  0  0  0  0
  -21.3673   -5.6781   24.9161 C   0  0  0  0  0  0
  -21.6056   -4.3041   24.7225 C   0  0  0  0  0  0
  -21.8815   -3.8128   23.4345 C   0  0  0  0  0  0
  -21.9186   -4.6938   22.3396 C   0  0  0  0  0  0
  -22.7811  -13.5227   21.1885 C   0  0  0  0  0  0
  -22.1660   -4.2123   21.0977 F   0  0  0  0  0  0
  -21.5648   -3.4534   25.7741 F   0  0  0  0  0  0
  -30.0030  -13.4818   20.4074 N   0  0  0  0  0  0
  -26.2950  -12.9404   20.3282 N   0  0  0  0  0  0
  -25.9311  -11.6547   20.5735 N   0  0  0  0  0  0
  -22.0458  -12.8192   22.0440 N   0  0  0  0  0  0
  -25.4180  -15.1921   20.4137 N   0  0  0  0  0  0
  -31.8173  -14.7960   20.1013 O   0  0  0  0  0  0
  -21.6637   -6.8869   21.4229 O   0  0  0  0  0  0
  -22.3479  -14.5508   20.6716 O   0  0  0  0  0  0
  -24.6304  -31.8601   23.2004 C   0  0  0  0  0  0
  -25.9149  -32.4772   23.8323 C   0  0  1  0  0  0
  -27.2074  -27.2741   20.1109 C   0  0  0  0  0  0
  -25.5967  -33.8570   24.2265 N   0  0  0  0  0  0
  -23.4227  -30.4879   21.5433 C   0  0  2  0  0  0
  -24.8686  -28.9449   20.1034 C   0  0  0  0  0  0
  -22.7493  -29.4639   22.4897 C   0  0  0  0  0  0
  -18.0294  -28.1387   22.8475 C   0  0  0  0  0  0
  -24.1504  -36.7273   23.2634 C   0  0  0  0  0  0
  -25.9704  -30.7718   21.3860 C   0  0  0  0  0  0
  -26.0391  -29.3988   20.7232 C   0  0  0  0  0  0
  -27.2087  -28.5729   20.7259 C   0  0  0  0  0  0
  -26.0237  -26.9155   19.4247 C   0  0  0  0  0  0
  -24.8663  -27.7108   19.4440 C   0  0  0  0  0  0
  -23.6392  -29.8297   20.1567 C   0  0  0  0  0  0
  -25.4131  -36.3073   24.0322 C   0  0  1  0  0  0
  -20.5897  -28.3707   23.1259 C   0  0  2  0  0  0
  -20.6779  -26.9427   22.5401 C   0  0  0  0  0  0
  -19.5756  -26.6385   21.5206 C   0  0  0  0  0  0
  -18.1938  -26.7925   22.1616 C   0  0  0  0  0  0
  -19.1548  -28.8862   23.2858 C   0  0  0  0  0  0
  -18.9471  -30.1450   23.8901 C   0  0  0  0  0  0
  -17.6477  -30.6593   24.0565 C   0  0  0  0  0  0
  -25.9067  -34.9447   23.5084 C   0  0  0  0  0  0
  -16.5363  -29.9097   23.6329 C   0  0  0  0  0  0
  -16.7278  -28.6500   23.0362 C   0  0  0  0  0  0
  -26.4525  -31.6578   25.0706 C   0  0  0  0  0  0
  -25.3708  -31.3759   26.1399 C   0  0  0  0  0  0
  -27.0382  -30.2978   24.6213 C   0  0  0  0  0  0
  -27.6081  -32.4317   25.7493 C   0  0  0  0  0  0
  -27.5588  -37.1804   24.8465 C   0  0  0  0  0  0
  -21.4200  -29.3063   22.3647 N   0  0  0  0  0  0
  -26.4313  -37.3766   23.9393 N   0  0  0  0  0  0
  -24.6924  -31.0583   22.0979 N   0  0  0  0  0  0
  -23.4203  -28.8162   23.2981 O   0  0  0  0  0  0
  -28.2903  -26.3652   20.1978 O   0  0  0  0  0  0
  -26.5630  -34.8935   22.4650 O   0  0  0  0  0  0
  -23.5462  -32.1425   23.7317 O   0  0  0  0  0  0
  -29.7763  -18.5819   22.1218 C   0  0  0  0  0  0
  -29.2627  -20.9651   22.0325 C   0  0  0  0  0  0
  -29.5317  -19.8016   22.7871 C   0  0  0  0  0  0
  -29.7330  -18.5341   20.7230 C   0  0  0  0  0  0
  -29.2223  -20.9090   20.6250 C   0  0  0  0  0  0
  -31.0870  -20.0492   24.7302 C   0  0  0  0  0  0
  -28.9617  -18.6982   25.0200 C   0  0  0  0  0  0
  -29.7636  -22.2603   18.5398 C   0  0  0  0  0  0
  -27.3855  -21.9425   19.2552 C   0  0  0  0  0  0
  -30.1443  -17.2019   19.9877 C   0  0  0  0  0  0
  -28.8428  -23.6673   20.4696 C   0  0  0  0  0  0
  -28.1233  -24.9341   19.7626 C   0  0  0  0  0  0
  -29.6229  -19.8890   24.3050 C   0  0  0  0  0  0
  -28.8179  -22.1947   19.7589 C   0  0  0  0  0  0
  -29.4419  -19.6821   20.0050 N   0  0  0  0  0  0
  -29.8632  -15.8301   20.5813 N   0  0  0  0  0  0
  -31.4755  -12.5362   19.1597 H   0  0  0  0  0  0
  -30.3688  -11.4460   19.9401 H   0  0  0  0  0  0
  -29.7817  -11.7254   17.5113 H   0  0  0  0  0  0
  -29.6470  -13.4535   17.7197 H   0  0  0  0  0  0
  -27.8788  -11.2890   18.8974 H   0  0  0  0  0  0
  -27.3787  -12.5420   17.7962 H   0  0  0  0  0  0
  -27.6443  -14.2542   19.4769 H   0  0  0  0  0  0
  -28.7138  -12.1555   21.4270 H   0  0  0  0  0  0
  -28.4398  -13.8390   21.7919 H   0  0  0  0  0  0
  -25.2759   -9.5684   22.4719 H   0  0  0  0  0  0
  -24.0002   -7.4626   22.7430 H   0  0  0  0  0  0
  -21.0839   -8.8743   19.8918 H   0  0  0  0  0  0
  -22.3677  -10.9648   19.6137 H   0  0  0  0  0  0
  -21.1990   -7.6126   23.9693 H   0  0  0  0  0  0
  -21.1516   -6.0511   25.9066 H   0  0  0  0  0  0
  -22.0580   -2.7588   23.2851 H   0  0  0  0  0  0
  -22.4115  -11.9921   22.4908 H   0  0  0  0  0  0
  -21.1026  -13.1130   22.2562 H   0  0  0  0  0  0
  -24.6497  -15.8429   20.5386 H   0  0  0  0  0  0
  -26.2567  -15.6351   20.0608 H   0  0  0  0  0  0
  -26.7202  -32.5439   23.1048 H   0  0  0  0  0  0
  -25.0158  -33.9694   25.0441 H   0  0  0  0  0  0
  -22.7168  -31.3103   21.4030 H   0  0  0  0  0  0
  -23.3783  -35.9592   23.3307 H   0  0  0  0  0  0
  -24.3593  -36.8883   22.2049 H   0  0  0  0  0  0
  -23.7262  -37.6477   23.6648 H   0  0  0  0  0  0
  -26.1229  -31.5386   20.6243 H   0  0  0  0  0  0
  -26.8423  -30.8073   22.0260 H   0  0  0  0  0  0
  -28.0967  -28.9145   21.2369 H   0  0  0  0  0  0
  -25.9470  -26.0059   18.8514 H   0  0  0  0  0  0
  -23.9802  -27.3717   18.9265 H   0  0  0  0  0  0
  -23.7625  -30.6106   19.4056 H   0  0  0  0  0  0
  -22.7569  -29.2640   19.8502 H   0  0  0  0  0  0
  -25.1325  -36.1915   25.0816 H   0  0  0  0  0  0
  -20.9977  -28.3301   24.1382 H   0  0  0  0  0  0
  -20.5675  -26.2333   23.3611 H   0  0  0  0  0  0
  -21.6654  -26.7451   22.1209 H   0  0  0  0  0  0
  -19.6925  -25.6291   21.1250 H   0  0  0  0  0  0
  -19.6701  -27.3187   20.6728 H   0  0  0  0  0  0
  -17.4207  -26.6671   21.4016 H   0  0  0  0  0  0
  -18.0338  -26.0067   22.9012 H   0  0  0  0  0  0
  -19.7951  -30.7247   24.2286 H   0  0  0  0  0  0
  -17.5043  -31.6274   24.5167 H   0  0  0  0  0  0
  -15.5364  -30.3016   23.7639 H   0  0  0  0  0  0
  -15.8667  -28.0817   22.7100 H   0  0  0  0  0  0
  -24.5900  -30.7098   25.7704 H   0  0  0  0  0  0
  -24.8896  -32.2955   26.4735 H   0  0  0  0  0  0
  -25.7994  -30.8985   27.0213 H   0  0  0  0  0  0
  -26.2977  -29.6707   24.1232 H   0  0  0  0  0  0
  -27.4043  -29.7266   25.4755 H   0  0  0  0  0  0
  -27.8868  -30.4241   23.9485 H   0  0  0  0  0  0
  -27.2681  -33.3621   26.2050 H   0  0  0  0  0  0
  -28.3914  -32.6857   25.0335 H   0  0  0  0  0  0
  -28.0705  -31.8436   26.5426 H   0  0  0  0  0  0
  -28.2615  -38.0093   24.7511 H   0  0  0  0  0  0
  -28.1082  -36.2629   24.6305 H   0  0  0  0  0  0
  -27.2294  -37.1462   25.8863 H   0  0  0  0  0  0
  -20.9366  -29.8824   21.6897 H   0  0  0  0  0  0
  -26.0193  -38.2842   24.1378 H   0  0  0  0  0  0
  -30.0408  -17.6887   22.6693 H   0  0  0  0  0  0
  -29.0913  -21.8959   22.5519 H   0  0  0  0  0  0
  -31.5340  -20.9262   24.2631 H   0  0  0  0  0  0
  -31.6746  -19.1783   24.4385 H   0  0  0  0  0  0
  -31.1772  -20.1740   25.8084 H   0  0  0  0  0  0
  -27.9142  -18.5902   24.7348 H   0  0  0  0  0  0
  -28.9909  -18.8359   26.1004 H   0  0  0  0  0  0
  -29.4664  -17.7559   24.8043 H   0  0  0  0  0  0
  -30.8043  -22.3751   18.8440 H   0  0  0  0  0  0
  -29.5179  -23.0859   17.8731 H   0  0  0  0  0  0
  -29.7041  -21.3478   17.9458 H   0  0  0  0  0  0
  -27.3056  -20.9844   18.7394 H   0  0  0  0  0  0
  -27.0628  -22.7097   18.5513 H   0  0  0  0  0  0
  -26.6821  -21.9193   20.0872 H   0  0  0  0  0  0
  -31.2179  -17.2893   19.8184 H   0  0  0  0  0  0
  -29.6942  -17.2208   18.9944 H   0  0  0  0  0  0
  -28.3477  -23.5783   21.4364 H   0  0  0  0  0  0
  -29.8775  -23.9187   20.7016 H   0  0  0  0  0  0
  -27.0762  -24.6587   19.8528 H   0  0  0  0  0  0
  -28.3493  -24.9258   18.6957 H   0  0  0  0  0  0
  -29.0840  -20.7833   24.6228 H   0  0  0  0  0  0
  -28.9128  -15.6794   20.8792 H   0  0  0  0  0  0
  1 25  1  0  0  0
  1 30  2  0  0  0
  1 86  1  0  0  0
  2  3  1  0  0  0
  2 25  1  0  0  0
  2 87  1  0  0  0
  2 88  1  0  0  0
  3  4  1  0  0  0
  3 89  1  0  0  0
  3 90  1  0  0  0
  4  5  1  0  0  0
  4 91  1  0  0  0
  4 92  1  0  0  0
  5  6  1  0  0  0
  5 26  1  0  0  0
  5 93  1  0  0  0
  6 25  1  0  0  0
  6 94  1  0  0  0
  6 95  1  0  0  0
  7  8  2  0  0  0
  7 26  1  0  0  0
  7 29  1  0  0  0
  8  9  1  0  0  0
  8 22  1  0  0  0
  9 10  1  0  0  0
  9 27  2  0  0  0
 10 11  2  0  0  0
 10 15  1  0  0  0
 11 12  1  0  0  0
 11 96  1  0  0  0
 12 13  2  0  0  0
 12 97  1  0  0  0
 13 14  1  0  0  0
 13 31  1  0  0  0
 14 15  2  0  0  0
 14 98  1  0  0  0
 15 99  1  0  0  0
 16 17  2  0  0  0
 16 21  1  0  0  0
 16 31  1  0  0  0
 17 18  1  0  0  0
 17100  1  0  0  0
 18 19  2  0  0  0
 18101  1  0  0  0
 19 20  1  0  0  0
 19 24  1  0  0  0
 20 21  2  0  0  0
 20102  1  0  0  0
 21 23  1  0  0  0
 22 28  1  0  0  0
 22 32  2  0  0  0
 26 27  1  0  0  0
 28103  1  0  0  0
 28104  1  0  0  0
 29105  1  0  0  0
 29106  1  0  0  0
 33 34  1  0  0  0
 33 66  1  0  0  0
 33 70  2  0  0  0
 34 36  1  0  0  0
 34 59  1  0  0  0
 34107  1  0  0  0
 35 44  2  0  0  0
 35 45  1  0  0  0
 35 68  1  0  0  0
 36 56  1  0  0  0
 36108  1  0  0  0
 37 39  1  0  0  0
 37 47  1  0  0  0
 37 66  1  0  0  0
 37109  1  0  0  0
 38 43  2  0  0  0
 38 46  1  0  0  0
 38 47  1  0  0  0
 39 64  1  0  0  0
 39 67  2  0  0  0
 40 52  1  0  0  0
 40 53  2  0  0  0
 40 58  1  0  0  0
 41110  1  0  0  0
 41111  1  0  0  0
 41112  1  0  0  0
 41 48  1  0  0  0
 42 43  1  0  0  0
 42 66  1  0  0  0
 42113  1  0  0  0
 42114  1  0  0  0
 43 44  1  0  0  0
 44115  1  0  0  0
 45 46  2  0  0  0
 45116  1  0  0  0
 46117  1  0  0  0
 47118  1  0  0  0
 47119  1  0  0  0
 48 56  1  0  0  0
 48 65  1  0  0  0
 48120  1  0  0  0
 49 50  1  0  0  0
 49 53  1  0  0  0
 49 64  1  0  0  0
 49121  1  0  0  0
 50 51  1  0  0  0
 50122  1  0  0  0
 50123  1  0  0  0
 51 52  1  0  0  0
 51124  1  0  0  0
 51125  1  0  0  0
 52126  1  0  0  0
 52127  1  0  0  0
 53 54  1  0  0  0
 54 55  2  0  0  0
 54128  1  0  0  0
 55 57  1  0  0  0
 55129  1  0  0  0
 56 69  2  0  0  0
 57 58  2  0  0  0
 57130  1  0  0  0
 58131  1  0  0  0
 59 60  1  0  0  0
 59 61  1  0  0  0
 59 62  1  0  0  0
 60132  1  0  0  0
 60133  1  0  0  0
 60134  1  0  0  0
 61135  1  0  0  0
 61136  1  0  0  0
 61137  1  0  0  0
 62138  1  0  0  0
 62139  1  0  0  0
 62140  1  0  0  0
 63 65  1  0  0  0
 63141  1  0  0  0
 63142  1  0  0  0
 63143  1  0  0  0
 64144  1  0  0  0
 65145  1  0  0  0
 68 82  1  0  0  0
 71 73  2  0  0  0
 71 74  1  0  0  0
 71146  1  0  0  0
 72 73  1  0  0  0
 72 75  2  0  0  0
 72147  1  0  0  0
 73 83  1  0  0  0
 74 80  1  0  0  0
 74 85  2  0  0  0
 75 84  1  0  0  0
 75 85  1  0  0  0
 76148  1  0  0  0
 76149  1  0  0  0
 76150  1  0  0  0
 76 83  1  0  0  0
 77 83  1  0  0  0
 77151  1  0  0  0
 77152  1  0  0  0
 77153  1  0  0  0
 78154  1  0  0  0
 78155  1  0  0  0
 78156  1  0  0  0
 78 84  1  0  0  0
 79 84  1  0  0  0
 79157  1  0  0  0
 79158  1  0  0  0
 79159  1  0  0  0
 80 86  1  0  0  0
 80160  1  0  0  0
 80161  1  0  0  0
 81 82  1  0  0  0
 81 84  1  0  0  0
 81162  1  0  0  0
 81163  1  0  0  0
 82164  1  0  0  0
 82165  1  0  0  0
 83166  1  0  0  0
 86167  1  0  0  0
M  ISO  4   1 100  68 101  82 101  86 100
M  END
> <chiral flag>
0

> <version>
0

> <s_m_source_file>
/data/baiqing/PycharmProjects/Reinvent-master-3.2/result/LINK_invent/BTK/process_docking_weight1_custom_sum_contain_oxygen_bond_distance_aromatic_linkinvent_7_9_3/rearranged_h_0104.sdf

> <i_m_source_file_index>
93

> <r_mmod_Potential_Energy-OPLS-2005>
-188.318771362305

> <r_mmod_Stretch_Energy-OPLS-2005>
115.10147857666

> <r_mmod_Bend_Energy-OPLS-2005>
164.606018066406

> <r_mmod_Torsional_Energy-OPLS-2005>
206.807510375977

> <r_mmod_Improper_Torsional_Energy-OPLS-2005>
8.23485279083252

> <r_mmod_Van_der_Waal_Energy-OPLS-2005>
152.266632080078

> <r_mmod_Electrostatic_Energy-OPLS-2005>
-703.263061523438

> <r_mmod_Solvation_Energy-OPLS-2005>
-208.566390991211

> <b_mmod_Minimization_Converged-OPLS-2005>
0

> <r_mmod_RMS_Derivative-OPLS-2005>
3.22232985496521

$$$$
94
                    3D
 Structure written by MMmdl.
177185  0  0  1  0            999 V2000
  -30.7758  -14.4075   20.6700 C   0  0  0  0  0  0
  -30.4144  -12.3141   19.4024 C   0  0  0  0  0  0
  -29.4776  -12.5199   18.1975 C   0  0  0  0  0  0
  -28.0082  -12.3622   18.6212 C   0  0  0  0  0  0
  -27.6628  -13.2022   19.8771 C   0  0  2  0  0  0
  -28.7074  -12.9721   20.9966 C   0  0  0  0  0  0
  -25.2594  -13.8181   20.5732 C   0  0  0  0  0  0
  -24.1833  -13.0461   20.9197 C   0  0  0  0  0  0
  -24.6376  -11.6916   20.8736 C   0  0  0  0  0  0
  -23.9054  -10.4309   21.0402 C   0  0  0  0  0  0
  -24.3606   -9.4216   21.9183 C   0  0  0  0  0  0
  -23.6291   -8.2245   22.0748 C   0  0  0  0  0  0
  -22.4261   -8.0291   21.3542 C   0  0  0  0  0  0
  -21.9918   -9.0254   20.4623 C   0  0  0  0  0  0
  -22.7244  -10.2142   20.3032 C   0  0  0  0  0  0
  -21.6846   -6.0749   22.5282 C   0  0  0  0  0  0
  -21.3989   -6.5641   23.8214 C   0  0  0  0  0  0
  -21.3662   -5.6795   24.9176 C   0  0  0  0  0  0
  -21.6054   -4.3059   24.7216 C   0  0  0  0  0  0
  -21.8829   -3.8154   23.4331 C   0  0  0  0  0  0
  -21.9190   -4.6979   22.3396 C   0  0  0  0  0  0
  -22.7860  -13.5239   21.1837 C   0  0  0  0  0  0
  -22.1662   -4.2183   21.0970 F   0  0  0  0  0  0
  -21.5643   -3.4532   25.7717 F   0  0  0  0  0  0
  -30.0436  -13.2765   20.4544 N   0  0  0  0  0  0
  -26.3023  -12.9342   20.3400 N   0  0  0  0  0  0
  -25.9296  -11.6499   20.5773 N   0  0  0  0  0  0
  -22.0495  -12.8223   22.0374 N   0  0  0  0  0  0
  -25.4302  -15.1921   20.4188 N   0  0  0  0  0  0
  -31.8153  -14.6457   20.0467 O   0  0  0  0  0  0
  -21.6622   -6.8889   21.4243 O   0  0  0  0  0  0
  -22.3561  -14.5557   20.6692 O   0  0  0  0  0  0
  -24.6191  -31.8695   23.2219 C   0  0  0  0  0  0
  -25.9116  -32.4806   23.8476 C   0  0  1  0  0  0
  -27.2149  -27.4342   20.0645 C   0  0  0  0  0  0
  -25.5997  -33.8598   24.2414 N   0  0  0  0  0  0
  -23.4013  -30.5060   21.5636 C   0  0  2  0  0  0
  -24.8372  -28.9892   20.1169 C   0  0  0  0  0  0
  -22.7401  -29.4687   22.5021 C   0  0  0  0  0  0
  -18.0270  -28.1358   22.8445 C   0  0  0  0  0  0
  -24.1483  -36.7306   23.2639 C   0  0  0  0  0  0
  -25.9343  -30.8363   21.3795 C   0  0  0  0  0  0
  -26.0079  -29.4752   20.7157 C   0  0  0  0  0  0
  -27.1976  -28.7043   20.6941 C   0  0  0  0  0  0
  -26.0107  -26.9864   19.4525 C   0  0  0  0  0  0
  -24.8338  -27.7414   19.4879 C   0  0  0  0  0  0
  -23.6030  -29.8571   20.1732 C   0  0  0  0  0  0
  -25.4091  -36.3065   24.0335 C   0  0  1  0  0  0
  -20.5852  -28.3648   23.1297 C   0  0  2  0  0  0
  -20.6774  -26.9405   22.5391 C   0  0  0  0  0  0
  -19.5759  -26.6378   21.5183 C   0  0  0  0  0  0
  -18.1925  -26.7911   22.1572 C   0  0  0  0  0  0
  -19.1520  -28.8827   23.2851 C   0  0  0  0  0  0
  -18.9439  -30.1442   23.8843 C   0  0  0  0  0  0
  -17.6437  -30.6553   24.0553 C   0  0  0  0  0  0
  -25.9025  -34.9433   23.5137 C   0  0  0  0  0  0
  -16.5323  -29.9033   23.6367 C   0  0  0  0  0  0
  -16.7258  -28.6469   23.0332 C   0  0  0  0  0  0
  -26.4549  -31.6543   25.0776 C   0  0  0  0  0  0
  -25.3802  -31.3525   26.1492 C   0  0  0  0  0  0
  -27.0521  -30.3030   24.6166 C   0  0  0  0  0  0
  -27.6107  -32.4270   25.7552 C   0  0  0  0  0  0
  -27.5559  -37.1796   24.8469 C   0  0  0  0  0  0
  -21.4139  -29.3046   22.3751 N   0  0  0  0  0  0
  -26.4268  -37.3758   23.9401 N   0  0  0  0  0  0
  -24.6702  -31.0826   22.1122 N   0  0  0  0  0  0
  -23.4163  -28.8203   23.3062 O   0  0  0  0  0  0
  -28.3711  -26.6594   20.0639 O   0  0  0  0  0  0
  -26.5506  -34.8874   22.4657 O   0  0  0  0  0  0
  -23.5388  -32.1457   23.7621 O   0  0  0  0  0  0
  -32.2250  -21.4073   19.0290 C   0  0  0  0  0  0
  -31.7000  -20.9569   20.3900 C   0  0  0  0  0  0
  -31.0312  -22.0988   18.3675 C   0  0  0  0  0  0
  -30.2088  -20.6704   20.1497 C   0  0  2  0  0  0
  -28.4727  -19.0346   19.1036 C   0  0  0  0  0  0
  -27.8707  -22.7830   18.1555 C   0  0  0  0  0  0
  -27.8284  -22.3319   20.6036 C   0  0  0  0  0  0
  -31.4701  -15.4100   22.7687 C   0  0  0  0  0  0
  -29.6573  -17.6016   21.6129 C   0  0  0  0  0  0
  -30.4285  -17.9915   20.3289 C   0  0  0  0  0  0
  -29.2811  -24.2372   19.7412 C   0  0  0  0  0  0
  -29.3069  -16.0911   21.7619 C   0  0  0  0  0  0
  -28.1685  -25.3067   19.6128 C   0  0  0  0  0  0
  -29.9405  -19.2443   19.5355 C   0  0  2  0  0  0
  -28.7535  -22.7671   19.4288 C   0  0  0  0  0  0
  -30.4496  -15.1565   21.7480 N   0  0  0  0  0  0
  -29.8186  -21.7177   19.1474 N   0  3  1  0  0  0
  -31.4544  -12.4169   19.0873 H   0  0  0  0  0  0
  -30.3259  -11.2959   19.7874 H   0  0  0  0  0  0
  -29.7159  -11.8048   17.4086 H   0  0  0  0  0  0
  -29.6345  -13.5133   17.7734 H   0  0  0  0  0  0
  -27.8353  -11.3039   18.8239 H   0  0  0  0  0  0
  -27.3455  -12.6248   17.7974 H   0  0  0  0  0  0
  -27.7089  -14.2487   19.5759 H   0  0  0  0  0  0
  -28.6811  -11.9316   21.3268 H   0  0  0  0  0  0
  -28.4626  -13.5577   21.8816 H   0  0  0  0  0  0
  -25.2756   -9.5717   22.4745 H   0  0  0  0  0  0
  -24.0022   -7.4648   22.7464 H   0  0  0  0  0  0
  -21.0862   -8.8748   19.8916 H   0  0  0  0  0  0
  -22.3703  -10.9654   19.6110 H   0  0  0  0  0  0
  -21.1947   -7.6143   23.9725 H   0  0  0  0  0  0
  -21.1482   -6.0514   25.9091 H   0  0  0  0  0  0
  -22.0604   -2.7617   23.2807 H   0  0  0  0  0  0
  -22.4117  -11.9872   22.4744 H   0  0  0  0  0  0
  -21.1078  -13.1188   22.2506 H   0  0  0  0  0  0
  -24.6698  -15.8472   20.5599 H   0  0  0  0  0  0
  -26.2933  -15.6417   20.1445 H   0  0  0  0  0  0
  -26.7194  -32.5525   23.1242 H   0  0  0  0  0  0
  -25.0306  -33.9761   25.0671 H   0  0  0  0  0  0
  -22.6881  -31.3232   21.4400 H   0  0  0  0  0  0
  -23.3726  -35.9672   23.3291 H   0  0  0  0  0  0
  -24.3570  -36.8946   22.2061 H   0  0  0  0  0  0
  -23.7279  -37.6515   23.6674 H   0  0  0  0  0  0
  -26.0472  -31.6075   20.6158 H   0  0  0  0  0  0
  -26.8200  -30.8786   21.9984 H   0  0  0  0  0  0
  -28.0949  -29.0706   21.1727 H   0  0  0  0  0  0
  -25.9227  -26.0487   18.9252 H   0  0  0  0  0  0
  -23.9383  -27.3599   19.0200 H   0  0  0  0  0  0
  -23.7137  -30.6384   19.4215 H   0  0  0  0  0  0
  -22.7189  -29.2874   19.8813 H   0  0  0  0  0  0
  -25.1287  -36.1891   25.0831 H   0  0  0  0  0  0
  -20.9903  -28.3226   24.1435 H   0  0  0  0  0  0
  -20.5722  -26.2258   23.3572 H   0  0  0  0  0  0
  -21.6638  -26.7499   22.1179 H   0  0  0  0  0  0
  -19.6926  -25.6297   21.1217 H   0  0  0  0  0  0
  -19.6697  -27.3160   20.6690 H   0  0  0  0  0  0
  -17.4237  -26.6666   21.3947 H   0  0  0  0  0  0
  -18.0278  -26.0050   22.8948 H   0  0  0  0  0  0
  -19.7912  -30.7281   24.2160 H   0  0  0  0  0  0
  -17.4992  -31.6222   24.5177 H   0  0  0  0  0  0
  -15.5317  -30.2883   23.7787 H   0  0  0  0  0  0
  -15.8644  -28.0802   22.7019 H   0  0  0  0  0  0
  -24.6061  -30.6803   25.7772 H   0  0  0  0  0  0
  -24.8895  -32.2609   26.4980 H   0  0  0  0  0  0
  -25.8198  -30.8664   27.0213 H   0  0  0  0  0  0
  -26.3136  -29.6562   24.1419 H   0  0  0  0  0  0
  -27.4569  -29.7454   25.4624 H   0  0  0  0  0  0
  -27.8804  -30.4442   23.9217 H   0  0  0  0  0  0
  -27.2785  -33.3621   26.2066 H   0  0  0  0  0  0
  -28.3970  -32.6702   25.0393 H   0  0  0  0  0  0
  -28.0712  -31.8412   26.5514 H   0  0  0  0  0  0
  -28.2555  -38.0119   24.7551 H   0  0  0  0  0  0
  -28.1086  -36.2636   24.6288 H   0  0  0  0  0  0
  -27.2253  -37.1445   25.8868 H   0  0  0  0  0  0
  -20.9276  -29.8803   21.7009 H   0  0  0  0  0  0
  -26.0138  -38.2827   24.1414 H   0  0  0  0  0  0
  -32.5273  -20.5455   18.4349 H   0  0  0  0  0  0
  -33.0872  -22.0701   19.1126 H   0  0  0  0  0  0
  -31.7936  -21.7767   21.1043 H   0  0  0  0  0  0
  -32.2629  -20.1189   20.7985 H   0  0  0  0  0  0
  -30.9132  -21.7540   17.3386 H   0  0  0  0  0  0
  -31.2350  -23.1601   18.2912 H   0  0  0  0  0  0
  -29.6872  -20.7380   21.1021 H   0  0  0  0  0  0
  -28.1710  -19.7170   18.3138 H   0  0  0  0  0  0
  -27.7711  -19.1495   19.9298 H   0  0  0  0  0  0
  -28.3224  -18.0314   18.7005 H   0  0  0  0  0  0
  -26.9553  -23.3605   18.2855 H   0  0  0  0  0  0
  -27.5322  -21.7875   17.8717 H   0  0  0  0  0  0
  -28.4030  -23.2024   17.3006 H   0  0  0  0  0  0
  -26.9331  -22.9442   20.6942 H   0  0  0  0  0  0
  -28.3388  -22.4000   21.5662 H   0  0  0  0  0  0
  -27.4514  -21.3183   20.4862 H   0  0  0  0  0  0
  -31.0504  -15.9040   23.6454 H   0  0  0  0  0  0
  -32.2745  -16.0331   22.3728 H   0  0  0  0  0  0
  -31.9068  -14.4676   23.1047 H   0  0  0  0  0  0
  -28.7152  -18.1482   21.6676 H   0  0  0  0  0  0
  -30.2179  -17.9435   22.4826 H   0  0  0  0  0  0
  -30.3716  -17.1534   19.6315 H   0  0  0  0  0  0
  -31.4908  -18.0637   20.5618 H   0  0  0  0  0  0
  -29.7214  -24.2765   20.7378 H   0  0  0  0  0  0
  -30.0513  -24.5774   19.0575 H   0  0  0  0  0  0
  -28.5987  -15.8268   20.9787 H   0  0  0  0  0  0
  -28.7682  -15.9415   22.6988 H   0  0  0  0  0  0
  -27.3029  -24.9265   20.1481 H   0  0  0  0  0  0
  -27.9201  -25.3776   18.5528 H   0  0  0  0  0  0
  -30.5141  -19.2024   18.6083 H   0  0  0  0  0  0
  -29.3101  -21.1353   18.4985 H   0  0  0  0  0  0
  1 25  1  0  0  0
  1 30  2  0  0  0
  1 86  1  0  0  0
  2  3  1  0  0  0
  2 25  1  0  0  0
  2 88  1  0  0  0
  2 89  1  0  0  0
  3  4  1  0  0  0
  3 90  1  0  0  0
  3 91  1  0  0  0
  4  5  1  0  0  0
  4 92  1  0  0  0
  4 93  1  0  0  0
  5  6  1  0  0  0
  5 26  1  0  0  0
  5 94  1  0  0  0
  6 25  1  0  0  0
  6 95  1  0  0  0
  6 96  1  0  0  0
  7  8  2  0  0  0
  7 26  1  0  0  0
  7 29  1  0  0  0
  8  9  1  0  0  0
  8 22  1  0  0  0
  9 10  1  0  0  0
  9 27  2  0  0  0
 10 11  2  0  0  0
 10 15  1  0  0  0
 11 12  1  0  0  0
 11 97  1  0  0  0
 12 13  2  0  0  0
 12 98  1  0  0  0
 13 14  1  0  0  0
 13 31  1  0  0  0
 14 15  2  0  0  0
 14 99  1  0  0  0
 15100  1  0  0  0
 16 17  2  0  0  0
 16 21  1  0  0  0
 16 31  1  0  0  0
 17 18  1  0  0  0
 17101  1  0  0  0
 18 19  2  0  0  0
 18102  1  0  0  0
 19 20  1  0  0  0
 19 24  1  0  0  0
 20 21  2  0  0  0
 20103  1  0  0  0
 21 23  1  0  0  0
 22 28  1  0  0  0
 22 32  2  0  0  0
 26 27  1  0  0  0
 28104  1  0  0  0
 28105  1  0  0  0
 29106  1  0  0  0
 29107  1  0  0  0
 33 34  1  0  0  0
 33 66  1  0  0  0
 33 70  2  0  0  0
 34 36  1  0  0  0
 34 59  1  0  0  0
 34108  1  0  0  0
 35 44  2  0  0  0
 35 45  1  0  0  0
 35 68  1  0  0  0
 36 56  1  0  0  0
 36109  1  0  0  0
 37 39  1  0  0  0
 37 47  1  0  0  0
 37 66  1  0  0  0
 37110  1  0  0  0
 38 43  2  0  0  0
 38 46  1  0  0  0
 38 47  1  0  0  0
 39 64  1  0  0  0
 39 67  2  0  0  0
 40 52  1  0  0  0
 40 53  2  0  0  0
 40 58  1  0  0  0
 41111  1  0  0  0
 41112  1  0  0  0
 41113  1  0  0  0
 41 48  1  0  0  0
 42 43  1  0  0  0
 42 66  1  0  0  0
 42114  1  0  0  0
 42115  1  0  0  0
 43 44  1  0  0  0
 44116  1  0  0  0
 45 46  2  0  0  0
 45117  1  0  0  0
 46118  1  0  0  0
 47119  1  0  0  0
 47120  1  0  0  0
 48 56  1  0  0  0
 48 65  1  0  0  0
 48121  1  0  0  0
 49 50  1  0  0  0
 49 53  1  0  0  0
 49 64  1  0  0  0
 49122  1  0  0  0
 50 51  1  0  0  0
 50123  1  0  0  0
 50124  1  0  0  0
 51 52  1  0  0  0
 51125  1  0  0  0
 51126  1  0  0  0
 52127  1  0  0  0
 52128  1  0  0  0
 53 54  1  0  0  0
 54 55  2  0  0  0
 54129  1  0  0  0
 55 57  1  0  0  0
 55130  1  0  0  0
 56 69  2  0  0  0
 57 58  2  0  0  0
 57131  1  0  0  0
 58132  1  0  0  0
 59 60  1  0  0  0
 59 61  1  0  0  0
 59 62  1  0  0  0
 60133  1  0  0  0
 60134  1  0  0  0
 60135  1  0  0  0
 61136  1  0  0  0
 61137  1  0  0  0
 61138  1  0  0  0
 62139  1  0  0  0
 62140  1  0  0  0
 62141  1  0  0  0
 63 65  1  0  0  0
 63142  1  0  0  0
 63143  1  0  0  0
 63144  1  0  0  0
 64145  1  0  0  0
 65146  1  0  0  0
 68 83  1  0  0  0
 71 72  1  0  0  0
 71 73  1  0  0  0
 71147  1  0  0  0
 71148  1  0  0  0
 72149  1  0  0  0
 72150  1  0  0  0
 72 74  1  0  0  0
 73151  1  0  0  0
 73152  1  0  0  0
 73 87  1  0  0  0
 74 84  1  0  0  0
 74 87  1  0  0  0
 74153  1  0  0  0
 75154  1  0  0  0
 75155  1  0  0  0
 75156  1  0  0  0
 75 84  1  0  0  0
 76157  1  0  0  0
 76158  1  0  0  0
 76159  1  0  0  0
 76 85  1  0  0  0
 77 85  1  0  0  0
 77160  1  0  0  0
 77161  1  0  0  0
 77162  1  0  0  0
 78 86  1  0  0  0
 78163  1  0  0  0
 78164  1  0  0  0
 78165  1  0  0  0
 79 80  1  0  0  0
 79 82  1  0  0  0
 79166  1  0  0  0
 79167  1  0  0  0
 80 84  1  0  0  0
 80168  1  0  0  0
 80169  1  0  0  0
 81 83  1  0  0  0
 81 85  1  0  0  0
 81170  1  0  0  0
 81171  1  0  0  0
 82 86  1  0  0  0
 82172  1  0  0  0
 82173  1  0  0  0
 83174  1  0  0  0
 83175  1  0  0  0
 84176  1  0  0  0
 85 87  1  0  0  0
 87177  1  0  0  0
M  CHG  1  87   1
M  ISO  4   1 100  68 101  83 101  86 100
M  END
> <chiral flag>
0

> <version>
0

> <s_m_source_file>
/data/baiqing/PycharmProjects/Reinvent-master-3.2/result/LINK_invent/BTK/process_docking_weight1_custom_sum_contain_oxygen_bond_distance_aromatic_linkinvent_7_9_3/rearranged_h_0104.sdf

> <i_m_source_file_index>
94

> <r_mmod_Potential_Energy-OPLS-2005>
267.652252197266

> <r_mmod_Stretch_Energy-OPLS-2005>
52.6775131225586

> <r_mmod_Bend_Energy-OPLS-2005>
182.065078735352

> <r_mmod_Torsional_Energy-OPLS-2005>
398.524719238281

> <r_mmod_Improper_Torsional_Energy-OPLS-2005>
5.5138087272644

> <r_mmod_Van_der_Waal_Energy-OPLS-2005>
161.002059936523

> <r_mmod_Electrostatic_Energy-OPLS-2005>
-143.159545898438

> <r_mmod_Solvation_Energy-OPLS-2005>
-400.655517578125

> <b_mmod_Minimization_Converged-OPLS-2005>
0

> <r_mmod_RMS_Derivative-OPLS-2005>
4.21075582504272

$$$$
95
                    3D
 Structure written by MMmdl.
162170  0  0  1  0            999 V2000
  -30.6720  -14.4352   20.6123 C   0  0  0  0  0  0
  -30.4314  -12.2958   19.4049 C   0  0  0  0  0  0
  -29.4923  -12.5373   18.2044 C   0  0  0  0  0  0
  -28.0147  -12.3861   18.6169 C   0  0  0  0  0  0
  -27.6732  -13.1911   19.8983 C   0  0  2  0  0  0
  -28.7131  -12.9052   21.0074 C   0  0  0  0  0  0
  -25.2637  -13.8120   20.5717 C   0  0  0  0  0  0
  -24.1870  -13.0414   20.9181 C   0  0  0  0  0  0
  -24.6407  -11.6880   20.8745 C   0  0  0  0  0  0
  -23.9068  -10.4275   21.0426 C   0  0  0  0  0  0
  -24.3616   -9.4192   21.9214 C   0  0  0  0  0  0
  -23.6288   -8.2228   22.0787 C   0  0  0  0  0  0
  -22.4284   -8.0275   21.3563 C   0  0  0  0  0  0
  -21.9919   -9.0251   20.4661 C   0  0  0  0  0  0
  -22.7252  -10.2132   20.3073 C   0  0  0  0  0  0
  -21.6843   -6.0744   22.5296 C   0  0  0  0  0  0
  -21.3996   -6.5635   23.8220 C   0  0  0  0  0  0
  -21.3657   -5.6801   24.9183 C   0  0  0  0  0  0
  -21.6053   -4.3062   24.7227 C   0  0  0  0  0  0
  -21.8807   -3.8170   23.4344 C   0  0  0  0  0  0
  -21.9184   -4.6979   22.3403 C   0  0  0  0  0  0
  -22.7906  -13.5224   21.1848 C   0  0  0  0  0  0
  -22.1661   -4.2175   21.0988 F   0  0  0  0  0  0
  -21.5630   -3.4550   25.7742 F   0  0  0  0  0  0
  -30.0534  -13.2316   20.4764 N   0  0  0  0  0  0
  -26.3074  -12.9268   20.3486 N   0  0  0  0  0  0
  -25.9330  -11.6433   20.5826 N   0  0  0  0  0  0
  -22.0548  -12.8214   22.0386 N   0  0  0  0  0  0
  -25.4303  -15.1851   20.4119 N   0  0  0  0  0  0
  -31.7272  -14.7339   20.0413 O   0  0  0  0  0  0
  -21.6632   -6.8900   21.4262 O   0  0  0  0  0  0
  -22.3603  -14.5555   20.6746 O   0  0  0  0  0  0
  -24.6109  -31.8675   23.2110 C   0  0  0  0  0  0
  -25.9020  -32.4803   23.8425 C   0  0  1  0  0  0
  -27.2414  -27.4624   20.0947 C   0  0  0  0  0  0
  -25.5906  -33.8608   24.2346 N   0  0  0  0  0  0
  -23.4002  -30.4877   21.5510 C   0  0  2  0  0  0
  -24.8511  -28.9597   20.1119 C   0  0  0  0  0  0
  -22.7390  -29.4653   22.5031 C   0  0  0  0  0  0
  -18.0258  -28.1369   22.8508 C   0  0  0  0  0  0
  -24.1472  -36.7306   23.2647 C   0  0  0  0  0  0
  -25.9237  -30.8427   21.3590 C   0  0  0  0  0  0
  -26.0074  -29.4787   20.7093 C   0  0  0  0  0  0
  -27.2098  -28.7363   20.6988 C   0  0  0  0  0  0
  -26.0725  -26.9475   19.4965 C   0  0  0  0  0  0
  -24.8766  -27.6901   19.5049 C   0  0  0  0  0  0
  -23.6065  -29.8149   20.1661 C   0  0  0  0  0  0
  -25.4093  -36.3106   24.0358 C   0  0  1  0  0  0
  -20.5842  -28.3652   23.1322 C   0  0  2  0  0  0
  -20.6745  -26.9408   22.5413 C   0  0  0  0  0  0
  -19.5736  -26.6372   21.5215 C   0  0  0  0  0  0
  -18.1889  -26.7927   22.1598 C   0  0  0  0  0  0
  -19.1513  -28.8831   23.2895 C   0  0  0  0  0  0
  -18.9441  -30.1442   23.8904 C   0  0  0  0  0  0
  -17.6440  -30.6577   24.0565 C   0  0  0  0  0  0
  -25.9045  -34.9459   23.5152 C   0  0  0  0  0  0
  -16.5346  -29.9080   23.6338 C   0  0  0  0  0  0
  -16.7256  -28.6505   23.0383 C   0  0  0  0  0  0
  -26.4476  -31.6586   25.0736 C   0  0  0  0  0  0
  -25.3735  -31.3606   26.1456 C   0  0  0  0  0  0
  -27.0391  -30.3070   24.6103 C   0  0  0  0  0  0
  -27.6064  -32.4310   25.7484 C   0  0  0  0  0  0
  -27.5587  -37.1769   24.8460 C   0  0  0  0  0  0
  -21.4125  -29.3018   22.3748 N   0  0  0  0  0  0
  -26.4277  -37.3794   23.9445 N   0  0  0  0  0  0
  -24.6633  -31.0813   22.0988 N   0  0  0  0  0  0
  -23.4149  -28.8223   23.3101 O   0  0  0  0  0  0
  -28.3802  -26.6960   20.1103 O   0  0  0  0  0  0
  -26.5613  -34.8904   22.4718 O   0  0  0  0  0  0
  -23.5313  -32.1456   23.7508 O   0  0  0  0  0  0
  -29.1462  -23.7352   19.8776 C   0  0  0  0  0  0
  -29.4354  -23.8293   22.3982 C   0  0  0  0  0  0
  -30.0463  -22.4750   19.8512 C   0  0  0  0  0  0
  -30.3549  -22.5958   22.3283 C   0  0  0  0  0  0
  -29.4225  -24.6560   21.0917 C   0  0  2  0  0  0
  -29.9273  -21.6784   21.1715 C   0  0  2  0  0  0
  -28.3914  -25.8015   21.2253 C   0  0  0  0  0  0
  -30.5457  -17.8291   21.0840 C   0  0  0  0  0  0
  -29.5480  -16.6660   20.8645 C   0  0  0  0  0  0
  -29.8317  -19.1986   20.9059 C   0  0  0  0  0  0
  -29.9561  -15.3286   21.3134 N   0  0  0  0  0  0
  -30.6815  -20.3928   21.1644 N   0  3  0  0  0  0
  -31.4740  -12.4108   19.1024 H   0  0  0  0  0  0
  -30.3360  -11.2670   19.7569 H   0  0  0  0  0  0
  -29.7301  -11.8562   17.3866 H   0  0  0  0  0  0
  -29.6522  -13.5438   17.8161 H   0  0  0  0  0  0
  -27.8202  -11.3269   18.7849 H   0  0  0  0  0  0
  -27.3638  -12.6956   17.7982 H   0  0  0  0  0  0
  -27.7339  -14.2509   19.6467 H   0  0  0  0  0  0
  -28.6834  -11.8515   21.2910 H   0  0  0  0  0  0
  -28.4653  -13.4408   21.9255 H   0  0  0  0  0  0
  -25.2742   -9.5642   22.4801 H   0  0  0  0  0  0
  -23.9988   -7.4611   22.7496 H   0  0  0  0  0  0
  -21.0868   -8.8777   19.8935 H   0  0  0  0  0  0
  -22.3737  -10.9689   19.6177 H   0  0  0  0  0  0
  -21.1985   -7.6136   23.9729 H   0  0  0  0  0  0
  -21.1500   -6.0537   25.9097 H   0  0  0  0  0  0
  -22.0593   -2.7627   23.2855 H   0  0  0  0  0  0
  -22.4131  -11.9814   22.4689 H   0  0  0  0  0  0
  -21.1171  -13.1257   22.2650 H   0  0  0  0  0  0
  -24.6531  -15.8274   20.5204 H   0  0  0  0  0  0
  -26.2837  -15.6408   20.1196 H   0  0  0  0  0  0
  -26.7099  -32.5516   23.1205 H   0  0  0  0  0  0
  -25.0089  -33.9783   25.0515 H   0  0  0  0  0  0
  -22.6857  -31.3003   21.4048 H   0  0  0  0  0  0
  -23.3760  -35.9601   23.3227 H   0  0  0  0  0  0
  -24.3585  -36.9016   22.2082 H   0  0  0  0  0  0
  -23.7159  -37.6451   23.6720 H   0  0  0  0  0  0
  -26.0268  -31.6057   20.5884 H   0  0  0  0  0  0
  -26.8135  -30.9004   21.9746 H   0  0  0  0  0  0
  -28.0999  -29.1346   21.1666 H   0  0  0  0  0  0
  -26.0898  -25.9645   19.0470 H   0  0  0  0  0  0
  -23.9856  -27.2770   19.0534 H   0  0  0  0  0  0
  -23.6962  -30.5790   19.3933 H   0  0  0  0  0  0
  -22.7340  -29.2210   19.8928 H   0  0  0  0  0  0
  -25.1249  -36.2005   25.0851 H   0  0  0  0  0  0
  -20.9927  -28.3229   24.1458 H   0  0  0  0  0  0
  -20.5665  -26.2286   23.3588 H   0  0  0  0  0  0
  -21.6617  -26.7435   22.1224 H   0  0  0  0  0  0
  -19.6895  -25.6290   21.1235 H   0  0  0  0  0  0
  -19.6680  -27.3166   20.6734 H   0  0  0  0  0  0
  -17.4196  -26.6731   21.3967 H   0  0  0  0  0  0
  -18.0222  -26.0029   22.8943 H   0  0  0  0  0  0
  -19.7917  -30.7244   24.2297 H   0  0  0  0  0  0
  -17.5010  -31.6282   24.5142 H   0  0  0  0  0  0
  -15.5360  -30.2990   23.7665 H   0  0  0  0  0  0
  -15.8647  -28.0827   22.7120 H   0  0  0  0  0  0
  -24.6010  -30.6860   25.7756 H   0  0  0  0  0  0
  -24.8796  -32.2695   26.4905 H   0  0  0  0  0  0
  -25.8096  -30.8797   27.0212 H   0  0  0  0  0  0
  -26.2967  -29.6712   24.1267 H   0  0  0  0  0  0
  -27.4351  -29.7440   25.4566 H   0  0  0  0  0  0
  -27.8674  -30.4503   23.9154 H   0  0  0  0  0  0
  -27.2771  -33.3662   26.2036 H   0  0  0  0  0  0
  -28.3864  -32.6769   25.0262 H   0  0  0  0  0  0
  -28.0715  -31.8424   26.5403 H   0  0  0  0  0  0
  -28.2525  -38.0142   24.7660 H   0  0  0  0  0  0
  -28.1164  -36.2691   24.6109 H   0  0  0  0  0  0
  -27.2329  -37.1255   25.8860 H   0  0  0  0  0  0
  -20.9316  -29.8761   21.6974 H   0  0  0  0  0  0
  -26.0169  -38.2856   24.1497 H   0  0  0  0  0  0
  -28.1015  -23.4253   19.8887 H   0  0  0  0  0  0
  -29.2779  -24.3027   18.9555 H   0  0  0  0  0  0
  -29.7371  -24.4620   23.2327 H   0  0  0  0  0  0
  -28.4193  -23.5008   22.6259 H   0  0  0  0  0  0
  -31.0842  -22.7734   19.6882 H   0  0  0  0  0  0
  -29.7670  -21.8512   19.0030 H   0  0  0  0  0  0
  -30.3022  -22.0578   23.2767 H   0  0  0  0  0  0
  -31.3922  -22.9111   22.2007 H   0  0  0  0  0  0
  -30.4071  -25.1092   20.9637 H   0  0  0  0  0  0
  -28.8738  -21.4472   21.3303 H   0  0  0  0  0  0
  -28.6119  -26.3898   22.1191 H   0  0  0  0  0  0
  -27.4001  -25.3702   21.3813 H   0  0  0  0  0  0
  -31.3713  -17.7365   20.3768 H   0  0  0  0  0  0
  -30.9691  -17.7600   22.0857 H   0  0  0  0  0  0
  -29.2315  -16.6229   19.8209 H   0  0  0  0  0  0
  -28.6376  -16.8836   21.4245 H   0  0  0  0  0  0
  -28.9929  -19.2270   21.6029 H   0  0  0  0  0  0
  -29.4021  -19.2743   19.9069 H   0  0  0  0  0  0
  -29.2464  -14.8726   21.8675 H   0  0  0  0  0  0
  -31.0887  -20.2773   22.0790 H   0  0  0  0  0  0
  -31.4389  -20.4388   20.4994 H   0  0  0  0  0  0
  1 25  1  0  0  0
  1 30  2  0  0  0
  1 81  1  0  0  0
  2  3  1  0  0  0
  2 25  1  0  0  0
  2 83  1  0  0  0
  2 84  1  0  0  0
  3  4  1  0  0  0
  3 85  1  0  0  0
  3 86  1  0  0  0
  4  5  1  0  0  0
  4 87  1  0  0  0
  4 88  1  0  0  0
  5  6  1  0  0  0
  5 26  1  0  0  0
  5 89  1  0  0  0
  6 25  1  0  0  0
  6 90  1  0  0  0
  6 91  1  0  0  0
  7  8  2  0  0  0
  7 26  1  0  0  0
  7 29  1  0  0  0
  8  9  1  0  0  0
  8 22  1  0  0  0
  9 10  1  0  0  0
  9 27  2  0  0  0
 10 11  2  0  0  0
 10 15  1  0  0  0
 11 12  1  0  0  0
 11 92  1  0  0  0
 12 13  2  0  0  0
 12 93  1  0  0  0
 13 14  1  0  0  0
 13 31  1  0  0  0
 14 15  2  0  0  0
 14 94  1  0  0  0
 15 95  1  0  0  0
 16 17  2  0  0  0
 16 21  1  0  0  0
 16 31  1  0  0  0
 17 18  1  0  0  0
 17 96  1  0  0  0
 18 19  2  0  0  0
 18 97  1  0  0  0
 19 20  1  0  0  0
 19 24  1  0  0  0
 20 21  2  0  0  0
 20 98  1  0  0  0
 21 23  1  0  0  0
 22 28  1  0  0  0
 22 32  2  0  0  0
 26 27  1  0  0  0
 28 99  1  0  0  0
 28100  1  0  0  0
 29101  1  0  0  0
 29102  1  0  0  0
 33 34  1  0  0  0
 33 66  1  0  0  0
 33 70  2  0  0  0
 34 36  1  0  0  0
 34 59  1  0  0  0
 34103  1  0  0  0
 35 44  2  0  0  0
 35 45  1  0  0  0
 35 68  1  0  0  0
 36 56  1  0  0  0
 36104  1  0  0  0
 37 39  1  0  0  0
 37 47  1  0  0  0
 37 66  1  0  0  0
 37105  1  0  0  0
 38 43  2  0  0  0
 38 46  1  0  0  0
 38 47  1  0  0  0
 39 64  1  0  0  0
 39 67  2  0  0  0
 40 52  1  0  0  0
 40 53  2  0  0  0
 40 58  1  0  0  0
 41106  1  0  0  0
 41107  1  0  0  0
 41108  1  0  0  0
 41 48  1  0  0  0
 42 43  1  0  0  0
 42 66  1  0  0  0
 42109  1  0  0  0
 42110  1  0  0  0
 43 44  1  0  0  0
 44111  1  0  0  0
 45 46  2  0  0  0
 45112  1  0  0  0
 46113  1  0  0  0
 47114  1  0  0  0
 47115  1  0  0  0
 48 56  1  0  0  0
 48 65  1  0  0  0
 48116  1  0  0  0
 49 50  1  0  0  0
 49 53  1  0  0  0
 49 64  1  0  0  0
 49117  1  0  0  0
 50 51  1  0  0  0
 50118  1  0  0  0
 50119  1  0  0  0
 51 52  1  0  0  0
 51120  1  0  0  0
 51121  1  0  0  0
 52122  1  0  0  0
 52123  1  0  0  0
 53 54  1  0  0  0
 54 55  2  0  0  0
 54124  1  0  0  0
 55 57  1  0  0  0
 55125  1  0  0  0
 56 69  2  0  0  0
 57 58  2  0  0  0
 57126  1  0  0  0
 58127  1  0  0  0
 59 60  1  0  0  0
 59 61  1  0  0  0
 59 62  1  0  0  0
 60128  1  0  0  0
 60129  1  0  0  0
 60130  1  0  0  0
 61131  1  0  0  0
 61132  1  0  0  0
 61133  1  0  0  0
 62134  1  0  0  0
 62135  1  0  0  0
 62136  1  0  0  0
 63 65  1  0  0  0
 63137  1  0  0  0
 63138  1  0  0  0
 63139  1  0  0  0
 64140  1  0  0  0
 65141  1  0  0  0
 68 77  1  0  0  0
 71 73  1  0  0  0
 71 75  1  0  0  0
 71142  1  0  0  0
 71143  1  0  0  0
 72 74  1  0  0  0
 72 75  1  0  0  0
 72144  1  0  0  0
 72145  1  0  0  0
 73 76  1  0  0  0
 73146  1  0  0  0
 73147  1  0  0  0
 74 76  1  0  0  0
 74148  1  0  0  0
 74149  1  0  0  0
 75 77  1  0  0  0
 75150  1  0  0  0
 76 82  1  0  0  0
 76151  1  0  0  0
 77152  1  0  0  0
 77153  1  0  0  0
 78 79  1  0  0  0
 78 80  1  0  0  0
 78154  1  0  0  0
 78155  1  0  0  0
 79 81  1  0  0  0
 79156  1  0  0  0
 79157  1  0  0  0
 80 82  1  0  0  0
 80158  1  0  0  0
 80159  1  0  0  0
 81160  1  0  0  0
 82161  1  0  0  0
 82162  1  0  0  0
M  CHG  1  82   1
M  ISO  4   1 100  68 101  77 101  81 100
M  END
> <chiral flag>
0

> <version>
0

> <s_m_source_file>
/data/baiqing/PycharmProjects/Reinvent-master-3.2/result/LINK_invent/BTK/process_docking_weight1_custom_sum_contain_oxygen_bond_distance_aromatic_linkinvent_7_9_3/rearranged_h_0104.sdf

> <i_m_source_file_index>
95

> <r_mmod_Potential_Energy-OPLS-2005>
-143.470031738281

> <r_mmod_Stretch_Energy-OPLS-2005>
34.6547050476074

> <r_mmod_Bend_Energy-OPLS-2005>
100.57495880127

> <r_mmod_Torsional_Energy-OPLS-2005>
275.574462890625

> <r_mmod_Improper_Torsional_Energy-OPLS-2005>
6.56306600570679

> <r_mmod_Van_der_Waal_Energy-OPLS-2005>
131.729415893555

> <r_mmod_Electrostatic_Energy-OPLS-2005>
-239.07633972168

> <r_mmod_Solvation_Energy-OPLS-2005>
-463.642883300781

> <b_mmod_Minimization_Converged-OPLS-2005>
0

> <r_mmod_RMS_Derivative-OPLS-2005>
4.38577938079834

$$$$
96
                    3D
 Structure written by MMmdl.
162170  0  0  1  0            999 V2000
  -30.7105  -14.6184   20.5173 C   0  0  0  0  0  0
  -30.4165  -12.3936   19.4486 C   0  0  0  0  0  0
  -29.4920  -12.4923   18.2188 C   0  0  0  0  0  0
  -28.0217  -12.3153   18.6404 C   0  0  0  0  0  0
  -27.6391  -13.2081   19.8486 C   0  0  2  0  0  0
  -28.6908  -13.1322   20.9811 C   0  0  0  0  0  0
  -25.2504  -13.8131   20.5679 C   0  0  0  0  0  0
  -24.1788  -13.0406   20.9217 C   0  0  0  0  0  0
  -24.6360  -11.6881   20.8774 C   0  0  0  0  0  0
  -23.9039  -10.4271   21.0428 C   0  0  0  0  0  0
  -24.3598   -9.4185   21.9197 C   0  0  0  0  0  0
  -23.6278   -8.2219   22.0755 C   0  0  0  0  0  0
  -22.4261   -8.0264   21.3541 C   0  0  0  0  0  0
  -21.9895   -9.0239   20.4646 C   0  0  0  0  0  0
  -22.7219  -10.2120   20.3067 C   0  0  0  0  0  0
  -21.6848   -6.0727   22.5278 C   0  0  0  0  0  0
  -21.4007   -6.5632   23.8210 C   0  0  0  0  0  0
  -21.3657   -5.6787   24.9174 C   0  0  0  0  0  0
  -21.6048   -4.3051   24.7225 C   0  0  0  0  0  0
  -21.8819   -3.8140   23.4347 C   0  0  0  0  0  0
  -21.9188   -4.6956   22.3403 C   0  0  0  0  0  0
  -22.7817  -13.5211   21.1877 C   0  0  0  0  0  0
  -22.1660   -4.2144   21.0980 F   0  0  0  0  0  0
  -21.5633   -3.4537   25.7738 F   0  0  0  0  0  0
  -30.0038  -13.4472   20.3998 N   0  0  0  0  0  0
  -26.2916  -12.9297   20.3298 N   0  0  0  0  0  0
  -25.9282  -11.6468   20.5789 N   0  0  0  0  0  0
  -22.0456  -12.8208   22.0433 N   0  0  0  0  0  0
  -25.4165  -15.1850   20.4026 N   0  0  0  0  0  0
  -31.8876  -14.6748   20.1512 O   0  0  0  0  0  0
  -21.6629   -6.8865   21.4237 O   0  0  0  0  0  0
  -22.3510  -14.5519   20.6722 O   0  0  0  0  0  0
  -24.6241  -31.8633   23.2050 C   0  0  0  0  0  0
  -25.9104  -32.4796   23.8363 C   0  0  1  0  0  0
  -27.2167  -27.3398   20.1123 C   0  0  0  0  0  0
  -25.5934  -33.8596   24.2288 N   0  0  0  0  0  0
  -23.4157  -30.4899   21.5480 C   0  0  2  0  0  0
  -24.8611  -28.9544   20.1105 C   0  0  0  0  0  0
  -22.7469  -29.4645   22.4942 C   0  0  0  0  0  0
  -18.0290  -28.1375   22.8480 C   0  0  0  0  0  0
  -24.1497  -36.7300   23.2637 C   0  0  0  0  0  0
  -25.9575  -30.8001   21.3763 C   0  0  0  0  0  0
  -26.0311  -29.4315   20.7160 C   0  0  0  0  0  0
  -27.2137  -28.6354   20.7090 C   0  0  0  0  0  0
  -26.0286  -26.9261   19.4635 C   0  0  0  0  0  0
  -24.8614  -27.7065   19.4751 C   0  0  0  0  0  0
  -23.6288  -29.8311   20.1617 C   0  0  0  0  0  0
  -25.4120  -36.3091   24.0327 C   0  0  1  0  0  0
  -20.5890  -28.3685   23.1282 C   0  0  2  0  0  0
  -20.6785  -26.9412   22.5403 C   0  0  0  0  0  0
  -19.5765  -26.6377   21.5208 C   0  0  0  0  0  0
  -18.1940  -26.7918   22.1612 C   0  0  0  0  0  0
  -19.1542  -28.8846   23.2879 C   0  0  0  0  0  0
  -18.9467  -30.1449   23.8892 C   0  0  0  0  0  0
  -17.6468  -30.6581   24.0561 C   0  0  0  0  0  0
  -25.9056  -34.9461   23.5103 C   0  0  0  0  0  0
  -16.5359  -29.9079   23.6330 C   0  0  0  0  0  0
  -16.7276  -28.6501   23.0341 C   0  0  0  0  0  0
  -26.4491  -31.6594   25.0724 C   0  0  0  0  0  0
  -25.3723  -31.3741   26.1455 C   0  0  0  0  0  0
  -27.0331  -30.3013   24.6174 C   0  0  0  0  0  0
  -27.6055  -32.4331   25.7488 C   0  0  0  0  0  0
  -27.5586  -37.1804   24.8466 C   0  0  0  0  0  0
  -21.4185  -29.3046   22.3685 N   0  0  0  0  0  0
  -26.4301  -37.3777   23.9404 N   0  0  0  0  0  0
  -24.6840  -31.0665   22.0996 N   0  0  0  0  0  0
  -23.4209  -28.8173   23.2995 O   0  0  0  0  0  0
  -28.3212  -26.4779   20.1662 O   0  0  0  0  0  0
  -26.5615  -34.8927   22.4662 O   0  0  0  0  0  0
  -23.5408  -32.1424   23.7393 O   0  0  0  0  0  0
  -30.6821  -18.1764   21.8440 C   0  0  0  0  0  0
  -28.8681  -17.9520   20.2240 C   0  0  0  0  0  0
  -30.8115  -16.6218   21.9871 C   0  0  0  0  0  0
  -28.9392  -16.3852   20.3015 C   0  0  0  0  0  0
  -29.2341  -18.6141   21.5605 C   0  0  0  0  0  0
  -28.9337  -20.4150   23.2228 C   0  0  0  0  0  0
  -28.5285  -22.5137   20.8863 C   0  0  0  0  0  0
  -29.1065  -23.9342   20.4750 C   0  0  0  0  0  0
  -29.4372  -21.2003   20.9212 C   0  0  0  0  0  0
  -28.0026  -25.0654   20.4563 C   0  0  0  0  0  0
  -30.0978  -15.7586   21.0001 N   0  0  0  0  0  0
  -28.8636  -20.0820   21.7727 N   0  3  1  0  0  0
  -31.4588  -12.4865   19.1381 H   0  0  0  0  0  0
  -30.3335  -11.4109   19.9152 H   0  0  0  0  0  0
  -29.7616  -11.7343   17.4822 H   0  0  0  0  0  0
  -29.6238  -13.4580   17.7279 H   0  0  0  0  0  0
  -27.8765  -11.2658   18.8980 H   0  0  0  0  0  0
  -27.3588  -12.5150   17.7973 H   0  0  0  0  0  0
  -27.6213  -14.2184   19.4542 H   0  0  0  0  0  0
  -28.7069  -12.1362   21.4253 H   0  0  0  0  0  0
  -28.4377  -13.8195   21.7899 H   0  0  0  0  0  0
  -25.2744   -9.5663   22.4773 H   0  0  0  0  0  0
  -23.9991   -7.4606   22.7467 H   0  0  0  0  0  0
  -21.0831   -8.8753   19.8950 H   0  0  0  0  0  0
  -22.3678  -10.9661   19.6179 H   0  0  0  0  0  0
  -21.1995   -7.6142   23.9711 H   0  0  0  0  0  0
  -21.1486   -6.0519   25.9076 H   0  0  0  0  0  0
  -22.0602   -2.7605   23.2848 H   0  0  0  0  0  0
  -22.4068  -11.9866   22.4823 H   0  0  0  0  0  0
  -21.1077  -13.1238   22.2644 H   0  0  0  0  0  0
  -24.6411  -15.8319   20.4982 H   0  0  0  0  0  0
  -26.2538  -15.6203   20.0404 H   0  0  0  0  0  0
  -26.7175  -32.5477   23.1112 H   0  0  0  0  0  0
  -25.0102  -33.9750   25.0447 H   0  0  0  0  0  0
  -22.7079  -31.3099   21.4084 H   0  0  0  0  0  0
  -23.3762  -35.9631   23.3306 H   0  0  0  0  0  0
  -24.3591  -36.8908   22.2052 H   0  0  0  0  0  0
  -23.7254  -37.6507   23.6652 H   0  0  0  0  0  0
  -26.0905  -31.5661   20.6112 H   0  0  0  0  0  0
  -26.8373  -30.8434   22.0066 H   0  0  0  0  0  0
  -28.1103  -28.9951   21.1948 H   0  0  0  0  0  0
  -25.9663  -25.9922   18.9284 H   0  0  0  0  0  0
  -23.9693  -27.3402   18.9849 H   0  0  0  0  0  0
  -23.7466  -30.6112   19.4088 H   0  0  0  0  0  0
  -22.7490  -29.2611   19.8580 H   0  0  0  0  0  0
  -25.1296  -36.1945   25.0818 H   0  0  0  0  0  0
  -20.9983  -28.3261   24.1403 H   0  0  0  0  0  0
  -20.5690  -26.2300   23.3601 H   0  0  0  0  0  0
  -21.6654  -26.7438   22.1198 H   0  0  0  0  0  0
  -19.6934  -25.6288   21.1245 H   0  0  0  0  0  0
  -19.6709  -27.3188   20.6743 H   0  0  0  0  0  0
  -17.4212  -26.6676   21.4009 H   0  0  0  0  0  0
  -18.0330  -26.0047   22.8995 H   0  0  0  0  0  0
  -19.7944  -30.7268   24.2254 H   0  0  0  0  0  0
  -17.5024  -31.6262   24.5164 H   0  0  0  0  0  0
  -15.5360  -30.2978   23.7659 H   0  0  0  0  0  0
  -15.8676  -28.0826   22.7038 H   0  0  0  0  0  0
  -24.5907  -30.7073   25.7794 H   0  0  0  0  0  0
  -24.8902  -32.2912   26.4848 H   0  0  0  0  0  0
  -25.8041  -30.8949   27.0249 H   0  0  0  0  0  0
  -26.2899  -29.6771   24.1200 H   0  0  0  0  0  0
  -27.4038  -29.7258   25.4666 H   0  0  0  0  0  0
  -27.8759  -30.4296   23.9380 H   0  0  0  0  0  0
  -27.2663  -33.3633   26.2057 H   0  0  0  0  0  0
  -28.3857  -32.6896   25.0311 H   0  0  0  0  0  0
  -28.0731  -31.8471   26.5409 H   0  0  0  0  0  0
  -28.2603  -38.0102   24.7505 H   0  0  0  0  0  0
  -28.1083  -36.2632   24.6294 H   0  0  0  0  0  0
  -27.2310  -37.1451   25.8873 H   0  0  0  0  0  0
  -20.9364  -29.8780   21.6906 H   0  0  0  0  0  0
  -26.0191  -38.2855   24.1397 H   0  0  0  0  0  0
  -31.3366  -18.5313   21.0468 H   0  0  0  0  0  0
  -31.0551  -18.6354   22.7590 H   0  0  0  0  0  0
  -27.8621  -18.2452   19.9224 H   0  0  0  0  0  0
  -29.5339  -18.3135   19.4391 H   0  0  0  0  0  0
  -30.4173  -16.3404   22.9646 H   0  0  0  0  0  0
  -31.8733  -16.3718   22.0324 H   0  0  0  0  0  0
  -28.8754  -16.0042   19.2810 H   0  0  0  0  0  0
  -28.0478  -16.0397   20.8237 H   0  0  0  0  0  0
  -28.6148  -18.0896   22.2912 H   0  0  0  0  0  0
  -28.4541  -19.6517   23.8360 H   0  0  0  0  0  0
  -28.4346  -21.3489   23.4687 H   0  0  0  0  0  0
  -29.9668  -20.5038   23.5578 H   0  0  0  0  0  0
  -27.6811  -22.2978   20.2345 H   0  0  0  0  0  0
  -28.0789  -22.6708   21.8634 H   0  0  0  0  0  0
  -29.5685  -23.8680   19.4897 H   0  0  0  0  0  0
  -29.9002  -24.2161   21.1667 H   0  0  0  0  0  0
  -30.4340  -21.4434   21.2898 H   0  0  0  0  0  0
  -29.5736  -20.8400   19.9012 H   0  0  0  0  0  0
  -27.5005  -25.0558   21.4253 H   0  0  0  0  0  0
  -27.2725  -24.6871   19.7470 H   0  0  0  0  0  0
  -27.8772  -20.0984   21.5576 H   0  0  0  0  0  0
  1 25  1  0  0  0
  1 30  2  0  0  0
  1 81  1  0  0  0
  2  3  1  0  0  0
  2 25  1  0  0  0
  2 83  1  0  0  0
  2 84  1  0  0  0
  3  4  1  0  0  0
  3 85  1  0  0  0
  3 86  1  0  0  0
  4  5  1  0  0  0
  4 87  1  0  0  0
  4 88  1  0  0  0
  5  6  1  0  0  0
  5 26  1  0  0  0
  5 89  1  0  0  0
  6 25  1  0  0  0
  6 90  1  0  0  0
  6 91  1  0  0  0
  7  8  2  0  0  0
  7 26  1  0  0  0
  7 29  1  0  0  0
  8  9  1  0  0  0
  8 22  1  0  0  0
  9 10  1  0  0  0
  9 27  2  0  0  0
 10 11  2  0  0  0
 10 15  1  0  0  0
 11 12  1  0  0  0
 11 92  1  0  0  0
 12 13  2  0  0  0
 12 93  1  0  0  0
 13 14  1  0  0  0
 13 31  1  0  0  0
 14 15  2  0  0  0
 14 94  1  0  0  0
 15 95  1  0  0  0
 16 17  2  0  0  0
 16 21  1  0  0  0
 16 31  1  0  0  0
 17 18  1  0  0  0
 17 96  1  0  0  0
 18 19  2  0  0  0
 18 97  1  0  0  0
 19 20  1  0  0  0
 19 24  1  0  0  0
 20 21  2  0  0  0
 20 98  1  0  0  0
 21 23  1  0  0  0
 22 28  1  0  0  0
 22 32  2  0  0  0
 26 27  1  0  0  0
 28 99  1  0  0  0
 28100  1  0  0  0
 29101  1  0  0  0
 29102  1  0  0  0
 33 34  1  0  0  0
 33 66  1  0  0  0
 33 70  2  0  0  0
 34 36  1  0  0  0
 34 59  1  0  0  0
 34103  1  0  0  0
 35 44  2  0  0  0
 35 45  1  0  0  0
 35 68  1  0  0  0
 36 56  1  0  0  0
 36104  1  0  0  0
 37 39  1  0  0  0
 37 47  1  0  0  0
 37 66  1  0  0  0
 37105  1  0  0  0
 38 43  2  0  0  0
 38 46  1  0  0  0
 38 47  1  0  0  0
 39 64  1  0  0  0
 39 67  2  0  0  0
 40 52  1  0  0  0
 40 53  2  0  0  0
 40 58  1  0  0  0
 41106  1  0  0  0
 41107  1  0  0  0
 41108  1  0  0  0
 41 48  1  0  0  0
 42 43  1  0  0  0
 42 66  1  0  0  0
 42109  1  0  0  0
 42110  1  0  0  0
 43 44  1  0  0  0
 44111  1  0  0  0
 45 46  2  0  0  0
 45112  1  0  0  0
 46113  1  0  0  0
 47114  1  0  0  0
 47115  1  0  0  0
 48 56  1  0  0  0
 48 65  1  0  0  0
 48116  1  0  0  0
 49 50  1  0  0  0
 49 53  1  0  0  0
 49 64  1  0  0  0
 49117  1  0  0  0
 50 51  1  0  0  0
 50118  1  0  0  0
 50119  1  0  0  0
 51 52  1  0  0  0
 51120  1  0  0  0
 51121  1  0  0  0
 52122  1  0  0  0
 52123  1  0  0  0
 53 54  1  0  0  0
 54 55  2  0  0  0
 54124  1  0  0  0
 55 57  1  0  0  0
 55125  1  0  0  0
 56 69  2  0  0  0
 57 58  2  0  0  0
 57126  1  0  0  0
 58127  1  0  0  0
 59 60  1  0  0  0
 59 61  1  0  0  0
 59 62  1  0  0  0
 60128  1  0  0  0
 60129  1  0  0  0
 60130  1  0  0  0
 61131  1  0  0  0
 61132  1  0  0  0
 61133  1  0  0  0
 62134  1  0  0  0
 62135  1  0  0  0
 62136  1  0  0  0
 63 65  1  0  0  0
 63137  1  0  0  0
 63138  1  0  0  0
 63139  1  0  0  0
 64140  1  0  0  0
 65141  1  0  0  0
 68 80  1  0  0  0
 71 73  1  0  0  0
 71142  1  0  0  0
 71143  1  0  0  0
 71 75  1  0  0  0
 72 74  1  0  0  0
 72 75  1  0  0  0
 72144  1  0  0  0
 72145  1  0  0  0
 73 81  1  0  0  0
 73146  1  0  0  0
 73147  1  0  0  0
 74 81  1  0  0  0
 74148  1  0  0  0
 74149  1  0  0  0
 75 82  1  0  0  0
 75150  1  0  0  0
 76151  1  0  0  0
 76152  1  0  0  0
 76153  1  0  0  0
 76 82  1  0  0  0
 77 78  1  0  0  0
 77 79  1  0  0  0
 77154  1  0  0  0
 77155  1  0  0  0
 78 80  1  0  0  0
 78156  1  0  0  0
 78157  1  0  0  0
 79 82  1  0  0  0
 79158  1  0  0  0
 79159  1  0  0  0
 80160  1  0  0  0
 80161  1  0  0  0
 82162  1  0  0  0
M  CHG  1  82   1
M  ISO  4   1 100  68 101  80 101  81 100
M  END
> <chiral flag>
0

> <version>
0

> <s_m_source_file>
/data/baiqing/PycharmProjects/Reinvent-master-3.2/result/LINK_invent/BTK/process_docking_weight1_custom_sum_contain_oxygen_bond_distance_aromatic_linkinvent_7_9_3/rearranged_h_0104.sdf

> <i_m_source_file_index>
96

> <r_mmod_Potential_Energy-OPLS-2005>
210.168426513672

> <r_mmod_Stretch_Energy-OPLS-2005>
76.6266479492188

> <r_mmod_Bend_Energy-OPLS-2005>
167.605529785156

> <r_mmod_Torsional_Energy-OPLS-2005>
347.516204833984

> <r_mmod_Improper_Torsional_Energy-OPLS-2005>
2.63265037536621

> <r_mmod_Van_der_Waal_Energy-OPLS-2005>
139.243743896484

> <r_mmod_Electrostatic_Energy-OPLS-2005>
-131.072250366211

> <r_mmod_Solvation_Energy-OPLS-2005>
-439.86328125

> <b_mmod_Minimization_Converged-OPLS-2005>
0

> <r_mmod_RMS_Derivative-OPLS-2005>
0.83077210187912

$$$$
97
                    3D
 Structure written by MMmdl.
184192  0  0  1  0            999 V2000
  -30.6779  -14.4541   20.6492 C   0  0  0  0  0  0
  -30.4560  -12.3404   19.3765 C   0  0  0  0  0  0
  -29.4952  -12.5382   18.1818 C   0  0  0  0  0  0
  -28.0092  -12.4079   18.5870 C   0  0  0  0  0  0
  -27.6728  -13.1849   19.8888 C   0  0  2  0  0  0
  -28.7229  -12.7990   20.9479 C   0  0  0  0  0  0
  -25.2636  -13.8082   20.5694 C   0  0  0  0  0  0
  -24.1864  -13.0389   20.9159 C   0  0  0  0  0  0
  -24.6390  -11.6856   20.8743 C   0  0  0  0  0  0
  -23.9039  -10.4261   21.0438 C   0  0  0  0  0  0
  -24.3592   -9.4176   21.9208 C   0  0  0  0  0  0
  -23.6269   -8.2218   22.0765 C   0  0  0  0  0  0
  -22.4248   -8.0261   21.3554 C   0  0  0  0  0  0
  -21.9894   -9.0232   20.4651 C   0  0  0  0  0  0
  -22.7235  -10.2114   20.3066 C   0  0  0  0  0  0
  -21.6863   -6.0719   22.5289 C   0  0  0  0  0  0
  -21.4029   -6.5623   23.8219 C   0  0  0  0  0  0
  -21.3657   -5.6773   24.9181 C   0  0  0  0  0  0
  -21.6049   -4.3040   24.7250 C   0  0  0  0  0  0
  -21.8810   -3.8133   23.4372 C   0  0  0  0  0  0
  -21.9189   -4.6941   22.3426 C   0  0  0  0  0  0
  -22.7872  -13.5210   21.1781 C   0  0  0  0  0  0
  -22.1648   -4.2117   21.1006 F   0  0  0  0  0  0
  -21.5626   -3.4526   25.7778 F   0  0  0  0  0  0
  -30.0358  -13.2566   20.4567 N   0  0  0  0  0  0
  -26.3087  -12.9220   20.3441 N   0  0  0  0  0  0
  -25.9320  -11.6393   20.5779 N   0  0  0  0  0  0
  -22.0451  -12.8277   22.0361 N   0  0  0  0  0  0
  -25.4337  -15.1810   20.4138 N   0  0  0  0  0  0
  -31.7585  -14.6965   20.1025 O   0  0  0  0  0  0
  -21.6617   -6.8866   21.4254 O   0  0  0  0  0  0
  -22.3571  -14.5502   20.6576 O   0  0  0  0  0  0
  -24.6133  -31.8686   23.2112 C   0  0  0  0  0  0
  -25.9023  -32.4827   23.8407 C   0  0  1  0  0  0
  -27.2286  -27.4269   20.0878 C   0  0  0  0  0  0
  -25.5889  -33.8631   24.2339 N   0  0  0  0  0  0
  -23.3999  -30.4955   21.5514 C   0  0  2  0  0  0
  -24.8417  -28.9626   20.1145 C   0  0  0  0  0  0
  -22.7390  -29.4666   22.4967 C   0  0  0  0  0  0
  -18.0270  -28.1379   22.8509 C   0  0  0  0  0  0
  -24.1494  -36.7309   23.2643 C   0  0  0  0  0  0
  -25.9293  -30.8339   21.3605 C   0  0  0  0  0  0
  -26.0042  -29.4682   20.7076 C   0  0  0  0  0  0
  -27.1959  -28.7088   20.6884 C   0  0  0  0  0  0
  -26.0344  -26.9305   19.5068 C   0  0  0  0  0  0
  -24.8531  -27.6942   19.5134 C   0  0  0  0  0  0
  -23.6061  -29.8346   20.1634 C   0  0  0  0  0  0
  -25.4111  -36.3111   24.0344 C   0  0  1  0  0  0
  -20.5872  -28.3645   23.1331 C   0  0  2  0  0  0
  -20.6767  -26.9385   22.5412 C   0  0  0  0  0  0
  -19.5744  -26.6385   21.5209 C   0  0  0  0  0  0
  -18.1925  -26.7939   22.1628 C   0  0  0  0  0  0
  -19.1526  -28.8828   23.2925 C   0  0  0  0  0  0
  -18.9446  -30.1451   23.8917 C   0  0  0  0  0  0
  -17.6445  -30.6583   24.0571 C   0  0  0  0  0  0
  -25.9032  -34.9480   23.5136 C   0  0  0  0  0  0
  -16.5343  -29.9085   23.6326 C   0  0  0  0  0  0
  -16.7266  -28.6501   23.0343 C   0  0  0  0  0  0
  -26.4470  -31.6597   25.0727 C   0  0  0  0  0  0
  -25.3739  -31.3664   26.1470 C   0  0  0  0  0  0
  -27.0262  -30.3055   24.6041 C   0  0  0  0  0  0
  -27.6065  -32.4292   25.7478 C   0  0  0  0  0  0
  -27.5582  -37.1819   24.8468 C   0  0  0  0  0  0
  -21.4107  -29.3034   22.3722 N   0  0  0  0  0  0
  -26.4291  -37.3799   23.9419 N   0  0  0  0  0  0
  -24.6665  -31.0796   22.1003 N   0  0  0  0  0  0
  -23.4173  -28.8208   23.2988 O   0  0  0  0  0  0
  -28.4283  -26.7368   20.0758 O   0  0  0  0  0  0
  -26.5594  -34.8929   22.4700 O   0  0  0  0  0  0
  -23.5326  -32.1438   23.7507 O   0  0  0  0  0  0
  -28.2166  -20.2940   21.5328 C   0  0  0  0  0  0
  -28.2250  -18.8820   21.6031 C   0  0  0  0  0  0
  -29.9429  -20.3808   23.2216 C   0  0  0  0  0  0
  -29.0101  -21.0698   22.4086 C   0  0  0  0  0  0
  -29.0181  -18.2103   22.5608 C   0  0  0  0  0  0
  -29.9387  -18.9735   23.3252 C   0  0  0  0  0  0
  -28.1705  -24.4518   20.9176 C   0  0  0  0  0  0
  -28.9399  -23.4218   21.3382 C   0  0  0  0  0  0
  -29.8675  -14.6595   23.6186 C   0  0  0  0  0  0
  -27.2666  -22.7111   23.1197 C   0  0  0  0  0  0
  -29.6313  -23.2110   23.6784 C   0  0  0  0  0  0
  -29.9455  -15.6264   28.3547 C   0  0  0  0  0  0
  -30.2686  -17.9701   29.0086 C   0  0  0  0  0  0
  -28.5867  -16.8032   23.0002 C   0  0  0  0  0  0
  -30.8374  -18.3428   24.3758 C   0  0  0  0  0  0
  -28.4727  -25.3448   19.7241 C   0  0  0  0  0  0
  -30.1902  -18.3391   25.7760 C   0  0  0  0  0  0
  -30.7683  -17.2479   26.6913 C   0  0  0  0  0  0
  -29.1914  -15.4620   22.4775 C   0  0  1  0  0  0
  -28.7185  -22.5816   22.6004 C   0  0  0  0  0  0
  -30.0404  -15.4778   21.2763 N   0  0  0  0  0  0
  -29.9414  -17.0375   27.9061 N   0  3  0  0  0  0
  -31.4824  -12.5149   19.0498 H   0  0  0  0  0  0
  -30.4484  -11.3024   19.7128 H   0  0  0  0  0  0
  -29.7350  -11.8241   17.3921 H   0  0  0  0  0  0
  -29.6585  -13.5275   17.7564 H   0  0  0  0  0  0
  -27.7854  -11.3485   18.7195 H   0  0  0  0  0  0
  -27.3704  -12.7465   17.7706 H   0  0  0  0  0  0
  -27.7553  -14.2527   19.6835 H   0  0  0  0  0  0
  -28.7343  -11.7096   21.0174 H   0  0  0  0  0  0
  -28.4651  -13.0398   21.9675 H   0  0  0  0  0  0
  -25.2729   -9.5652   22.4788 H   0  0  0  0  0  0
  -23.9971   -7.4599   22.7488 H   0  0  0  0  0  0
  -21.0815   -8.8756   19.8963 H   0  0  0  0  0  0
  -22.3687  -10.9651   19.6175 H   0  0  0  0  0  0
  -21.2028   -7.6125   23.9745 H   0  0  0  0  0  0
  -21.1493   -6.0486   25.9085 H   0  0  0  0  0  0
  -22.0607   -2.7594   23.2879 H   0  0  0  0  0  0
  -22.3973  -11.9952   22.4859 H   0  0  0  0  0  0
  -21.1073  -13.1373   22.2463 H   0  0  0  0  0  0
  -24.6614  -15.8298   20.5227 H   0  0  0  0  0  0
  -26.2853  -15.6313   20.1046 H   0  0  0  0  0  0
  -26.7067  -32.5530   23.1140 H   0  0  0  0  0  0
  -25.0061  -33.9821   25.0494 H   0  0  0  0  0  0
  -22.6903  -31.3134   21.4143 H   0  0  0  0  0  0
  -23.3766  -35.9630   23.3316 H   0  0  0  0  0  0
  -24.3578  -36.8908   22.2052 H   0  0  0  0  0  0
  -23.7234  -37.6522   23.6637 H   0  0  0  0  0  0
  -26.0391  -31.6010   20.5937 H   0  0  0  0  0  0
  -26.8203  -30.8896   21.9748 H   0  0  0  0  0  0
  -28.0934  -29.1071   21.1424 H   0  0  0  0  0  0
  -25.9807  -25.9639   19.0336 H   0  0  0  0  0  0
  -23.9570  -27.3034   19.0522 H   0  0  0  0  0  0
  -23.7110  -30.6144   19.4062 H   0  0  0  0  0  0
  -22.7288  -29.2585   19.8661 H   0  0  0  0  0  0
  -25.1291  -36.1987   25.0833 H   0  0  0  0  0  0
  -20.9979  -28.3192   24.1451 H   0  0  0  0  0  0
  -20.5674  -26.2239   23.3579 H   0  0  0  0  0  0
  -21.6633  -26.7429   22.1200 H   0  0  0  0  0  0
  -19.6898  -25.6302   21.1227 H   0  0  0  0  0  0
  -19.6711  -27.3203   20.6744 H   0  0  0  0  0  0
  -17.4198  -26.6689   21.4025 H   0  0  0  0  0  0
  -18.0327  -26.0076   22.9017 H   0  0  0  0  0  0
  -19.7915  -30.7268   24.2290 H   0  0  0  0  0  0
  -17.4996  -31.6276   24.5151 H   0  0  0  0  0  0
  -15.5353  -30.2990   23.7635 H   0  0  0  0  0  0
  -15.8665  -28.0827   22.7046 H   0  0  0  0  0  0
  -24.5972  -30.6931   25.7821 H   0  0  0  0  0  0
  -24.8849  -32.2791   26.4899 H   0  0  0  0  0  0
  -25.8131  -30.8889   27.0235 H   0  0  0  0  0  0
  -26.2761  -29.6862   24.1113 H   0  0  0  0  0  0
  -27.4084  -29.7246   25.4442 H   0  0  0  0  0  0
  -27.8583  -30.4410   23.9120 H   0  0  0  0  0  0
  -27.2730  -33.3613   26.2042 H   0  0  0  0  0  0
  -28.3900  -32.6798   25.0312 H   0  0  0  0  0  0
  -28.0694  -31.8397   26.5405 H   0  0  0  0  0  0
  -28.2617  -38.0107   24.7525 H   0  0  0  0  0  0
  -28.1072  -36.2645   24.6291 H   0  0  0  0  0  0
  -27.2297  -37.1460   25.8872 H   0  0  0  0  0  0
  -20.9212  -29.8793   21.7013 H   0  0  0  0  0  0
  -26.0191  -38.2882   24.1427 H   0  0  0  0  0  0
  -27.5057  -20.7795   20.8804 H   0  0  0  0  0  0
  -27.5072  -18.3239   21.0177 H   0  0  0  0  0  0
  -30.6063  -20.9195   23.8799 H   0  0  0  0  0  0
  -27.2680  -24.7115   21.4488 H   0  0  0  0  0  0
  -29.8285  -23.1702   20.7767 H   0  0  0  0  0  0
  -30.7947  -15.1275   23.9419 H   0  0  0  0  0  0
  -30.1299  -13.6413   23.3243 H   0  0  0  0  0  0
  -29.2166  -14.5727   24.4904 H   0  0  0  0  0  0
  -26.5399  -22.3987   22.3682 H   0  0  0  0  0  0
  -27.0185  -23.7315   23.4141 H   0  0  0  0  0  0
  -27.1076  -22.0869   24.0004 H   0  0  0  0  0  0
  -30.6872  -23.1234   23.4192 H   0  0  0  0  0  0
  -29.4832  -22.7532   24.6571 H   0  0  0  0  0  0
  -29.4305  -24.2762   23.7990 H   0  0  0  0  0  0
  -29.2775  -15.4821   29.2031 H   0  0  0  0  0  0
  -30.9445  -15.3129   28.6563 H   0  0  0  0  0  0
  -29.6063  -14.9584   27.5616 H   0  0  0  0  0  0
  -29.5775  -17.8328   29.8413 H   0  0  0  0  0  0
  -30.1889  -19.0098   28.6885 H   0  0  0  0  0  0
  -31.2789  -17.8007   29.3816 H   0  0  0  0  0  0
  -27.5162  -16.7674   22.7847 H   0  0  0  0  0  0
  -28.5794  -16.7763   24.0851 H   0  0  0  0  0  0
  -31.7900  -18.8756   24.4123 H   0  0  0  0  0  0
  -31.0873  -17.3370   24.0473 H   0  0  0  0  0  0
  -27.8477  -25.0860   18.8732 H   0  0  0  0  0  0
  -29.4887  -25.1362   19.3906 H   0  0  0  0  0  0
  -29.1192  -18.1657   25.6768 H   0  0  0  0  0  0
  -30.2823  -19.3255   26.2330 H   0  0  0  0  0  0
  -31.8043  -17.4642   26.9573 H   0  0  0  0  0  0
  -30.7956  -16.3170   26.1248 H   0  0  0  0  0  0
  -28.2703  -14.9719   22.1901 H   0  0  0  0  0  0
  -30.4767  -16.3719   21.1084 H   0  0  0  0  0  0
  -28.9871  -17.2284   27.6399 H   0  0  0  0  0  0
  1 25  1  0  0  0
  1 30  2  0  0  0
  1 91  1  0  0  0
  2  3  1  0  0  0
  2 25  1  0  0  0
  2 93  1  0  0  0
  2 94  1  0  0  0
  3  4  1  0  0  0
  3 95  1  0  0  0
  3 96  1  0  0  0
  4  5  1  0  0  0
  4 97  1  0  0  0
  4 98  1  0  0  0
  5  6  1  0  0  0
  5 26  1  0  0  0
  5 99  1  0  0  0
  6 25  1  0  0  0
  6100  1  0  0  0
  6101  1  0  0  0
  7  8  2  0  0  0
  7 26  1  0  0  0
  7 29  1  0  0  0
  8  9  1  0  0  0
  8 22  1  0  0  0
  9 10  1  0  0  0
  9 27  2  0  0  0
 10 11  2  0  0  0
 10 15  1  0  0  0
 11 12  1  0  0  0
 11102  1  0  0  0
 12 13  2  0  0  0
 12103  1  0  0  0
 13 14  1  0  0  0
 13 31  1  0  0  0
 14 15  2  0  0  0
 14104  1  0  0  0
 15105  1  0  0  0
 16 17  2  0  0  0
 16 21  1  0  0  0
 16 31  1  0  0  0
 17 18  1  0  0  0
 17106  1  0  0  0
 18 19  2  0  0  0
 18107  1  0  0  0
 19 20  1  0  0  0
 19 24  1  0  0  0
 20 21  2  0  0  0
 20108  1  0  0  0
 21 23  1  0  0  0
 22 28  1  0  0  0
 22 32  2  0  0  0
 26 27  1  0  0  0
 28109  1  0  0  0
 28110  1  0  0  0
 29111  1  0  0  0
 29112  1  0  0  0
 33 34  1  0  0  0
 33 66  1  0  0  0
 33 70  2  0  0  0
 34 36  1  0  0  0
 34 59  1  0  0  0
 34113  1  0  0  0
 35 44  2  0  0  0
 35 45  1  0  0  0
 35 68  1  0  0  0
 36 56  1  0  0  0
 36114  1  0  0  0
 37 39  1  0  0  0
 37 47  1  0  0  0
 37 66  1  0  0  0
 37115  1  0  0  0
 38 43  2  0  0  0
 38 46  1  0  0  0
 38 47  1  0  0  0
 39 64  1  0  0  0
 39 67  2  0  0  0
 40 52  1  0  0  0
 40 53  2  0  0  0
 40 58  1  0  0  0
 41116  1  0  0  0
 41117  1  0  0  0
 41118  1  0  0  0
 41 48  1  0  0  0
 42 43  1  0  0  0
 42 66  1  0  0  0
 42119  1  0  0  0
 42120  1  0  0  0
 43 44  1  0  0  0
 44121  1  0  0  0
 45 46  2  0  0  0
 45122  1  0  0  0
 46123  1  0  0  0
 47124  1  0  0  0
 47125  1  0  0  0
 48 56  1  0  0  0
 48 65  1  0  0  0
 48126  1  0  0  0
 49 50  1  0  0  0
 49 53  1  0  0  0
 49 64  1  0  0  0
 49127  1  0  0  0
 50 51  1  0  0  0
 50128  1  0  0  0
 50129  1  0  0  0
 51 52  1  0  0  0
 51130  1  0  0  0
 51131  1  0  0  0
 52132  1  0  0  0
 52133  1  0  0  0
 53 54  1  0  0  0
 54 55  2  0  0  0
 54134  1  0  0  0
 55 57  1  0  0  0
 55135  1  0  0  0
 56 69  2  0  0  0
 57 58  2  0  0  0
 57136  1  0  0  0
 58137  1  0  0  0
 59 60  1  0  0  0
 59 61  1  0  0  0
 59 62  1  0  0  0
 60138  1  0  0  0
 60139  1  0  0  0
 60140  1  0  0  0
 61141  1  0  0  0
 61142  1  0  0  0
 61143  1  0  0  0
 62144  1  0  0  0
 62145  1  0  0  0
 62146  1  0  0  0
 63 65  1  0  0  0
 63147  1  0  0  0
 63148  1  0  0  0
 63149  1  0  0  0
 64150  1  0  0  0
 65151  1  0  0  0
 68 86  1  0  0  0
 71 72  2  0  0  0
 71 74  1  0  0  0
 71152  1  0  0  0
 72 75  1  0  0  0
 72153  1  0  0  0
 73 74  2  0  0  0
 73 76  1  0  0  0
 73154  1  0  0  0
 74 90  1  0  0  0
 75 76  2  0  0  0
 75 84  1  0  0  0
 76 85  1  0  0  0
 77 78  2  0  0  0
 77 86  1  0  0  0
 77155  1  0  0  0
 78 90  1  0  0  0
 78156  1  0  0  0
 79157  1  0  0  0
 79158  1  0  0  0
 79159  1  0  0  0
 79 89  1  0  0  0
 80160  1  0  0  0
 80161  1  0  0  0
 80162  1  0  0  0
 80 90  1  0  0  0
 81 90  1  0  0  0
 81163  1  0  0  0
 81164  1  0  0  0
 81165  1  0  0  0
 82166  1  0  0  0
 82167  1  0  0  0
 82168  1  0  0  0
 82 92  1  0  0  0
 83 92  1  0  0  0
 83169  1  0  0  0
 83170  1  0  0  0
 83171  1  0  0  0
 84 89  1  0  0  0
 84172  1  0  0  0
 84173  1  0  0  0
 85 87  1  0  0  0
 85174  1  0  0  0
 85175  1  0  0  0
 86176  1  0  0  0
 86177  1  0  0  0
 87 88  1  0  0  0
 87178  1  0  0  0
 87179  1  0  0  0
 88 92  1  0  0  0
 88180  1  0  0  0
 88181  1  0  0  0
 89 91  1  0  0  0
 89182  1  0  0  0
 91183  1  0  0  0
 92184  1  0  0  0
M  CHG  1  92   1
M  ISO  4   1 100  68 101  86 101  91 100
M  END
> <chiral flag>
0

> <version>
0

> <s_m_source_file>
/data/baiqing/PycharmProjects/Reinvent-master-3.2/result/LINK_invent/BTK/process_docking_weight1_custom_sum_contain_oxygen_bond_distance_aromatic_linkinvent_7_9_3/rearranged_h_0104.sdf

> <i_m_source_file_index>
97

> <r_mmod_Potential_Energy-OPLS-2005>
-51.7923889160156

> <r_mmod_Stretch_Energy-OPLS-2005>
45.9765663146973

> <r_mmod_Bend_Energy-OPLS-2005>
174.312026977539

> <r_mmod_Torsional_Energy-OPLS-2005>
273.222473144531

> <r_mmod_Improper_Torsional_Energy-OPLS-2005>
10.9761419296265

> <r_mmod_Van_der_Waal_Energy-OPLS-2005>
172.490341186523

> <r_mmod_Electrostatic_Energy-OPLS-2005>
-299.991455078125

> <r_mmod_Solvation_Energy-OPLS-2005>
-443.356018066406

> <b_mmod_Minimization_Converged-OPLS-2005>
0

> <r_mmod_RMS_Derivative-OPLS-2005>
3.5089213848114

$$$$
