0
                    3D
 Structure written by MMmdl.
163171  0  0  1  0            999 V2000
  -30.6342  -14.7421   20.4792 C   0  0  0  0  0  0
  -30.4331  -12.4646   19.4707 C   0  0  0  0  0  0
  -29.5097  -12.5089   18.2346 C   0  0  0  0  0  0
  -28.0373  -12.3319   18.6506 C   0  0  0  0  0  0
  -27.6425  -13.2337   19.8509 C   0  0  2  0  0  0
  -28.6879  -13.1783   20.9868 C   0  0  0  0  0  0
  -25.2519  -13.8207   20.5699 C   0  0  0  0  0  0
  -24.1811  -13.0450   20.9214 C   0  0  0  0  0  0
  -24.6404  -11.6924   20.8749 C   0  0  0  0  0  0
  -23.9077  -10.4297   21.0414 C   0  0  0  0  0  0
  -24.3637   -9.4213   21.9187 C   0  0  0  0  0  0
  -23.6308   -8.2252   22.0757 C   0  0  0  0  0  0
  -22.4287   -8.0288   21.3551 C   0  0  0  0  0  0
  -21.9924   -9.0256   20.4648 C   0  0  0  0  0  0
  -22.7253  -10.2134   20.3060 C   0  0  0  0  0  0
  -21.6864   -6.0743   22.5273 C   0  0  0  0  0  0
  -21.4011   -6.5645   23.8201 C   0  0  0  0  0  0
  -21.3655   -5.6799   24.9166 C   0  0  0  0  0  0
  -21.6054   -4.3061   24.7221 C   0  0  0  0  0  0
  -21.8820   -3.8153   23.4339 C   0  0  0  0  0  0
  -21.9198   -4.6971   22.3399 C   0  0  0  0  0  0
  -22.7826  -13.5223   21.1861 C   0  0  0  0  0  0
  -22.1663   -4.2157   21.0976 F   0  0  0  0  0  0
  -21.5635   -3.4545   25.7733 F   0  0  0  0  0  0
  -29.9875  -13.5289   20.4014 N   0  0  0  0  0  0
  -26.2946  -12.9410   20.3286 N   0  0  0  0  0  0
  -25.9340  -11.6548   20.5759 N   0  0  0  0  0  0
  -22.0475  -12.8193   22.0403 N   0  0  0  0  0  0
  -25.4207  -15.1933   20.4102 N   0  0  0  0  0  0
  -31.8236  -14.8183   20.1607 O   0  0  0  0  0  0
  -21.6650   -6.8887   21.4238 O   0  0  0  0  0  0
  -22.3499  -14.5521   20.6708 O   0  0  0  0  0  0
  -24.6320  -31.8565   23.2007 C   0  0  0  0  0  0
  -25.9146  -32.4761   23.8355 C   0  0  1  0  0  0
  -27.2122  -27.2464   20.1241 C   0  0  0  0  0  0
  -25.5940  -33.8568   24.2263 N   0  0  0  0  0  0
  -23.4283  -30.4812   21.5449 C   0  0  2  0  0  0
  -24.8736  -28.9309   20.1087 C   0  0  0  0  0  0
  -22.7504  -29.4612   22.4918 C   0  0  0  0  0  0
  -18.0295  -28.1391   22.8485 C   0  0  0  0  0  0
  -24.1485  -36.7275   23.2641 C   0  0  0  0  0  0
  -25.9783  -30.7585   21.3912 C   0  0  0  0  0  0
  -26.0453  -29.3837   20.7258 C   0  0  0  0  0  0
  -27.2131  -28.5523   20.7285 C   0  0  0  0  0  0
  -26.0181  -26.8775   19.4598 C   0  0  0  0  0  0
  -24.8663  -27.6859   19.4657 C   0  0  0  0  0  0
  -23.6460  -29.8200   20.1595 C   0  0  0  0  0  0
  -25.4120  -36.3079   24.0325 C   0  0  1  0  0  0
  -20.5900  -28.3711   23.1264 C   0  0  2  0  0  0
  -20.6790  -26.9428   22.5411 C   0  0  0  0  0  0
  -19.5767  -26.6380   21.5221 C   0  0  0  0  0  0
  -18.1942  -26.7933   22.1623 C   0  0  0  0  0  0
  -19.1550  -28.8869   23.2868 C   0  0  0  0  0  0
  -18.9470  -30.1471   23.8893 C   0  0  0  0  0  0
  -17.6470  -30.6597   24.0558 C   0  0  0  0  0  0
  -25.9064  -34.9447   23.5095 C   0  0  0  0  0  0
  -16.5359  -29.9090   23.6335 C   0  0  0  0  0  0
  -16.7281  -28.6500   23.0365 C   0  0  0  0  0  0
  -26.4488  -31.6615   25.0773 C   0  0  0  0  0  0
  -25.3679  -31.3791   26.1469 C   0  0  0  0  0  0
  -27.0365  -30.3026   24.6333 C   0  0  0  0  0  0
  -27.6024  -32.4383   25.7547 C   0  0  0  0  0  0
  -27.5582  -37.1801   24.8458 C   0  0  0  0  0  0
  -21.4212  -29.3047   22.3643 N   0  0  0  0  0  0
  -26.4293  -37.3782   23.9403 N   0  0  0  0  0  0
  -24.6980  -31.0511   22.1003 N   0  0  0  0  0  0
  -23.4197  -28.8158   23.3029 O   0  0  0  0  0  0
  -28.3021  -26.3399   20.2288 O   0  0  0  0  0  0
  -26.5639  -34.8916   22.4670 O   0  0  0  0  0  0
  -23.5468  -32.1403   23.7285 O   0  0  0  0  0  0
  -29.6485  -19.1947   18.3441 C   0  0  0  0  0  0
  -29.1509  -20.1090   17.3935 C   0  0  0  0  0  0
  -29.3784  -19.6450   19.6055 C   0  0  0  0  0  0
  -28.5852  -21.1345   18.0924 C   0  0  0  0  0  0
  -29.1534  -19.9199   15.8986 C   0  0  0  0  0  0
  -27.6879  -22.1769   17.5012 C   0  0  0  0  0  0
  -28.7355  -25.1634   18.2498 C   0  0  0  0  0  0
  -29.5409  -18.6862   20.8315 C   0  0  0  0  0  0
  -29.0622  -23.6803   20.3494 C   0  0  0  0  0  0
  -28.5345  -22.1206   20.4602 C   0  0  0  0  0  0
  -30.4530  -17.3335   20.6930 C   0  0  0  0  0  0
  -28.2422  -24.9292   19.6880 C   0  0  1  0  0  0
  -28.8929  -21.0178   19.4577 N   0  0  0  0  0  0
  -29.9081  -15.9012   20.7145 N   0  0  0  0  0  0
  -31.4716  -12.5922   19.1602 H   0  0  0  0  0  0
  -30.3860  -11.4916   19.9591 H   0  0  0  0  0  0
  -29.7930  -11.7328   17.5227 H   0  0  0  0  0  0
  -29.6327  -13.4619   17.7169 H   0  0  0  0  0  0
  -27.8952  -11.2826   18.9136 H   0  0  0  0  0  0
  -27.3812  -12.5250   17.8016 H   0  0  0  0  0  0
  -27.6340  -14.2541   19.4669 H   0  0  0  0  0  0
  -28.7267  -12.1845   21.4351 H   0  0  0  0  0  0
  -28.4235  -13.8687   21.7894 H   0  0  0  0  0  0
  -25.2786   -9.5696   22.4756 H   0  0  0  0  0  0
  -24.0031   -7.4642   22.7474 H   0  0  0  0  0  0
  -21.0862   -8.8764   19.8941 H   0  0  0  0  0  0
  -22.3711  -10.9674   19.6169 H   0  0  0  0  0  0
  -21.1985   -7.6151   23.9700 H   0  0  0  0  0  0
  -21.1482   -6.0534   25.9069 H   0  0  0  0  0  0
  -22.0606   -2.7619   23.2833 H   0  0  0  0  0  0
  -22.4115  -11.9873   22.4810 H   0  0  0  0  0  0
  -21.1081  -13.1188   22.2593 H   0  0  0  0  0  0
  -24.6534  -15.8472   20.5206 H   0  0  0  0  0  0
  -26.2651  -15.6303   20.0625 H   0  0  0  0  0  0
  -26.7210  -32.5380   23.1089 H   0  0  0  0  0  0
  -25.0071  -33.9713   25.0395 H   0  0  0  0  0  0
  -22.7260  -31.3049   21.4016 H   0  0  0  0  0  0
  -23.3768  -35.9586   23.3298 H   0  0  0  0  0  0
  -24.3563  -36.8909   22.2055 H   0  0  0  0  0  0
  -23.7214  -37.6460   23.6677 H   0  0  0  0  0  0
  -26.1376  -31.5230   20.6293 H   0  0  0  0  0  0
  -26.8478  -30.7921   22.0365 H   0  0  0  0  0  0
  -28.1042  -28.8899   21.2389 H   0  0  0  0  0  0
  -25.9205  -25.9411   18.9349 H   0  0  0  0  0  0
  -23.9706  -27.3361   18.9711 H   0  0  0  0  0  0
  -23.7721  -30.5992   19.4072 H   0  0  0  0  0  0
  -22.7625  -29.2577   19.8514 H   0  0  0  0  0  0
  -25.1306  -36.1929   25.0820 H   0  0  0  0  0  0
  -20.9990  -28.3295   24.1386 H   0  0  0  0  0  0
  -20.5710  -26.2324   23.3618 H   0  0  0  0  0  0
  -21.6655  -26.7461   22.1195 H   0  0  0  0  0  0
  -19.6927  -25.6279   21.1278 H   0  0  0  0  0  0
  -19.6706  -27.3171   20.6734 H   0  0  0  0  0  0
  -17.4212  -26.6686   21.4018 H   0  0  0  0  0  0
  -18.0332  -26.0077   22.9023 H   0  0  0  0  0  0
  -19.7946  -30.7286   24.2261 H   0  0  0  0  0  0
  -17.5025  -31.6280   24.5157 H   0  0  0  0  0  0
  -15.5363  -30.2994   23.7669 H   0  0  0  0  0  0
  -15.8674  -28.0816   22.7105 H   0  0  0  0  0  0
  -24.5807  -30.7218   25.7756 H   0  0  0  0  0  0
  -24.8932  -32.2984   26.4914 H   0  0  0  0  0  0
  -25.7940  -30.8906   27.0242 H   0  0  0  0  0  0
  -26.3000  -29.6764   24.1289 H   0  0  0  0  0  0
  -27.3932  -29.7311   25.4911 H   0  0  0  0  0  0
  -27.8921  -30.4282   23.9694 H   0  0  0  0  0  0
  -27.2604  -33.3667   26.2135 H   0  0  0  0  0  0
  -28.3822  -32.6988   25.0379 H   0  0  0  0  0  0
  -28.0720  -31.8527   26.5458 H   0  0  0  0  0  0
  -28.2595  -38.0104   24.7523 H   0  0  0  0  0  0
  -28.1089  -36.2638   24.6273 H   0  0  0  0  0  0
  -27.2300  -37.1431   25.8861 H   0  0  0  0  0  0
  -20.9413  -29.8733   21.6805 H   0  0  0  0  0  0
  -26.0173  -38.2858   24.1401 H   0  0  0  0  0  0
  -30.0756  -18.2293   18.1059 H   0  0  0  0  0  0
  -29.5955  -18.9603   15.6271 H   0  0  0  0  0  0
  -29.7314  -20.7087   15.4164 H   0  0  0  0  0  0
  -28.1379  -19.9484   15.5045 H   0  0  0  0  0  0
  -26.8452  -21.6928   17.0079 H   0  0  0  0  0  0
  -28.1978  -22.7479   16.7268 H   0  0  0  0  0  0
  -27.2570  -22.8465   18.2372 H   0  0  0  0  0  0
  -29.2050  -24.2817   17.8261 H   0  0  0  0  0  0
  -29.5054  -25.9352   18.2225 H   0  0  0  0  0  0
  -27.9274  -25.4828   17.5925 H   0  0  0  0  0  0
  -28.5510  -18.4026   21.1915 H   0  0  0  0  0  0
  -29.9632  -19.2784   21.6446 H   0  0  0  0  0  0
  -30.0896  -23.6816   19.9850 H   0  0  0  0  0  0
  -29.1716  -23.9839   21.3905 H   0  0  0  0  0  0
  -27.4491  -22.1308   20.5644 H   0  0  0  0  0  0
  -28.8877  -21.7490   21.4227 H   0  0  0  0  0  0
  -31.1090  -17.3519   21.5654 H   0  0  0  0  0  0
  -31.1509  -17.4370   19.8639 H   0  0  0  0  0  0
  -27.2144  -24.5768   19.7024 H   0  0  0  0  0  0
  -28.9247  -15.7881   20.9111 H   0  0  0  0  0  0
  1 25  1  0  0  0
  1 30  2  0  0  0
  1 84  1  0  0  0
  2  3  1  0  0  0
  2 25  1  0  0  0
  2 85  1  0  0  0
  2 86  1  0  0  0
  3  4  1  0  0  0
  3 87  1  0  0  0
  3 88  1  0  0  0
  4  5  1  0  0  0
  4 89  1  0  0  0
  4 90  1  0  0  0
  5  6  1  0  0  0
  5 26  1  0  0  0
  5 91  1  0  0  0
  6 25  1  0  0  0
  6 92  1  0  0  0
  6 93  1  0  0  0
  7  8  2  0  0  0
  7 26  1  0  0  0
  7 29  1  0  0  0
  8  9  1  0  0  0
  8 22  1  0  0  0
  9 10  1  0  0  0
  9 27  2  0  0  0
 10 11  2  0  0  0
 10 15  1  0  0  0
 11 12  1  0  0  0
 11 94  1  0  0  0
 12 13  2  0  0  0
 12 95  1  0  0  0
 13 14  1  0  0  0
 13 31  1  0  0  0
 14 15  2  0  0  0
 14 96  1  0  0  0
 15 97  1  0  0  0
 16 17  2  0  0  0
 16 21  1  0  0  0
 16 31  1  0  0  0
 17 18  1  0  0  0
 17 98  1  0  0  0
 18 19  2  0  0  0
 18 99  1  0  0  0
 19 20  1  0  0  0
 19 24  1  0  0  0
 20 21  2  0  0  0
 20100  1  0  0  0
 21 23  1  0  0  0
 22 28  1  0  0  0
 22 32  2  0  0  0
 26 27  1  0  0  0
 28101  1  0  0  0
 28102  1  0  0  0
 29103  1  0  0  0
 29104  1  0  0  0
 33 34  1  0  0  0
 33 66  1  0  0  0
 33 70  2  0  0  0
 34 36  1  0  0  0
 34 59  1  0  0  0
 34105  1  0  0  0
 35 44  2  0  0  0
 35 45  1  0  0  0
 35 68  1  0  0  0
 36 56  1  0  0  0
 36106  1  0  0  0
 37 39  1  0  0  0
 37 47  1  0  0  0
 37 66  1  0  0  0
 37107  1  0  0  0
 38 43  2  0  0  0
 38 46  1  0  0  0
 38 47  1  0  0  0
 39 64  1  0  0  0
 39 67  2  0  0  0
 40 52  1  0  0  0
 40 53  2  0  0  0
 40 58  1  0  0  0
 41108  1  0  0  0
 41109  1  0  0  0
 41110  1  0  0  0
 41 48  1  0  0  0
 42 43  1  0  0  0
 42 66  1  0  0  0
 42111  1  0  0  0
 42112  1  0  0  0
 43 44  1  0  0  0
 44113  1  0  0  0
 45 46  2  0  0  0
 45114  1  0  0  0
 46115  1  0  0  0
 47116  1  0  0  0
 47117  1  0  0  0
 48 56  1  0  0  0
 48 65  1  0  0  0
 48118  1  0  0  0
 49 50  1  0  0  0
 49 53  1  0  0  0
 49 64  1  0  0  0
 49119  1  0  0  0
 50 51  1  0  0  0
 50120  1  0  0  0
 50121  1  0  0  0
 51 52  1  0  0  0
 51122  1  0  0  0
 51123  1  0  0  0
 52124  1  0  0  0
 52125  1  0  0  0
 53 54  1  0  0  0
 54 55  2  0  0  0
 54126  1  0  0  0
 55 57  1  0  0  0
 55127  1  0  0  0
 56 69  2  0  0  0
 57 58  2  0  0  0
 57128  1  0  0  0
 58129  1  0  0  0
 59 60  1  0  0  0
 59 61  1  0  0  0
 59 62  1  0  0  0
 60130  1  0  0  0
 60131  1  0  0  0
 60132  1  0  0  0
 61133  1  0  0  0
 61134  1  0  0  0
 61135  1  0  0  0
 62136  1  0  0  0
 62137  1  0  0  0
 62138  1  0  0  0
 63 65  1  0  0  0
 63139  1  0  0  0
 63140  1  0  0  0
 63141  1  0  0  0
 64142  1  0  0  0
 65143  1  0  0  0
 68 82  1  0  0  0
 71 72  1  0  0  0
 71 73  2  0  0  0
 71144  1  0  0  0
 72 74  2  0  0  0
 72 75  1  0  0  0
 73 78  1  0  0  0
 73 83  1  0  0  0
 74 76  1  0  0  0
 74 83  1  0  0  0
 75145  1  0  0  0
 75146  1  0  0  0
 75147  1  0  0  0
 76148  1  0  0  0
 76149  1  0  0  0
 76150  1  0  0  0
 77151  1  0  0  0
 77152  1  0  0  0
 77153  1  0  0  0
 77 82  1  0  0  0
 78 81  1  0  0  0
 78154  1  0  0  0
 78155  1  0  0  0
 79 80  1  0  0  0
 79 82  1  0  0  0
 79156  1  0  0  0
 79157  1  0  0  0
 80 83  1  0  0  0
 80158  1  0  0  0
 80159  1  0  0  0
 81 84  1  0  0  0
 81160  1  0  0  0
 81161  1  0  0  0
 82162  1  0  0  0
 84163  1  0  0  0
M  ISO  4   1 100  68 101  82 101  84 100
M  END
> <chiral flag>
0

> <version>
0

> <s_m_source_file>
/data/baiqing/PycharmProjects/Reinvent-master-3.2/result/LINK_invent/BTK/process_docking_weight1_custom_sum_contain_oxygen_bond_distance_aromatic_linkinvent_7_9_3/rearranged_h_0092.sdf

> <i_m_source_file_index>
1

> <r_mmod_Potential_Energy-OPLS-2005>
227.721145629883

> <r_mmod_Stretch_Energy-OPLS-2005>
147.957748413086

> <r_mmod_Bend_Energy-OPLS-2005>
234.256149291992

> <r_mmod_Torsional_Energy-OPLS-2005>
264.569030761719

> <r_mmod_Improper_Torsional_Energy-OPLS-2005>
6.16117238998413

> <r_mmod_Van_der_Waal_Energy-OPLS-2005>
124.774169921875

> <r_mmod_Electrostatic_Energy-OPLS-2005>
-427.648559570312

> <r_mmod_Solvation_Energy-OPLS-2005>
-213.967971801758

> <b_mmod_Minimization_Converged-OPLS-2005>
0

> <r_mmod_RMS_Derivative-OPLS-2005>
1.65745902061462

$$$$
1
                    3D
 Structure written by MMmdl.
176184  0  0  1  0            999 V2000
  -30.7700  -14.4734   20.3424 C   0  0  0  0  0  0
  -30.4236  -12.2729   19.3599 C   0  0  0  0  0  0
  -29.4739  -12.4380   18.1585 C   0  0  0  0  0  0
  -27.9968  -12.3337   18.5910 C   0  0  0  0  0  0
  -27.6578  -13.1830   19.8421 C   0  0  2  0  0  0
  -28.7437  -13.0704   20.9429 C   0  0  0  0  0  0
  -25.2643  -13.8046   20.5681 C   0  0  0  0  0  0
  -24.1900  -13.0324   20.9194 C   0  0  0  0  0  0
  -24.6467  -11.6817   20.8796 C   0  0  0  0  0  0
  -23.9125  -10.4200   21.0434 C   0  0  0  0  0  0
  -24.3658   -9.4083   21.9190 C   0  0  0  0  0  0
  -23.6268   -8.2161   22.0772 C   0  0  0  0  0  0
  -22.4238   -8.0260   21.3574 C   0  0  0  0  0  0
  -21.9915   -9.0252   20.4678 C   0  0  0  0  0  0
  -22.7310  -10.2096   20.3057 C   0  0  0  0  0  0
  -21.6843   -6.0714   22.5295 C   0  0  0  0  0  0
  -21.3987   -6.5615   23.8240 C   0  0  0  0  0  0
  -21.3599   -5.6791   24.9197 C   0  0  0  0  0  0
  -21.6057   -4.3050   24.7262 C   0  0  0  0  0  0
  -21.8831   -3.8119   23.4372 C   0  0  0  0  0  0
  -21.9193   -4.6927   22.3430 C   0  0  0  0  0  0
  -22.7927  -13.5196   21.1727 C   0  0  0  0  0  0
  -22.1684   -4.2129   21.1006 F   0  0  0  0  0  0
  -21.5577   -3.4531   25.7751 F   0  0  0  0  0  0
  -30.0514  -13.3173   20.3214 N   0  0  0  0  0  0
  -26.3067  -12.9172   20.3342 N   0  0  0  0  0  0
  -25.9387  -11.6373   20.5876 N   0  0  0  0  0  0
  -22.0450  -12.8261   22.0249 N   0  0  0  0  0  0
  -25.4273  -15.1776   20.4131 N   0  0  0  0  0  0
  -31.9968  -14.4633   20.4033 O   0  0  0  0  0  0
  -21.6591   -6.8854   21.4267 O   0  0  0  0  0  0
  -22.3671  -14.5498   20.6538 O   0  0  0  0  0  0
  -24.6218  -31.8696   23.2054 C   0  0  0  0  0  0
  -25.9091  -32.4862   23.8341 C   0  0  1  0  0  0
  -27.2291  -27.4274   20.0737 C   0  0  0  0  0  0
  -25.5972  -33.8638   24.2344 N   0  0  0  0  0  0
  -23.4101  -30.5039   21.5396 C   0  0  2  0  0  0
  -24.8487  -28.9637   20.1046 C   0  0  0  0  0  0
  -22.7407  -29.4771   22.4863 C   0  0  0  0  0  0
  -18.0323  -28.1416   22.8488 C   0  0  0  0  0  0
  -24.1499  -36.7265   23.2658 C   0  0  0  0  0  0
  -25.9389  -30.8352   21.3498 C   0  0  0  0  0  0
  -26.0078  -29.4638   20.7085 C   0  0  0  0  0  0
  -27.1980  -28.7007   20.6925 C   0  0  0  0  0  0
  -26.0430  -26.9495   19.4659 C   0  0  0  0  0  0
  -24.8629  -27.7083   19.4790 C   0  0  0  0  0  0
  -23.6168  -29.8377   20.1525 C   0  0  0  0  0  0
  -25.4119  -36.3145   24.0407 C   0  0  1  0  0  0
  -20.5906  -28.3758   23.1255 C   0  0  2  0  0  0
  -20.6799  -26.9502   22.5377 C   0  0  0  0  0  0
  -19.5802  -26.6421   21.5174 C   0  0  0  0  0  0
  -18.1993  -26.7978   22.1592 C   0  0  0  0  0  0
  -19.1571  -28.8894   23.2895 C   0  0  0  0  0  0
  -18.9499  -30.1467   23.8969 C   0  0  0  0  0  0
  -17.6514  -30.6638   24.0587 C   0  0  0  0  0  0
  -25.9036  -34.9510   23.5156 C   0  0  0  0  0  0
  -16.5396  -29.9157   23.6307 C   0  0  0  0  0  0
  -16.7309  -28.6539   23.0376 C   0  0  0  0  0  0
  -26.4484  -31.6633   25.0661 C   0  0  0  0  0  0
  -25.3724  -31.3710   26.1380 C   0  0  0  0  0  0
  -27.0248  -30.3103   24.5941 C   0  0  0  0  0  0
  -27.6135  -32.4264   25.7376 C   0  0  0  0  0  0
  -27.5604  -37.1800   24.8503 C   0  0  0  0  0  0
  -21.4144  -29.3098   22.3583 N   0  0  0  0  0  0
  -26.4305  -37.3832   23.9484 N   0  0  0  0  0  0
  -24.6775  -31.0830   22.0907 N   0  0  0  0  0  0
  -23.4208  -28.8247   23.2863 O   0  0  0  0  0  0
  -28.4051  -26.7000   20.0715 O   0  0  0  0  0  0
  -26.5536  -34.8962   22.4672 O   0  0  0  0  0  0
  -23.5385  -32.1378   23.7444 O   0  0  0  0  0  0
  -30.0241  -20.8379   20.4054 C   0  0  0  0  0  0
  -29.5362  -19.8025   21.2308 C   0  0  0  0  0  0
  -28.4824  -20.1083   22.1339 C   0  0  0  0  0  0
  -29.4345  -22.1141   20.4758 C   0  0  0  0  0  0
  -27.9915  -21.4436   22.1781 C   0  0  0  0  0  0
  -27.8607  -18.9863   22.9675 C   0  0  0  0  0  0
  -27.1462  -23.0393   26.9094 C   0  0  0  0  0  0
  -31.0268  -15.8265   18.3196 C   0  0  0  0  0  0
  -30.0244  -18.3669   20.9936 C   0  0  0  0  0  0
  -29.7457  -23.1720   19.4178 C   0  0  0  0  0  0
  -26.8991  -21.9289   23.1368 C   0  0  0  0  0  0
  -26.4638  -22.7982   25.5514 C   0  0  0  0  0  0
  -29.2752  -17.7739   19.7946 C   0  0  0  0  0  0
  -29.7229  -24.6462   19.8838 C   0  0  0  0  0  0
  -27.4874  -22.5401   24.4267 C   0  0  0  0  0  0
  -29.0737  -16.2434   19.7639 C   0  0  0  0  0  0
  -28.3543  -25.3263   19.6551 C   0  0  0  0  0  0
  -28.4514  -22.4053   21.3500 N   0  0  0  0  0  0
  -30.2653  -15.4285   19.5161 N   0  0  0  0  0  0
  -31.4600  -12.3537   19.0246 H   0  0  0  0  0  0
  -30.3197  -11.2756   19.7932 H   0  0  0  0  0  0
  -29.6861  -11.6807   17.4052 H   0  0  0  0  0  0
  -29.6482  -13.3948   17.6680 H   0  0  0  0  0  0
  -27.7740  -11.2832   18.7700 H   0  0  0  0  0  0
  -27.3473  -12.6346   17.7681 H   0  0  0  0  0  0
  -27.6431  -14.1951   19.4697 H   0  0  0  0  0  0
  -28.7345  -12.0754   21.3897 H   0  0  0  0  0  0
  -28.5688  -13.7817   21.7500 H   0  0  0  0  0  0
  -25.2794   -9.5482   22.4802 H   0  0  0  0  0  0
  -23.9919   -7.4549   22.7535 H   0  0  0  0  0  0
  -21.0792   -8.8858   19.9045 H   0  0  0  0  0  0
  -22.3802  -10.9668   19.6198 H   0  0  0  0  0  0
  -21.1983   -7.6146   23.9722 H   0  0  0  0  0  0
  -21.1393   -6.0514   25.9126 H   0  0  0  0  0  0
  -22.0645   -2.7574   23.2915 H   0  0  0  0  0  0
  -22.4040  -12.0011   22.4813 H   0  0  0  0  0  0
  -21.1086  -13.1385   22.2371 H   0  0  0  0  0  0
  -24.6409  -15.8107   20.5164 H   0  0  0  0  0  0
  -26.2894  -15.6341   20.1400 H   0  0  0  0  0  0
  -26.7144  -32.5585   23.1087 H   0  0  0  0  0  0
  -25.0374  -33.9762   25.0660 H   0  0  0  0  0  0
  -22.7047  -31.3285   21.3975 H   0  0  0  0  0  0
  -23.3808  -35.9552   23.3337 H   0  0  0  0  0  0
  -24.3621  -36.8801   22.2065 H   0  0  0  0  0  0
  -23.7139  -37.6461   23.6563 H   0  0  0  0  0  0
  -26.0385  -31.5925   20.5712 H   0  0  0  0  0  0
  -26.8336  -30.9009   21.9572 H   0  0  0  0  0  0
  -28.0894  -29.0862   21.1596 H   0  0  0  0  0  0
  -26.0025  -25.9977   18.9604 H   0  0  0  0  0  0
  -23.9808  -27.3219   18.9918 H   0  0  0  0  0  0
  -23.7379  -30.6140   19.3937 H   0  0  0  0  0  0
  -22.7389  -29.2703   19.8476 H   0  0  0  0  0  0
  -25.1280  -36.2037   25.0905 H   0  0  0  0  0  0
  -21.0060  -28.3312   24.1356 H   0  0  0  0  0  0
  -20.5723  -26.2379   23.3565 H   0  0  0  0  0  0
  -21.6678  -26.7533   22.1207 H   0  0  0  0  0  0
  -19.6994  -25.6302   21.1292 H   0  0  0  0  0  0
  -19.6794  -27.3169   20.6654 H   0  0  0  0  0  0
  -17.4268  -26.6756   21.3989 H   0  0  0  0  0  0
  -18.0405  -26.0120   22.8981 H   0  0  0  0  0  0
  -19.7982  -30.7227   24.2433 H   0  0  0  0  0  0
  -17.5089  -31.6339   24.5159 H   0  0  0  0  0  0
  -15.5407  -30.3123   23.7574 H   0  0  0  0  0  0
  -15.8680  -28.0845   22.7120 H   0  0  0  0  0  0
  -24.5965  -30.7042   25.7612 H   0  0  0  0  0  0
  -24.8833  -32.2842   26.4782 H   0  0  0  0  0  0
  -25.8050  -30.8863   27.0145 H   0  0  0  0  0  0
  -26.2689  -29.6906   24.1109 H   0  0  0  0  0  0
  -27.4208  -29.7329   25.4293 H   0  0  0  0  0  0
  -27.8463  -30.4519   23.8922 H   0  0  0  0  0  0
  -27.2938  -33.3665   26.1872 H   0  0  0  0  0  0
  -28.3948  -32.6611   25.0138 H   0  0  0  0  0  0
  -28.0767  -31.8379   26.5310 H   0  0  0  0  0  0
  -28.2646  -38.0069   24.7544 H   0  0  0  0  0  0
  -28.1065  -36.2609   24.6318 H   0  0  0  0  0  0
  -27.2325  -37.1409   25.8900 H   0  0  0  0  0  0
  -20.9266  -29.8854   21.6847 H   0  0  0  0  0  0
  -26.0224  -38.2958   24.1396 H   0  0  0  0  0  0
  -30.7809  -20.6295   19.6606 H   0  0  0  0  0  0
  -28.6217  -18.4169   23.4939 H   0  0  0  0  0  0
  -27.3284  -18.3019   22.3064 H   0  0  0  0  0  0
  -27.1632  -19.3289   23.7246 H   0  0  0  0  0  0
  -26.4085  -23.2339   27.6932 H   0  0  0  0  0  0
  -27.8276  -23.8877   26.8719 H   0  0  0  0  0  0
  -27.7268  -22.1699   27.2278 H   0  0  0  0  0  0
  -30.4087  -16.3687   17.6013 H   0  0  0  0  0  0
  -31.4206  -14.9549   17.7931 H   0  0  0  0  0  0
  -31.8762  -16.4539   18.5931 H   0  0  0  0  0  0
  -29.8931  -17.7414   21.8772 H   0  0  0  0  0  0
  -31.0999  -18.3470   20.8072 H   0  0  0  0  0  0
  -29.0666  -23.0350   18.5749 H   0  0  0  0  0  0
  -30.7323  -22.9464   19.0188 H   0  0  0  0  0  0
  -26.2009  -21.1288   23.3746 H   0  0  0  0  0  0
  -26.2815  -22.6705   22.6258 H   0  0  0  0  0  0
  -25.8361  -23.6518   25.2881 H   0  0  0  0  0  0
  -25.7943  -21.9428   25.6463 H   0  0  0  0  0  0
  -29.7078  -18.1657   18.8715 H   0  0  0  0  0  0
  -28.2645  -18.1803   19.8159 H   0  0  0  0  0  0
  -30.4639  -25.1967   19.3020 H   0  0  0  0  0  0
  -30.0493  -24.7320   20.9188 H   0  0  0  0  0  0
  -28.0249  -23.4575   24.1769 H   0  0  0  0  0  0
  -28.2393  -21.8447   24.8037 H   0  0  0  0  0  0
  -28.5713  -15.9199   20.6749 H   0  0  0  0  0  0
  -28.3974  -16.0633   18.9302 H   0  0  0  0  0  0
  -27.5738  -24.7861   20.1975 H   0  0  0  0  0  0
  -28.0981  -25.2722   18.5943 H   0  0  0  0  0  0
  1 25  1  0  0  0
  1 30  2  0  0  0
  1 89  1  0  0  0
  2  3  1  0  0  0
  2 25  1  0  0  0
  2 90  1  0  0  0
  2 91  1  0  0  0
  3  4  1  0  0  0
  3 92  1  0  0  0
  3 93  1  0  0  0
  4  5  1  0  0  0
  4 94  1  0  0  0
  4 95  1  0  0  0
  5  6  1  0  0  0
  5 26  1  0  0  0
  5 96  1  0  0  0
  6 25  1  0  0  0
  6 97  1  0  0  0
  6 98  1  0  0  0
  7  8  2  0  0  0
  7 26  1  0  0  0
  7 29  1  0  0  0
  8  9  1  0  0  0
  8 22  1  0  0  0
  9 10  1  0  0  0
  9 27  2  0  0  0
 10 11  2  0  0  0
 10 15  1  0  0  0
 11 12  1  0  0  0
 11 99  1  0  0  0
 12 13  2  0  0  0
 12100  1  0  0  0
 13 14  1  0  0  0
 13 31  1  0  0  0
 14 15  2  0  0  0
 14101  1  0  0  0
 15102  1  0  0  0
 16 17  2  0  0  0
 16 21  1  0  0  0
 16 31  1  0  0  0
 17 18  1  0  0  0
 17103  1  0  0  0
 18 19  2  0  0  0
 18104  1  0  0  0
 19 20  1  0  0  0
 19 24  1  0  0  0
 20 21  2  0  0  0
 20105  1  0  0  0
 21 23  1  0  0  0
 22 28  1  0  0  0
 22 32  2  0  0  0
 26 27  1  0  0  0
 28106  1  0  0  0
 28107  1  0  0  0
 29108  1  0  0  0
 29109  1  0  0  0
 33 34  1  0  0  0
 33 66  1  0  0  0
 33 70  2  0  0  0
 34 36  1  0  0  0
 34 59  1  0  0  0
 34110  1  0  0  0
 35 44  2  0  0  0
 35 45  1  0  0  0
 35 68  1  0  0  0
 36 56  1  0  0  0
 36111  1  0  0  0
 37 39  1  0  0  0
 37 47  1  0  0  0
 37 66  1  0  0  0
 37112  1  0  0  0
 38 43  2  0  0  0
 38 46  1  0  0  0
 38 47  1  0  0  0
 39 64  1  0  0  0
 39 67  2  0  0  0
 40 52  1  0  0  0
 40 53  2  0  0  0
 40 58  1  0  0  0
 41113  1  0  0  0
 41114  1  0  0  0
 41115  1  0  0  0
 41 48  1  0  0  0
 42 43  1  0  0  0
 42 66  1  0  0  0
 42116  1  0  0  0
 42117  1  0  0  0
 43 44  1  0  0  0
 44118  1  0  0  0
 45 46  2  0  0  0
 45119  1  0  0  0
 46120  1  0  0  0
 47121  1  0  0  0
 47122  1  0  0  0
 48 56  1  0  0  0
 48 65  1  0  0  0
 48123  1  0  0  0
 49 50  1  0  0  0
 49 53  1  0  0  0
 49 64  1  0  0  0
 49124  1  0  0  0
 50 51  1  0  0  0
 50125  1  0  0  0
 50126  1  0  0  0
 51 52  1  0  0  0
 51127  1  0  0  0
 51128  1  0  0  0
 52129  1  0  0  0
 52130  1  0  0  0
 53 54  1  0  0  0
 54 55  2  0  0  0
 54131  1  0  0  0
 55 57  1  0  0  0
 55132  1  0  0  0
 56 69  2  0  0  0
 57 58  2  0  0  0
 57133  1  0  0  0
 58134  1  0  0  0
 59 60  1  0  0  0
 59 61  1  0  0  0
 59 62  1  0  0  0
 60135  1  0  0  0
 60136  1  0  0  0
 60137  1  0  0  0
 61138  1  0  0  0
 61139  1  0  0  0
 61140  1  0  0  0
 62141  1  0  0  0
 62142  1  0  0  0
 62143  1  0  0  0
 63 65  1  0  0  0
 63144  1  0  0  0
 63145  1  0  0  0
 63146  1  0  0  0
 64147  1  0  0  0
 65148  1  0  0  0
 68 87  1  0  0  0
 71 72  2  0  0  0
 71 74  1  0  0  0
 71149  1  0  0  0
 72 73  1  0  0  0
 72 79  1  0  0  0
 73 75  2  0  0  0
 73 76  1  0  0  0
 74 80  1  0  0  0
 74 88  2  0  0  0
 75 81  1  0  0  0
 75 88  1  0  0  0
 76150  1  0  0  0
 76151  1  0  0  0
 76152  1  0  0  0
 77 82  1  0  0  0
 77153  1  0  0  0
 77154  1  0  0  0
 77155  1  0  0  0
 78 89  1  0  0  0
 78156  1  0  0  0
 78157  1  0  0  0
 78158  1  0  0  0
 79 83  1  0  0  0
 79159  1  0  0  0
 79160  1  0  0  0
 80 84  1  0  0  0
 80161  1  0  0  0
 80162  1  0  0  0
 81 85  1  0  0  0
 81163  1  0  0  0
 81164  1  0  0  0
 82 85  1  0  0  0
 82165  1  0  0  0
 82166  1  0  0  0
 83 86  1  0  0  0
 83167  1  0  0  0
 83168  1  0  0  0
 84 87  1  0  0  0
 84169  1  0  0  0
 84170  1  0  0  0
 85171  1  0  0  0
 85172  1  0  0  0
 86 89  1  0  0  0
 86173  1  0  0  0
 86174  1  0  0  0
 87175  1  0  0  0
 87176  1  0  0  0
M  ISO  4   1 100  68 101  87 101  89 100
M  END
> <chiral flag>
0

> <version>
0

> <s_m_source_file>
/data/baiqing/PycharmProjects/Reinvent-master-3.2/result/LINK_invent/BTK/process_docking_weight1_custom_sum_contain_oxygen_bond_distance_aromatic_linkinvent_7_9_3/rearranged_h_0092.sdf

> <i_m_source_file_index>
2

> <r_mmod_Potential_Energy-OPLS-2005>
40.5910491943359

> <r_mmod_Stretch_Energy-OPLS-2005>
40.3007736206055

> <r_mmod_Bend_Energy-OPLS-2005>
119.573013305664

> <r_mmod_Torsional_Energy-OPLS-2005>
310.707672119141

> <r_mmod_Improper_Torsional_Energy-OPLS-2005>
34.0728492736816

> <r_mmod_Van_der_Waal_Energy-OPLS-2005>
159.192810058594

> <r_mmod_Electrostatic_Energy-OPLS-2005>
-468.951293945312

> <r_mmod_Solvation_Energy-OPLS-2005>
-203.1962890625

> <b_mmod_Minimization_Converged-OPLS-2005>
0

> <r_mmod_RMS_Derivative-OPLS-2005>
8.52414417266846

$$$$
2
                    3D
 Structure written by MMmdl.
172180  0  0  1  0            999 V2000
  -30.7098  -14.4777   20.5304 C   0  0  0  0  0  0
  -30.4084  -12.2936   19.4242 C   0  0  0  0  0  0
  -29.4959  -12.5025   18.1976 C   0  0  0  0  0  0
  -28.0162  -12.3594   18.6148 C   0  0  0  0  0  0
  -27.6596  -13.2040   19.8713 C   0  0  2  0  0  0
  -28.7054  -13.0029   20.9935 C   0  0  0  0  0  0
  -25.2600  -13.8151   20.5666 C   0  0  0  0  0  0
  -24.1824  -13.0425   20.9162 C   0  0  0  0  0  0
  -24.6332  -11.6896   20.8683 C   0  0  0  0  0  0
  -23.8946  -10.4285   21.0339 C   0  0  0  0  0  0
  -24.3508   -9.4248   21.9127 C   0  0  0  0  0  0
  -23.6225   -8.2265   22.0727 C   0  0  0  0  0  0
  -22.4231   -8.0228   21.3521 C   0  0  0  0  0  0
  -21.9820   -9.0174   20.4646 C   0  0  0  0  0  0
  -22.7093  -10.2086   20.3033 C   0  0  0  0  0  0
  -21.6859   -6.0666   22.5227 C   0  0  0  0  0  0
  -21.4031   -6.5589   23.8149 C   0  0  0  0  0  0
  -21.3690   -5.6752   24.9128 C   0  0  0  0  0  0
  -21.6065   -4.3010   24.7192 C   0  0  0  0  0  0
  -21.8821   -3.8077   23.4322 C   0  0  0  0  0  0
  -21.9184   -4.6890   22.3374 C   0  0  0  0  0  0
  -22.7877  -13.5271   21.1841 C   0  0  0  0  0  0
  -22.1662   -4.2084   21.0956 F   0  0  0  0  0  0
  -21.5635   -3.4510   25.7718 F   0  0  0  0  0  0
  -30.0289  -13.3022   20.4279 N   0  0  0  0  0  0
  -26.3004  -12.9290   20.3321 N   0  0  0  0  0  0
  -25.9267  -11.6448   20.5675 N   0  0  0  0  0  0
  -22.0500  -12.8269   22.0421 N   0  0  0  0  0  0
  -25.4356  -15.1828   20.4105 N   0  0  0  0  0  0
  -31.8472  -14.6188   20.0756 O   0  0  0  0  0  0
  -21.6654   -6.8794   21.4189 O   0  0  0  0  0  0
  -22.3584  -14.5540   20.6656 O   0  0  0  0  0  0
  -24.6194  -31.8665   23.2065 C   0  0  0  0  0  0
  -25.9077  -32.4824   23.8376 C   0  0  1  0  0  0
  -27.2152  -27.3847   20.0924 C   0  0  0  0  0  0
  -25.5919  -33.8625   24.2312 N   0  0  0  0  0  0
  -23.4079  -30.4869   21.5543 C   0  0  2  0  0  0
  -24.8503  -28.9552   20.1077 C   0  0  0  0  0  0
  -22.7446  -29.4599   22.5036 C   0  0  0  0  0  0
  -18.0276  -28.1355   22.8501 C   0  0  0  0  0  0
  -24.1490  -36.7306   23.2642 C   0  0  0  0  0  0
  -25.9420  -30.8180   21.3625 C   0  0  0  0  0  0
  -26.0150  -29.4490   20.7081 C   0  0  0  0  0  0
  -27.2031  -28.6732   20.6905 C   0  0  0  0  0  0
  -26.0269  -26.9236   19.4798 C   0  0  0  0  0  0
  -24.8539  -27.6996   19.4820 C   0  0  0  0  0  0
  -23.6138  -29.8244   20.1644 C   0  0  0  0  0  0
  -25.4114  -36.3112   24.0332 C   0  0  1  0  0  0
  -20.5865  -28.3628   23.1358 C   0  0  2  0  0  0
  -20.6778  -26.9371   22.5448 C   0  0  0  0  0  0
  -19.5763  -26.6360   21.5241 C   0  0  0  0  0  0
  -18.1927  -26.7898   22.1635 C   0  0  0  0  0  0
  -19.1526  -28.8817   23.2916 C   0  0  0  0  0  0
  -18.9437  -30.1420   23.8920 C   0  0  0  0  0  0
  -17.6436  -30.6575   24.0532 C   0  0  0  0  0  0
  -25.9042  -34.9480   23.5128 C   0  0  0  0  0  0
  -16.5327  -29.9056   23.6321 C   0  0  0  0  0  0
  -16.7256  -28.6469   23.0354 C   0  0  0  0  0  0
  -26.4475  -31.6587   25.0701 C   0  0  0  0  0  0
  -25.3731  -31.3669   26.1432 C   0  0  0  0  0  0
  -27.0256  -30.3031   24.6012 C   0  0  0  0  0  0
  -27.6072  -32.4257   25.7463 C   0  0  0  0  0  0
  -27.5564  -37.1813   24.8463 C   0  0  0  0  0  0
  -21.4171  -29.2989   22.3783 N   0  0  0  0  0  0
  -26.4289  -37.3793   23.9395 N   0  0  0  0  0  0
  -24.6765  -31.0696   22.1016 N   0  0  0  0  0  0
  -23.4226  -28.8149   23.3076 O   0  0  0  0  0  0
  -28.3587  -26.5966   20.1176 O   0  0  0  0  0  0
  -26.5595  -34.8933   22.4678 O   0  0  0  0  0  0
  -23.5373  -32.1428   23.7435 O   0  0  0  0  0  0
  -28.8609  -22.5352   22.2790 C   0  0  0  0  0  0
  -29.4768  -22.9597   21.0629 C   0  0  0  0  0  0
  -29.0931  -21.1911   22.4463 C   0  0  0  0  0  0
  -30.1208  -21.8408   20.5614 C   0  0  0  0  0  0
  -28.1256  -23.4231   23.2533 C   0  0  0  0  0  0
  -30.9740  -21.7309   19.3339 C   0  0  0  0  0  0
  -28.9530  -20.6735   26.0568 C   0  0  0  0  0  0
  -29.3880  -18.1811   19.4421 C   0  0  0  0  0  0
  -29.5179  -24.4212   20.5349 C   0  0  0  0  0  0
  -28.6523  -20.2950   23.5690 C   0  0  0  0  0  0
  -29.6335  -20.2321   24.7554 C   0  0  0  0  0  0
  -30.5795  -19.4150   21.3853 C   0  0  0  0  0  0
  -30.6416  -16.8723   21.2650 C   0  0  0  0  0  0
  -28.1777  -25.1520   20.1977 C   0  0  0  0  0  0
  -29.7844  -18.1350   20.9307 C   0  0  1  0  0  0
  -29.9188  -20.7485   21.4208 N   0  0  0  0  0  0
  -30.0408  -15.5374   21.0405 N   0  0  0  0  0  0
  -30.2479  -11.2896   19.8212 H   0  0  0  0  0  0
  -31.4653  -12.3374   19.1536 H   0  0  0  0  0  0
  -29.7459  -11.7836   17.4144 H   0  0  0  0  0  0
  -29.6640  -13.4910   17.7609 H   0  0  0  0  0  0
  -27.8381  -11.3008   18.8106 H   0  0  0  0  0  0
  -27.3530  -12.6256   17.7897 H   0  0  0  0  0  0
  -27.6989  -14.2505   19.5594 H   0  0  0  0  0  0
  -28.4818  -13.6221   21.8627 H   0  0  0  0  0  0
  -28.6954  -11.9703   21.3520 H   0  0  0  0  0  0
  -25.2648   -9.5789   22.4658 H   0  0  0  0  0  0
  -23.9981   -7.4693   22.7435 H   0  0  0  0  0  0
  -21.0749   -8.8608   19.8965 H   0  0  0  0  0  0
  -22.3464  -10.9572   19.6113 H   0  0  0  0  0  0
  -21.2062   -7.6107   23.9638 H   0  0  0  0  0  0
  -21.1537   -6.0499   25.9033 H   0  0  0  0  0  0
  -22.0591   -2.7544   23.2812 H   0  0  0  0  0  0
  -22.4095  -11.9962   22.4896 H   0  0  0  0  0  0
  -21.1093  -13.1271   22.2500 H   0  0  0  0  0  0
  -24.6660  -15.8313   20.5245 H   0  0  0  0  0  0
  -26.2854  -15.6266   20.0831 H   0  0  0  0  0  0
  -26.7134  -32.5501   23.1120 H   0  0  0  0  0  0
  -25.0092  -33.9794   25.0474 H   0  0  0  0  0  0
  -22.6949  -31.3018   21.4185 H   0  0  0  0  0  0
  -23.3742  -35.9650   23.3334 H   0  0  0  0  0  0
  -24.3585  -36.8883   22.2051 H   0  0  0  0  0  0
  -23.7243  -37.6525   23.6630 H   0  0  0  0  0  0
  -26.0466  -31.5776   20.5857 H   0  0  0  0  0  0
  -26.8371  -30.8817   21.9695 H   0  0  0  0  0  0
  -28.1018  -29.0509   21.1577 H   0  0  0  0  0  0
  -25.9823  -25.9664   18.9824 H   0  0  0  0  0  0
  -23.9601  -27.3303   18.9961 H   0  0  0  0  0  0
  -23.7113  -30.6030   19.4073 H   0  0  0  0  0  0
  -22.7391  -29.2375   19.8791 H   0  0  0  0  0  0
  -25.1285  -36.1986   25.0817 H   0  0  0  0  0  0
  -20.9909  -28.3159   24.1492 H   0  0  0  0  0  0
  -20.5711  -26.2204   23.3621 H   0  0  0  0  0  0
  -21.6650  -26.7435   22.1228 H   0  0  0  0  0  0
  -19.6927  -25.6268   21.1271 H   0  0  0  0  0  0
  -19.6731  -27.3172   20.6779 H   0  0  0  0  0  0
  -17.4214  -26.6648   21.4012 H   0  0  0  0  0  0
  -18.0303  -26.0041   22.9036 H   0  0  0  0  0  0
  -19.7901  -30.7231   24.2323 H   0  0  0  0  0  0
  -17.4975  -31.6272   24.5095 H   0  0  0  0  0  0
  -15.5316  -30.2953   23.7642 H   0  0  0  0  0  0
  -15.8655  -28.0782   22.7071 H   0  0  0  0  0  0
  -24.5950  -30.6964   25.7746 H   0  0  0  0  0  0
  -24.8871  -32.2815   26.4846 H   0  0  0  0  0  0
  -25.8102  -30.8867   27.0200 H   0  0  0  0  0  0
  -26.2765  -29.6851   24.1047 H   0  0  0  0  0  0
  -27.4027  -29.7185   25.4408 H   0  0  0  0  0  0
  -27.8607  -30.4348   23.9129 H   0  0  0  0  0  0
  -27.2741  -33.3570   26.2044 H   0  0  0  0  0  0
  -28.3906  -32.6770   25.0303 H   0  0  0  0  0  0
  -28.0703  -31.8355   26.5375 H   0  0  0  0  0  0
  -28.2609  -38.0082   24.7484 H   0  0  0  0  0  0
  -28.1036  -36.2618   24.6332 H   0  0  0  0  0  0
  -27.2286  -37.1504   25.8869 H   0  0  0  0  0  0
  -20.9348  -29.8686   21.6990 H   0  0  0  0  0  0
  -26.0180  -38.2875   24.1376 H   0  0  0  0  0  0
  -28.3463  -24.4768   23.0935 H   0  0  0  0  0  0
  -28.4398  -23.1934   24.2701 H   0  0  0  0  0  0
  -27.0490  -23.2733   23.1805 H   0  0  0  0  0  0
  -31.5229  -22.6531   19.1612 H   0  0  0  0  0  0
  -30.3598  -21.5417   18.4585 H   0  0  0  0  0  0
  -31.7297  -20.9515   19.3881 H   0  0  0  0  0  0
  -29.6633  -20.8008   26.8756 H   0  0  0  0  0  0
  -28.2109  -19.9443   26.3792 H   0  0  0  0  0  0
  -28.4311  -21.6198   25.9072 H   0  0  0  0  0  0
  -28.8934  -17.2586   19.1337 H   0  0  0  0  0  0
  -30.2489  -18.3254   18.7858 H   0  0  0  0  0  0
  -28.6886  -18.9975   19.2594 H   0  0  0  0  0  0
  -30.1578  -24.4678   19.6559 H   0  0  0  0  0  0
  -30.0310  -25.0115   21.2930 H   0  0  0  0  0  0
  -28.4731  -19.2840   23.2134 H   0  0  0  0  0  0
  -27.6686  -20.6298   23.9032 H   0  0  0  0  0  0
  -29.9978  -19.2089   24.8695 H   0  0  0  0  0  0
  -30.5175  -20.8452   24.5614 H   0  0  0  0  0  0
  -31.5086  -19.4807   20.8200 H   0  0  0  0  0  0
  -30.9287  -19.2371   22.4030 H   0  0  0  0  0  0
  -30.9033  -16.8915   22.3243 H   0  0  0  0  0  0
  -31.5897  -16.9684   20.7329 H   0  0  0  0  0  0
  -27.7941  -24.7549   19.2570 H   0  0  0  0  0  0
  -27.4242  -24.9345   20.9585 H   0  0  0  0  0  0
  -28.8652  -18.0587   21.5095 H   0  0  0  0  0  0
  -29.1118  -15.3653   21.3951 H   0  0  0  0  0  0
  1 25  1  0  0  0
  1 30  2  0  0  0
  1 87  1  0  0  0
  2  3  1  0  0  0
  2 25  1  0  0  0
  2 88  1  0  0  0
  2 89  1  0  0  0
  3  4  1  0  0  0
  3 90  1  0  0  0
  3 91  1  0  0  0
  4  5  1  0  0  0
  4 92  1  0  0  0
  4 93  1  0  0  0
  5  6  1  0  0  0
  5 26  1  0  0  0
  5 94  1  0  0  0
  6 25  1  0  0  0
  6 95  1  0  0  0
  6 96  1  0  0  0
  7  8  2  0  0  0
  7 26  1  0  0  0
  7 29  1  0  0  0
  8  9  1  0  0  0
  8 22  1  0  0  0
  9 10  1  0  0  0
  9 27  2  0  0  0
 10 11  2  0  0  0
 10 15  1  0  0  0
 11 12  1  0  0  0
 11 97  1  0  0  0
 12 13  2  0  0  0
 12 98  1  0  0  0
 13 14  1  0  0  0
 13 31  1  0  0  0
 14 15  2  0  0  0
 14 99  1  0  0  0
 15100  1  0  0  0
 16 17  2  0  0  0
 16 21  1  0  0  0
 16 31  1  0  0  0
 17 18  1  0  0  0
 17101  1  0  0  0
 18 19  2  0  0  0
 18102  1  0  0  0
 19 20  1  0  0  0
 19 24  1  0  0  0
 20 21  2  0  0  0
 20103  1  0  0  0
 21 23  1  0  0  0
 22 28  1  0  0  0
 22 32  2  0  0  0
 26 27  1  0  0  0
 28104  1  0  0  0
 28105  1  0  0  0
 29106  1  0  0  0
 29107  1  0  0  0
 33 34  1  0  0  0
 33 66  1  0  0  0
 33 70  2  0  0  0
 34 36  1  0  0  0
 34 59  1  0  0  0
 34108  1  0  0  0
 35 44  2  0  0  0
 35 45  1  0  0  0
 35 68  1  0  0  0
 36 56  1  0  0  0
 36109  1  0  0  0
 37 39  1  0  0  0
 37 47  1  0  0  0
 37 66  1  0  0  0
 37110  1  0  0  0
 38 43  2  0  0  0
 38 46  1  0  0  0
 38 47  1  0  0  0
 39 64  1  0  0  0
 39 67  2  0  0  0
 40 52  1  0  0  0
 40 53  2  0  0  0
 40 58  1  0  0  0
 41111  1  0  0  0
 41112  1  0  0  0
 41113  1  0  0  0
 41 48  1  0  0  0
 42 43  1  0  0  0
 42 66  1  0  0  0
 42114  1  0  0  0
 42115  1  0  0  0
 43 44  1  0  0  0
 44116  1  0  0  0
 45 46  2  0  0  0
 45117  1  0  0  0
 46118  1  0  0  0
 47119  1  0  0  0
 47120  1  0  0  0
 48 56  1  0  0  0
 48 65  1  0  0  0
 48121  1  0  0  0
 49 50  1  0  0  0
 49 53  1  0  0  0
 49 64  1  0  0  0
 49122  1  0  0  0
 50 51  1  0  0  0
 50123  1  0  0  0
 50124  1  0  0  0
 51 52  1  0  0  0
 51125  1  0  0  0
 51126  1  0  0  0
 52127  1  0  0  0
 52128  1  0  0  0
 53 54  1  0  0  0
 54 55  2  0  0  0
 54129  1  0  0  0
 55 57  1  0  0  0
 55130  1  0  0  0
 56 69  2  0  0  0
 57 58  2  0  0  0
 57131  1  0  0  0
 58132  1  0  0  0
 59 60  1  0  0  0
 59 61  1  0  0  0
 59 62  1  0  0  0
 60133  1  0  0  0
 60134  1  0  0  0
 60135  1  0  0  0
 61136  1  0  0  0
 61137  1  0  0  0
 61138  1  0  0  0
 62139  1  0  0  0
 62140  1  0  0  0
 62141  1  0  0  0
 63 65  1  0  0  0
 63142  1  0  0  0
 63143  1  0  0  0
 63144  1  0  0  0
 64145  1  0  0  0
 65146  1  0  0  0
 68 84  1  0  0  0
 71 72  1  0  0  0
 71 73  2  0  0  0
 71 75  1  0  0  0
 72 74  2  0  0  0
 72 79  1  0  0  0
 73 80  1  0  0  0
 73 86  1  0  0  0
 74 76  1  0  0  0
 74 86  1  0  0  0
 75147  1  0  0  0
 75148  1  0  0  0
 75149  1  0  0  0
 76150  1  0  0  0
 76151  1  0  0  0
 76152  1  0  0  0
 77 81  1  0  0  0
 77153  1  0  0  0
 77154  1  0  0  0
 77155  1  0  0  0
 78156  1  0  0  0
 78157  1  0  0  0
 78158  1  0  0  0
 78 85  1  0  0  0
 79 84  1  0  0  0
 79159  1  0  0  0
 79160  1  0  0  0
 80 81  1  0  0  0
 80161  1  0  0  0
 80162  1  0  0  0
 81163  1  0  0  0
 81164  1  0  0  0
 82 85  1  0  0  0
 82 86  1  0  0  0
 82165  1  0  0  0
 82166  1  0  0  0
 83 85  1  0  0  0
 83 87  1  0  0  0
 83167  1  0  0  0
 83168  1  0  0  0
 84169  1  0  0  0
 84170  1  0  0  0
 85171  1  0  0  0
 87172  1  0  0  0
M  ISO  4   1 100  68 101  84 101  87 100
M  END
> <chiral flag>
0

> <version>
0

> <s_m_source_file>
/data/baiqing/PycharmProjects/Reinvent-master-3.2/result/LINK_invent/BTK/process_docking_weight1_custom_sum_contain_oxygen_bond_distance_aromatic_linkinvent_7_9_3/rearranged_h_0092.sdf

> <i_m_source_file_index>
3

> <r_mmod_Potential_Energy-OPLS-2005>
-55.7006225585938

> <r_mmod_Stretch_Energy-OPLS-2005>
51.0161514282227

> <r_mmod_Bend_Energy-OPLS-2005>
127.14338684082

> <r_mmod_Torsional_Energy-OPLS-2005>
240.048828125

> <r_mmod_Improper_Torsional_Energy-OPLS-2005>
4.55588340759277

> <r_mmod_Van_der_Waal_Energy-OPLS-2005>
125.154525756836

> <r_mmod_Electrostatic_Energy-OPLS-2005>
-417.265014648438

> <r_mmod_Solvation_Energy-OPLS-2005>
-206.069915771484

> <b_mmod_Minimization_Converged-OPLS-2005>
0

> <r_mmod_RMS_Derivative-OPLS-2005>
6.38988780975342

$$$$
3
                    3D
 Structure written by MMmdl.
174182  0  0  1  0            999 V2000
  -30.5984  -14.7527   20.4704 C   0  0  0  0  0  0
  -30.4364  -12.4704   19.4602 C   0  0  0  0  0  0
  -29.5046  -12.5034   18.2289 C   0  0  0  0  0  0
  -28.0346  -12.3156   18.6498 C   0  0  0  0  0  0
  -27.6366  -13.2308   19.8371 C   0  0  2  0  0  0
  -28.6793  -13.1761   20.9733 C   0  0  0  0  0  0
  -25.2498  -13.8233   20.5646 C   0  0  0  0  0  0
  -24.1803  -13.0470   20.9205 C   0  0  0  0  0  0
  -24.6404  -11.6953   20.8750 C   0  0  0  0  0  0
  -23.9096  -10.4316   21.0406 C   0  0  0  0  0  0
  -24.3652   -9.4226   21.9168 C   0  0  0  0  0  0
  -23.6325   -8.2267   22.0739 C   0  0  0  0  0  0
  -22.4300   -8.0309   21.3542 C   0  0  0  0  0  0
  -21.9942   -9.0282   20.4640 C   0  0  0  0  0  0
  -22.7281  -10.2158   20.3045 C   0  0  0  0  0  0
  -21.6860   -6.0761   22.5285 C   0  0  0  0  0  0
  -21.4020   -6.5658   23.8222 C   0  0  0  0  0  0
  -21.3647   -5.6803   24.9178 C   0  0  0  0  0  0
  -21.6041   -4.3069   24.7227 C   0  0  0  0  0  0
  -21.8822   -3.8167   23.4348 C   0  0  0  0  0  0
  -21.9204   -4.6984   22.3406 C   0  0  0  0  0  0
  -22.7832  -13.5232   21.1896 C   0  0  0  0  0  0
  -22.1668   -4.2175   21.0981 F   0  0  0  0  0  0
  -21.5616   -3.4546   25.7733 F   0  0  0  0  0  0
  -29.9800  -13.5276   20.3905 N   0  0  0  0  0  0
  -26.2903  -12.9428   20.3209 N   0  0  0  0  0  0
  -25.9317  -11.6576   20.5733 N   0  0  0  0  0  0
  -22.0526  -12.8158   22.0451 N   0  0  0  0  0  0
  -25.4178  -15.1951   20.3955 N   0  0  0  0  0  0
  -31.7925  -14.8639   20.1797 O   0  0  0  0  0  0
  -21.6659   -6.8913   21.4248 O   0  0  0  0  0  0
  -22.3488  -14.5534   20.6774 O   0  0  0  0  0  0
  -24.6330  -31.8522   23.1892 C   0  0  0  0  0  0
  -25.9153  -32.4706   23.8252 C   0  0  1  0  0  0
  -27.2119  -27.2498   20.1108 C   0  0  0  0  0  0
  -25.5929  -33.8511   24.2196 N   0  0  0  0  0  0
  -23.4299  -30.4753   21.5353 C   0  0  2  0  0  0
  -24.8726  -28.9187   20.1063 C   0  0  0  0  0  0
  -22.7524  -29.4598   22.4881 C   0  0  0  0  0  0
  -18.0325  -28.1343   22.8435 C   0  0  0  0  0  0
  -24.1527  -36.7298   23.2626 C   0  0  0  0  0  0
  -25.9796  -30.7562   21.3749 C   0  0  0  0  0  0
  -26.0464  -29.3807   20.7139 C   0  0  0  0  0  0
  -27.2205  -28.5580   20.7037 C   0  0  0  0  0  0
  -26.0118  -26.8585   19.4763 C   0  0  0  0  0  0
  -24.8594  -27.6659   19.4773 C   0  0  0  0  0  0
  -23.6422  -29.8032   20.1563 C   0  0  0  0  0  0
  -25.4141  -36.3037   24.0292 C   0  0  1  0  0  0
  -20.5933  -28.3671   23.1209 C   0  0  2  0  0  0
  -20.6812  -26.9374   22.5383 C   0  0  0  0  0  0
  -19.5802  -26.6342   21.5174 C   0  0  0  0  0  0
  -18.1978  -26.7882   22.1568 C   0  0  0  0  0  0
  -19.1574  -28.8823   23.2815 C   0  0  0  0  0  0
  -18.9487  -30.1426   23.8821 C   0  0  0  0  0  0
  -17.6483  -30.6533   24.0534 C   0  0  0  0  0  0
  -25.9071  -34.9408   23.5057 C   0  0  0  0  0  0
  -16.5377  -29.9030   23.6302 C   0  0  0  0  0  0
  -16.7308  -28.6464   23.0291 C   0  0  0  0  0  0
  -26.4520  -31.6502   25.0635 C   0  0  0  0  0  0
  -25.3691  -31.3632   26.1311 C   0  0  0  0  0  0
  -27.0361  -30.2893   24.6165 C   0  0  0  0  0  0
  -27.6112  -32.4240   25.7361 C   0  0  0  0  0  0
  -27.5615  -37.1761   24.8442 C   0  0  0  0  0  0
  -21.4239  -29.3020   22.3589 N   0  0  0  0  0  0
  -26.4322  -37.3728   23.9386 N   0  0  0  0  0  0
  -24.6998  -31.0492   22.0871 N   0  0  0  0  0  0
  -23.4212  -28.8136   23.2990 O   0  0  0  0  0  0
  -28.3058  -26.3500   20.1710 O   0  0  0  0  0  0
  -26.5676  -34.8894   22.4650 O   0  0  0  0  0  0
  -23.5477  -32.1380   23.7164 O   0  0  0  0  0  0
  -27.3515  -21.6431   21.6254 C   0  0  0  0  0  0
  -27.7462  -18.9144   21.8574 C   0  0  0  0  0  0
  -26.5160  -20.9035   22.4755 C   0  0  0  0  0  0
  -28.3942  -21.0790   20.8526 C   0  0  0  0  0  0
  -26.7410  -19.5219   22.6309 C   0  0  0  0  0  0
  -28.5897  -19.6089   20.9521 C   0  0  0  0  0  0
  -24.5439  -18.2723   23.0865 C   0  0  0  0  0  0
  -23.0781  -22.7109   22.8016 C   0  0  0  0  0  0
  -30.5343  -19.2755   19.2531 C   0  0  0  0  0  0
  -25.9399  -18.6530   23.5979 C   0  0  0  0  0  0
  -25.3720  -21.6440   23.1511 C   0  0  0  0  0  0
  -29.1068  -22.1837   19.9657 C   0  0  0  0  0  0
  -24.2293  -21.9327   22.1591 C   0  0  0  0  0  0
  -29.1361  -23.7634   20.4090 C   0  0  0  0  0  0
  -30.1916  -17.3329   20.9447 C   0  0  0  0  0  0
  -28.0829  -24.8831   19.9040 C   0  0  0  0  0  0
  -29.4982  -18.5776   20.1417 C   0  0  1  0  0  0
  -29.8094  -15.8709   20.6947 N   0  0  0  0  0  0
  -31.4694  -12.6214   19.1427 H   0  0  0  0  0  0
  -30.4098  -11.4962   19.9489 H   0  0  0  0  0  0
  -29.7901  -11.7291   17.5163 H   0  0  0  0  0  0
  -29.6147  -13.4564   17.7080 H   0  0  0  0  0  0
  -27.9071  -11.2706   18.9350 H   0  0  0  0  0  0
  -27.3688  -12.4808   17.8016 H   0  0  0  0  0  0
  -27.6267  -14.2466   19.4386 H   0  0  0  0  0  0
  -28.7174  -12.1849   21.4257 H   0  0  0  0  0  0
  -28.4069  -13.8676   21.7717 H   0  0  0  0  0  0
  -25.2812   -9.5698   22.4722 H   0  0  0  0  0  0
  -24.0053   -7.4657   22.7439 H   0  0  0  0  0  0
  -21.0885   -8.8815   19.8936 H   0  0  0  0  0  0
  -22.3767  -10.9696   19.6146 H   0  0  0  0  0  0
  -21.2011   -7.6167   23.9742 H   0  0  0  0  0  0
  -21.1452   -6.0522   25.9083 H   0  0  0  0  0  0
  -22.0609   -2.7631   23.2843 H   0  0  0  0  0  0
  -22.4219  -11.9820   22.4773 H   0  0  0  0  0  0
  -21.1137  -13.1113   22.2723 H   0  0  0  0  0  0
  -24.6416  -15.8409   20.4766 H   0  0  0  0  0  0
  -26.2439  -15.6224   19.9969 H   0  0  0  0  0  0
  -26.7198  -32.5347   23.0971 H   0  0  0  0  0  0
  -24.9979  -33.9605   25.0278 H   0  0  0  0  0  0
  -22.7256  -31.2946   21.3835 H   0  0  0  0  0  0
  -23.3761  -35.9657   23.3259 H   0  0  0  0  0  0
  -24.3627  -36.8988   22.2054 H   0  0  0  0  0  0
  -23.7349  -37.6501   23.6698 H   0  0  0  0  0  0
  -26.1379  -31.5128   20.6053 H   0  0  0  0  0  0
  -26.8520  -30.7933   22.0156 H   0  0  0  0  0  0
  -28.1235  -28.8994   21.1882 H   0  0  0  0  0  0
  -25.9258  -25.9013   18.9843 H   0  0  0  0  0  0
  -23.9578  -27.3068   19.0010 H   0  0  0  0  0  0
  -23.7527  -30.5688   19.3893 H   0  0  0  0  0  0
  -22.7614  -29.2272   19.8659 H   0  0  0  0  0  0
  -25.1345  -36.1857   25.0779 H   0  0  0  0  0  0
  -21.0040  -28.3278   24.1326 H   0  0  0  0  0  0
  -20.5684  -26.2290   23.3598 H   0  0  0  0  0  0
  -21.6678  -26.7360   22.1201 H   0  0  0  0  0  0
  -19.6978  -25.6251   21.1207 H   0  0  0  0  0  0
  -19.6751  -27.3124   20.6682 H   0  0  0  0  0  0
  -17.4259  -26.6599   21.3960 H   0  0  0  0  0  0
  -18.0373  -26.0016   22.8954 H   0  0  0  0  0  0
  -19.7970  -30.7253   24.2147 H   0  0  0  0  0  0
  -17.5038  -31.6195   24.5170 H   0  0  0  0  0  0
  -15.5369  -30.2898   23.7671 H   0  0  0  0  0  0
  -15.8718  -28.0786   22.6981 H   0  0  0  0  0  0
  -24.6009  -30.6821   25.7624 H   0  0  0  0  0  0
  -24.8664  -32.2737   26.4546 H   0  0  0  0  0  0
  -25.7961  -30.8968   27.0195 H   0  0  0  0  0  0
  -26.2928  -29.6553   24.1291 H   0  0  0  0  0  0
  -27.4138  -29.7234   25.4696 H   0  0  0  0  0  0
  -27.8777  -30.4124   23.9339 H   0  0  0  0  0  0
  -27.2811  -33.3618   26.1824 H   0  0  0  0  0  0
  -28.3915  -32.6658   25.0125 H   0  0  0  0  0  0
  -28.0767  -31.8406   26.5307 H   0  0  0  0  0  0
  -28.2567  -38.0121   24.7550 H   0  0  0  0  0  0
  -28.1191  -36.2647   24.6211 H   0  0  0  0  0  0
  -27.2320  -37.1348   25.8839 H   0  0  0  0  0  0
  -20.9431  -29.8734   21.6775 H   0  0  0  0  0  0
  -26.0194  -38.2803   24.1369 H   0  0  0  0  0  0
  -27.1371  -22.6965   21.5481 H   0  0  0  0  0  0
  -27.8406  -17.8417   21.9475 H   0  0  0  0  0  0
  -24.0773  -17.5557   23.7621 H   0  0  0  0  0  0
  -24.5885  -17.8103   22.1000 H   0  0  0  0  0  0
  -23.8830  -19.1357   23.0276 H   0  0  0  0  0  0
  -22.2676  -22.8620   22.0883 H   0  0  0  0  0  0
  -23.4134  -23.6911   23.1420 H   0  0  0  0  0  0
  -22.6690  -22.1807   23.6629 H   0  0  0  0  0  0
  -30.0564  -19.9298   18.5244 H   0  0  0  0  0  0
  -31.1193  -18.5488   18.6894 H   0  0  0  0  0  0
  -31.2306  -19.8673   19.8453 H   0  0  0  0  0  0
  -25.8698  -19.1476   24.5682 H   0  0  0  0  0  0
  -26.4953  -17.7349   23.7958 H   0  0  0  0  0  0
  -25.7623  -22.5838   23.5432 H   0  0  0  0  0  0
  -24.9941  -21.1039   24.0169 H   0  0  0  0  0  0
  -28.7266  -22.1073   18.9452 H   0  0  0  0  0  0
  -30.1497  -21.8806   19.9089 H   0  0  0  0  0  0
  -24.6071  -22.5025   21.3079 H   0  0  0  0  0  0
  -23.8509  -20.9988   21.7428 H   0  0  0  0  0  0
  -30.0946  -24.1345   20.0443 H   0  0  0  0  0  0
  -29.2328  -23.8244   21.4931 H   0  0  0  0  0  0
  -30.0621  -17.5004   22.0151 H   0  0  0  0  0  0
  -31.2734  -17.4079   20.8244 H   0  0  0  0  0  0
  -27.1191  -24.6008   20.3275 H   0  0  0  0  0  0
  -27.9762  -24.7743   18.8236 H   0  0  0  0  0  0
  -28.7977  -18.1134   19.4446 H   0  0  0  0  0  0
  -28.8340  -15.6580   20.8397 H   0  0  0  0  0  0
  1 25  1  0  0  0
  1 30  2  0  0  0
  1 88  1  0  0  0
  2  3  1  0  0  0
  2 25  1  0  0  0
  2 89  1  0  0  0
  2 90  1  0  0  0
  3  4  1  0  0  0
  3 91  1  0  0  0
  3 92  1  0  0  0
  4  5  1  0  0  0
  4 93  1  0  0  0
  4 94  1  0  0  0
  5  6  1  0  0  0
  5 26  1  0  0  0
  5 95  1  0  0  0
  6 25  1  0  0  0
  6 96  1  0  0  0
  6 97  1  0  0  0
  7  8  2  0  0  0
  7 26  1  0  0  0
  7 29  1  0  0  0
  8  9  1  0  0  0
  8 22  1  0  0  0
  9 10  1  0  0  0
  9 27  2  0  0  0
 10 11  2  0  0  0
 10 15  1  0  0  0
 11 12  1  0  0  0
 11 98  1  0  0  0
 12 13  2  0  0  0
 12 99  1  0  0  0
 13 14  1  0  0  0
 13 31  1  0  0  0
 14 15  2  0  0  0
 14100  1  0  0  0
 15101  1  0  0  0
 16 17  2  0  0  0
 16 21  1  0  0  0
 16 31  1  0  0  0
 17 18  1  0  0  0
 17102  1  0  0  0
 18 19  2  0  0  0
 18103  1  0  0  0
 19 20  1  0  0  0
 19 24  1  0  0  0
 20 21  2  0  0  0
 20104  1  0  0  0
 21 23  1  0  0  0
 22 28  1  0  0  0
 22 32  2  0  0  0
 26 27  1  0  0  0
 28105  1  0  0  0
 28106  1  0  0  0
 29107  1  0  0  0
 29108  1  0  0  0
 33 34  1  0  0  0
 33 66  1  0  0  0
 33 70  2  0  0  0
 34 36  1  0  0  0
 34 59  1  0  0  0
 34109  1  0  0  0
 35 44  2  0  0  0
 35 45  1  0  0  0
 35 68  1  0  0  0
 36 56  1  0  0  0
 36110  1  0  0  0
 37 39  1  0  0  0
 37 47  1  0  0  0
 37 66  1  0  0  0
 37111  1  0  0  0
 38 43  2  0  0  0
 38 46  1  0  0  0
 38 47  1  0  0  0
 39 64  1  0  0  0
 39 67  2  0  0  0
 40 52  1  0  0  0
 40 53  2  0  0  0
 40 58  1  0  0  0
 41112  1  0  0  0
 41113  1  0  0  0
 41114  1  0  0  0
 41 48  1  0  0  0
 42 43  1  0  0  0
 42 66  1  0  0  0
 42115  1  0  0  0
 42116  1  0  0  0
 43 44  1  0  0  0
 44117  1  0  0  0
 45 46  2  0  0  0
 45118  1  0  0  0
 46119  1  0  0  0
 47120  1  0  0  0
 47121  1  0  0  0
 48 56  1  0  0  0
 48 65  1  0  0  0
 48122  1  0  0  0
 49 50  1  0  0  0
 49 53  1  0  0  0
 49 64  1  0  0  0
 49123  1  0  0  0
 50 51  1  0  0  0
 50124  1  0  0  0
 50125  1  0  0  0
 51 52  1  0  0  0
 51126  1  0  0  0
 51127  1  0  0  0
 52128  1  0  0  0
 52129  1  0  0  0
 53 54  1  0  0  0
 54 55  2  0  0  0
 54130  1  0  0  0
 55 57  1  0  0  0
 55131  1  0  0  0
 56 69  2  0  0  0
 57 58  2  0  0  0
 57132  1  0  0  0
 58133  1  0  0  0
 59 60  1  0  0  0
 59 61  1  0  0  0
 59 62  1  0  0  0
 60134  1  0  0  0
 60135  1  0  0  0
 60136  1  0  0  0
 61137  1  0  0  0
 61138  1  0  0  0
 61139  1  0  0  0
 62140  1  0  0  0
 62141  1  0  0  0
 62142  1  0  0  0
 63 65  1  0  0  0
 63143  1  0  0  0
 63144  1  0  0  0
 63145  1  0  0  0
 64146  1  0  0  0
 65147  1  0  0  0
 68 86  1  0  0  0
 71 73  2  0  0  0
 71 74  1  0  0  0
 71148  1  0  0  0
 72 75  2  0  0  0
 72 76  1  0  0  0
 72149  1  0  0  0
 73 75  1  0  0  0
 73 81  1  0  0  0
 74 76  2  0  0  0
 74 82  1  0  0  0
 75 80  1  0  0  0
 76 87  1  0  0  0
 77 80  1  0  0  0
 77150  1  0  0  0
 77151  1  0  0  0
 77152  1  0  0  0
 78 83  1  0  0  0
 78153  1  0  0  0
 78154  1  0  0  0
 78155  1  0  0  0
 79156  1  0  0  0
 79157  1  0  0  0
 79158  1  0  0  0
 79 87  1  0  0  0
 80159  1  0  0  0
 80160  1  0  0  0
 81 83  1  0  0  0
 81161  1  0  0  0
 81162  1  0  0  0
 82 84  1  0  0  0
 82163  1  0  0  0
 82164  1  0  0  0
 83165  1  0  0  0
 83166  1  0  0  0
 84 86  1  0  0  0
 84167  1  0  0  0
 84168  1  0  0  0
 85 87  1  0  0  0
 85 88  1  0  0  0
 85169  1  0  0  0
 85170  1  0  0  0
 86171  1  0  0  0
 86172  1  0  0  0
 87173  1  0  0  0
 88174  1  0  0  0
M  ISO  4   1 100  68 101  86 101  88 100
M  END
> <chiral flag>
0

> <version>
0

> <s_m_source_file>
/data/baiqing/PycharmProjects/Reinvent-master-3.2/result/LINK_invent/BTK/process_docking_weight1_custom_sum_contain_oxygen_bond_distance_aromatic_linkinvent_7_9_3/rearranged_h_0092.sdf

> <i_m_source_file_index>
4

> <r_mmod_Potential_Energy-OPLS-2005>
210.796142578125

> <r_mmod_Stretch_Energy-OPLS-2005>
140.516265869141

> <r_mmod_Bend_Energy-OPLS-2005>
215.664093017578

> <r_mmod_Torsional_Energy-OPLS-2005>
237.448806762695

> <r_mmod_Improper_Torsional_Energy-OPLS-2005>
5.06913137435913

> <r_mmod_Van_der_Waal_Energy-OPLS-2005>
138.302581787109

> <r_mmod_Electrostatic_Energy-OPLS-2005>
-421.021850585938

> <r_mmod_Solvation_Energy-OPLS-2005>
-198.741577148438

> <b_mmod_Minimization_Converged-OPLS-2005>
0

> <r_mmod_RMS_Derivative-OPLS-2005>
3.22578072547913

$$$$
4
                    3D
 Structure written by MMmdl.
165173  0  0  1  0            999 V2000
  -30.4495  -15.2270   20.4109 C   0  0  0  0  0  0
  -30.4521  -12.7973   19.4980 C   0  0  0  0  0  0
  -29.5286  -12.5984   18.2687 C   0  0  0  0  0  0
  -28.0678  -12.3351   18.6875 C   0  0  0  0  0  0
  -27.6222  -13.2604   19.8496 C   0  0  2  0  0  0
  -28.6859  -13.3010   20.9689 C   0  0  0  0  0  0
  -25.2350  -13.8147   20.5746 C   0  0  0  0  0  0
  -24.1708  -13.0365   20.9266 C   0  0  0  0  0  0
  -24.6380  -11.6872   20.8792 C   0  0  0  0  0  0
  -23.9076  -10.4248   21.0436 C   0  0  0  0  0  0
  -24.3625   -9.4162   21.9212 C   0  0  0  0  0  0
  -23.6294   -8.2204   22.0774 C   0  0  0  0  0  0
  -22.4277   -8.0251   21.3560 C   0  0  0  0  0  0
  -21.9911   -9.0225   20.4670 C   0  0  0  0  0  0
  -22.7246  -10.2096   20.3083 C   0  0  0  0  0  0
  -21.6850   -6.0717   22.5280 C   0  0  0  0  0  0
  -21.4011   -6.5630   23.8209 C   0  0  0  0  0  0
  -21.3664   -5.6791   24.9177 C   0  0  0  0  0  0
  -21.6042   -4.3052   24.7227 C   0  0  0  0  0  0
  -21.8820   -3.8136   23.4355 C   0  0  0  0  0  0
  -21.9189   -4.6946   22.3405 C   0  0  0  0  0  0
  -22.7730  -13.5139   21.1917 C   0  0  0  0  0  0
  -22.1667   -4.2137   21.0985 F   0  0  0  0  0  0
  -21.5623   -3.4535   25.7741 F   0  0  0  0  0  0
  -29.8899  -13.9084   20.3543 N   0  0  0  0  0  0
  -26.2849  -12.9447   20.3359 N   0  0  0  0  0  0
  -25.9337  -11.6563   20.5815 N   0  0  0  0  0  0
  -22.0388  -12.8148   22.0493 N   0  0  0  0  0  0
  -25.3838  -15.1868   20.4126 N   0  0  0  0  0  0
  -31.6644  -15.2191   20.1547 O   0  0  0  0  0  0
  -21.6638   -6.8854   21.4243 O   0  0  0  0  0  0
  -22.3418  -14.5450   20.6764 O   0  0  0  0  0  0
  -24.6577  -31.8294   23.1741 C   0  0  0  0  0  0
  -25.9275  -32.4623   23.8194 C   0  0  1  0  0  0
  -27.2314  -26.9874   20.1689 C   0  0  0  0  0  0
  -25.5959  -33.8434   24.2109 N   0  0  0  0  0  0
  -23.4706  -30.4401   21.5234 C   0  0  2  0  0  0
  -24.9249  -28.8378   20.1092 C   0  0  0  0  0  0
  -22.7645  -29.4460   22.4811 C   0  0  0  0  0  0
  -18.0317  -28.1407   22.8464 C   0  0  0  0  0  0
  -24.1488  -36.7224   23.2647 C   0  0  0  0  0  0
  -26.0352  -30.6529   21.3964 C   0  0  0  0  0  0
  -26.1053  -29.2485   20.7405 C   0  0  0  0  0  0
  -27.2506  -28.3423   20.7500 C   0  0  0  0  0  0
  -26.0257  -26.7186   19.4809 C   0  0  0  0  0  0
  -24.9078  -27.5921   19.4600 C   0  0  0  0  0  0
  -23.7065  -29.7567   20.1482 C   0  0  0  0  0  0
  -25.4128  -36.3000   24.0311 C   0  0  1  0  0  0
  -20.5938  -28.3744   23.1197 C   0  0  2  0  0  0
  -20.6798  -26.9430   22.5398 C   0  0  0  0  0  0
  -19.5777  -26.6374   21.5210 C   0  0  0  0  0  0
  -18.1960  -26.7939   22.1622 C   0  0  0  0  0  0
  -19.1577  -28.8895   23.2819 C   0  0  0  0  0  0
  -18.9489  -30.1486   23.8848 C   0  0  0  0  0  0
  -17.6482  -30.6592   24.0553 C   0  0  0  0  0  0
  -25.9089  -34.9374   23.5036 C   0  0  0  0  0  0
  -16.5375  -29.9082   23.6337 C   0  0  0  0  0  0
  -16.7298  -28.6505   23.0356 C   0  0  0  0  0  0
  -26.4541  -31.6547   25.0699 C   0  0  0  0  0  0
  -25.3678  -31.3775   26.1363 C   0  0  0  0  0  0
  -27.0424  -30.2925   24.6383 C   0  0  0  0  0  0
  -27.6050  -32.4338   25.7490 C   0  0  0  0  0  0
  -27.5574  -37.1770   24.8469 C   0  0  0  0  0  0
  -21.4319  -29.3045   22.3557 N   0  0  0  0  0  0
  -26.4285  -37.3726   23.9410 N   0  0  0  0  0  0
  -24.7422  -31.0000   22.0856 N   0  0  0  0  0  0
  -23.4219  -28.8038   23.3041 O   0  0  0  0  0  0
  -28.2568  -25.9250   20.2848 O   0  0  0  0  0  0
  -26.5699  -34.8901   22.4632 O   0  0  0  0  0  0
  -23.5655  -32.1240   23.6860 O   0  0  0  0  0  0
  -27.9232  -17.8004   21.8169 C   0  0  0  0  0  0
  -27.9366  -19.1423   21.0663 C   0  0  0  0  0  0
  -28.3211  -16.5777   20.9595 C   0  0  0  0  0  0
  -30.0775  -18.0816   20.0446 C   0  0  2  0  0  0
  -29.3396  -19.6025   20.6446 C   0  0  1  0  0  0
  -30.1603  -19.9589   21.9024 C   0  0  0  0  0  0
  -28.9238  -18.2515   17.7328 C   0  0  0  0  0  0
  -31.3411  -19.0210   17.9924 C   0  0  0  0  0  0
  -29.0906  -21.2151   19.9089 C   0  0  0  0  0  0
  -28.8097  -22.8400   20.5785 C   0  0  0  0  0  0
  -28.1603  -24.3468   19.8908 C   0  0  0  0  0  0
  -30.2438  -18.0696   18.4984 C   0  0  0  0  0  0
  -29.7152  -16.5313   20.4914 N   0  0  0  0  0  0
  -31.4604  -13.0257   19.1499 H   0  0  0  0  0  0
  -30.5587  -11.8653   20.0568 H   0  0  0  0  0  0
  -29.8968  -11.7801   17.6483 H   0  0  0  0  0  0
  -29.5687  -13.4958   17.6497 H   0  0  0  0  0  0
  -27.9936  -11.2926   18.9993 H   0  0  0  0  0  0
  -27.3999  -12.4455   17.8321 H   0  0  0  0  0  0
  -27.5620  -14.2578   19.4155 H   0  0  0  0  0  0
  -28.3554  -13.8021   21.8725 H   0  0  0  0  0  0
  -28.8801  -12.2877   21.3248 H   0  0  0  0  0  0
  -25.2765   -9.5625   22.4795 H   0  0  0  0  0  0
  -24.0000   -7.4587   22.7488 H   0  0  0  0  0  0
  -21.0843   -8.8736   19.8977 H   0  0  0  0  0  0
  -22.3711  -10.9637   19.6193 H   0  0  0  0  0  0
  -21.2021   -7.6142   23.9697 H   0  0  0  0  0  0
  -21.1500   -6.0539   25.9078 H   0  0  0  0  0  0
  -22.0606   -2.7600   23.2855 H   0  0  0  0  0  0
  -22.4001  -11.9799   22.4871 H   0  0  0  0  0  0
  -21.1017  -13.1197   22.2710 H   0  0  0  0  0  0
  -24.6092  -15.8269   20.5436 H   0  0  0  0  0  0
  -26.2310  -15.6427   20.1067 H   0  0  0  0  0  0
  -26.7341  -32.5182   23.0914 H   0  0  0  0  0  0
  -25.0054  -33.9518   25.0225 H   0  0  0  0  0  0
  -22.7814  -31.2700   21.3562 H   0  0  0  0  0  0
  -23.3771  -35.9534   23.3284 H   0  0  0  0  0  0
  -24.3572  -36.8889   22.2067 H   0  0  0  0  0  0
  -23.7215  -37.6398   23.6706 H   0  0  0  0  0  0
  -26.2076  -31.3956   20.6167 H   0  0  0  0  0  0
  -26.8991  -30.7104   22.0466 H   0  0  0  0  0  0
  -28.1435  -28.6546   21.2739 H   0  0  0  0  0  0
  -25.9111  -25.7718   18.9753 H   0  0  0  0  0  0
  -24.0126  -27.2734   18.9439 H   0  0  0  0  0  0
  -23.8525  -30.5268   19.3897 H   0  0  0  0  0  0
  -22.8183  -29.2045   19.8360 H   0  0  0  0  0  0
  -25.1319  -36.1821   25.0802 H   0  0  0  0  0  0
  -21.0021  -28.3347   24.1326 H   0  0  0  0  0  0
  -20.5679  -26.2365   23.3637 H   0  0  0  0  0  0
  -21.6663  -26.7417   22.1207 H   0  0  0  0  0  0
  -19.6942  -25.6275   21.1269 H   0  0  0  0  0  0
  -19.6713  -27.3158   20.6718 H   0  0  0  0  0  0
  -17.4223  -26.6665   21.4032 H   0  0  0  0  0  0
  -18.0365  -26.0098   22.9036 H   0  0  0  0  0  0
  -19.7965  -30.7311   24.2208 H   0  0  0  0  0  0
  -17.5035  -31.6268   24.5166 H   0  0  0  0  0  0
  -15.5376  -30.2969   23.7681 H   0  0  0  0  0  0
  -15.8704  -28.0804   22.7098 H   0  0  0  0  0  0
  -24.5888  -30.7096   25.7677 H   0  0  0  0  0  0
  -24.8827  -32.2960   26.4675 H   0  0  0  0  0  0
  -25.7919  -30.9027   27.0219 H   0  0  0  0  0  0
  -26.3073  -29.6621   24.1368 H   0  0  0  0  0  0
  -27.3963  -29.7267   25.5012 H   0  0  0  0  0  0
  -27.9013  -30.4134   23.9778 H   0  0  0  0  0  0
  -27.2648  -33.3690   26.1950 H   0  0  0  0  0  0
  -28.3916  -32.6815   25.0348 H   0  0  0  0  0  0
  -28.0656  -31.8536   26.5498 H   0  0  0  0  0  0
  -28.2584  -38.0074   24.7523 H   0  0  0  0  0  0
  -28.1077  -36.2604   24.6290 H   0  0  0  0  0  0
  -27.2290  -37.1408   25.8871 H   0  0  0  0  0  0
  -20.9576  -29.8736   21.6684 H   0  0  0  0  0  0
  -26.0148  -38.2794   24.1413 H   0  0  0  0  0  0
  -26.9069  -17.6360   22.1800 H   0  0  0  0  0  0
  -28.5360  -17.8488   22.7157 H   0  0  0  0  0  0
  -27.4656  -19.9087   21.6836 H   0  0  0  0  0  0
  -27.3086  -19.0507   20.1795 H   0  0  0  0  0  0
  -27.6805  -16.5242   20.0821 H   0  0  0  0  0  0
  -28.0822  -15.7374   21.5875 H   0  0  0  0  0  0
  -31.1041  -18.1406   20.4110 H   0  0  0  0  0  0
  -29.6541  -20.7014   22.5206 H   0  0  0  0  0  0
  -31.1274  -20.3801   21.6256 H   0  0  0  0  0  0
  -30.3629  -19.0928   22.5317 H   0  0  0  0  0  0
  -28.1871  -17.5048   18.0257 H   0  0  0  0  0  0
  -29.0794  -18.1429   16.6593 H   0  0  0  0  0  0
  -28.4856  -19.2340   17.8966 H   0  0  0  0  0  0
  -32.2930  -18.8180   18.4845 H   0  0  0  0  0  0
  -31.1086  -20.0677   18.1546 H   0  0  0  0  0  0
  -31.5024  -18.8956   16.9219 H   0  0  0  0  0  0
  -29.9505  -21.3833   19.2696 H   0  0  0  0  0  0
  -28.2704  -21.0730   19.2059 H   0  0  0  0  0  0
  -29.7801  -23.1260   20.9857 H   0  0  0  0  0  0
  -28.2026  -22.6712   21.4676 H   0  0  0  0  0  0
  -28.5066  -24.3443   18.8573 H   0  0  0  0  0  0
  -27.0946  -24.1435   19.8054 H   0  0  0  0  0  0
  -30.6070  -17.0803   18.2194 H   0  0  0  0  0  0
  1 25  1  0  0  0
  1 30  2  0  0  0
  1 83  1  0  0  0
  2  3  1  0  0  0
  2 25  1  0  0  0
  2 84  1  0  0  0
  2 85  1  0  0  0
  3  4  1  0  0  0
  3 86  1  0  0  0
  3 87  1  0  0  0
  4  5  1  0  0  0
  4 88  1  0  0  0
  4 89  1  0  0  0
  5  6  1  0  0  0
  5 26  1  0  0  0
  5 90  1  0  0  0
  6 25  1  0  0  0
  6 91  1  0  0  0
  6 92  1  0  0  0
  7  8  2  0  0  0
  7 26  1  0  0  0
  7 29  1  0  0  0
  8  9  1  0  0  0
  8 22  1  0  0  0
  9 10  1  0  0  0
  9 27  2  0  0  0
 10 11  2  0  0  0
 10 15  1  0  0  0
 11 12  1  0  0  0
 11 93  1  0  0  0
 12 13  2  0  0  0
 12 94  1  0  0  0
 13 14  1  0  0  0
 13 31  1  0  0  0
 14 15  2  0  0  0
 14 95  1  0  0  0
 15 96  1  0  0  0
 16 17  2  0  0  0
 16 21  1  0  0  0
 16 31  1  0  0  0
 17 18  1  0  0  0
 17 97  1  0  0  0
 18 19  2  0  0  0
 18 98  1  0  0  0
 19 20  1  0  0  0
 19 24  1  0  0  0
 20 21  2  0  0  0
 20 99  1  0  0  0
 21 23  1  0  0  0
 22 28  1  0  0  0
 22 32  2  0  0  0
 26 27  1  0  0  0
 28100  1  0  0  0
 28101  1  0  0  0
 29102  1  0  0  0
 29103  1  0  0  0
 33 34  1  0  0  0
 33 66  1  0  0  0
 33 70  2  0  0  0
 34 36  1  0  0  0
 34 59  1  0  0  0
 34104  1  0  0  0
 35 44  2  0  0  0
 35 45  1  0  0  0
 35 68  1  0  0  0
 36 56  1  0  0  0
 36105  1  0  0  0
 37 39  1  0  0  0
 37 47  1  0  0  0
 37 66  1  0  0  0
 37106  1  0  0  0
 38 43  2  0  0  0
 38 46  1  0  0  0
 38 47  1  0  0  0
 39 64  1  0  0  0
 39 67  2  0  0  0
 40 52  1  0  0  0
 40 53  2  0  0  0
 40 58  1  0  0  0
 41107  1  0  0  0
 41108  1  0  0  0
 41109  1  0  0  0
 41 48  1  0  0  0
 42 43  1  0  0  0
 42 66  1  0  0  0
 42110  1  0  0  0
 42111  1  0  0  0
 43 44  1  0  0  0
 44112  1  0  0  0
 45 46  2  0  0  0
 45113  1  0  0  0
 46114  1  0  0  0
 47115  1  0  0  0
 47116  1  0  0  0
 48 56  1  0  0  0
 48 65  1  0  0  0
 48117  1  0  0  0
 49 50  1  0  0  0
 49 53  1  0  0  0
 49 64  1  0  0  0
 49118  1  0  0  0
 50 51  1  0  0  0
 50119  1  0  0  0
 50120  1  0  0  0
 51 52  1  0  0  0
 51121  1  0  0  0
 51122  1  0  0  0
 52123  1  0  0  0
 52124  1  0  0  0
 53 54  1  0  0  0
 54 55  2  0  0  0
 54125  1  0  0  0
 55 57  1  0  0  0
 55126  1  0  0  0
 56 69  2  0  0  0
 57 58  2  0  0  0
 57127  1  0  0  0
 58128  1  0  0  0
 59 60  1  0  0  0
 59 61  1  0  0  0
 59 62  1  0  0  0
 60129  1  0  0  0
 60130  1  0  0  0
 60131  1  0  0  0
 61132  1  0  0  0
 61133  1  0  0  0
 61134  1  0  0  0
 62135  1  0  0  0
 62136  1  0  0  0
 62137  1  0  0  0
 63 65  1  0  0  0
 63138  1  0  0  0
 63139  1  0  0  0
 63140  1  0  0  0
 64141  1  0  0  0
 65142  1  0  0  0
 68 81  1  0  0  0
 71 72  1  0  0  0
 71 73  1  0  0  0
 71143  1  0  0  0
 71144  1  0  0  0
 72 75  1  0  0  0
 72145  1  0  0  0
 72146  1  0  0  0
 73 83  1  0  0  0
 73147  1  0  0  0
 73148  1  0  0  0
 74 75  1  0  0  0
 74 82  1  0  0  0
 74 83  1  0  0  0
 74149  1  0  0  0
 75 76  1  0  0  0
 75 79  1  0  0  0
 76150  1  0  0  0
 76151  1  0  0  0
 76152  1  0  0  0
 77153  1  0  0  0
 77154  1  0  0  0
 77155  1  0  0  0
 77 82  1  0  0  0
 78 82  1  0  0  0
 78156  1  0  0  0
 78157  1  0  0  0
 78158  1  0  0  0
 79 80  1  0  0  0
 79159  1  0  0  0
 79160  1  0  0  0
 80 81  1  0  0  0
 80161  1  0  0  0
 80162  1  0  0  0
 81163  1  0  0  0
 81164  1  0  0  0
 82165  1  0  0  0
M  ISO  4   1 100  68 101  81 101  83 100
M  END
> <chiral flag>
0

> <version>
0

> <s_m_source_file>
/data/baiqing/PycharmProjects/Reinvent-master-3.2/result/LINK_invent/BTK/process_docking_weight1_custom_sum_contain_oxygen_bond_distance_aromatic_linkinvent_7_9_3/rearranged_h_0092.sdf

> <i_m_source_file_index>
5

> <r_mmod_Potential_Energy-OPLS-2005>
1412.60888671875

> <r_mmod_Stretch_Energy-OPLS-2005>
581.969482421875

> <r_mmod_Bend_Energy-OPLS-2005>
451.942169189453

> <r_mmod_Torsional_Energy-OPLS-2005>
358.826324462891

> <r_mmod_Improper_Torsional_Energy-OPLS-2005>
5.53127431869507

> <r_mmod_Van_der_Waal_Energy-OPLS-2005>
119.303741455078

> <r_mmod_Electrostatic_Energy-OPLS-2005>
-304.087188720703

> <r_mmod_Solvation_Energy-OPLS-2005>
-182.796844482422

> <b_mmod_Minimization_Converged-OPLS-2005>
0

> <r_mmod_RMS_Derivative-OPLS-2005>
1.68774795532227

$$$$
5
                    3D
 Structure written by MMmdl.
174182  0  0  1  0            999 V2000
  -30.6660  -14.7178   20.4522 C   0  0  0  0  0  0
  -30.4174  -12.4393   19.4523 C   0  0  0  0  0  0
  -29.4888  -12.5322   18.2171 C   0  0  0  0  0  0
  -28.0289  -12.3173   18.6496 C   0  0  0  0  0  0
  -27.6459  -13.2289   19.8431 C   0  0  2  0  0  0
  -28.6987  -13.1637   20.9770 C   0  0  0  0  0  0
  -25.2579  -13.8206   20.5657 C   0  0  0  0  0  0
  -24.1848  -13.0476   20.9220 C   0  0  0  0  0  0
  -24.6448  -11.6935   20.8777 C   0  0  0  0  0  0
  -23.9116  -10.4312   21.0411 C   0  0  0  0  0  0
  -24.3666   -9.4197   21.9167 C   0  0  0  0  0  0
  -23.6317   -8.2253   22.0717 C   0  0  0  0  0  0
  -22.4294   -8.0315   21.3532 C   0  0  0  0  0  0
  -21.9945   -9.0289   20.4633 C   0  0  0  0  0  0
  -22.7301  -10.2155   20.3042 C   0  0  0  0  0  0
  -21.6851   -6.0776   22.5281 C   0  0  0  0  0  0
  -21.4004   -6.5644   23.8230 C   0  0  0  0  0  0
  -21.3662   -5.6785   24.9174 C   0  0  0  0  0  0
  -21.6052   -4.3057   24.7203 C   0  0  0  0  0  0
  -21.8828   -3.8172   23.4313 C   0  0  0  0  0  0
  -21.9178   -4.7004   22.3376 C   0  0  0  0  0  0
  -22.7862  -13.5214   21.1849 C   0  0  0  0  0  0
  -22.1652   -4.2217   21.0942 F   0  0  0  0  0  0
  -21.5630   -3.4505   25.7692 F   0  0  0  0  0  0
  -30.0095  -13.5034   20.4024 N   0  0  0  0  0  0
  -26.2998  -12.9419   20.3285 N   0  0  0  0  0  0
  -25.9387  -11.6581   20.5837 N   0  0  0  0  0  0
  -22.0503  -12.8251   22.0421 N   0  0  0  0  0  0
  -25.4361  -15.1912   20.3971 N   0  0  0  0  0  0
  -31.8239  -14.8039   20.0432 O   0  0  0  0  0  0
  -21.6636   -6.8918   21.4245 O   0  0  0  0  0  0
  -22.3520  -14.5469   20.6615 O   0  0  0  0  0  0
  -24.6197  -31.8601   23.2039 C   0  0  0  0  0  0
  -25.9043  -32.4800   23.8355 C   0  0  1  0  0  0
  -27.2126  -27.2999   20.1481 C   0  0  0  0  0  0
  -25.5857  -33.8610   24.2278 N   0  0  0  0  0  0
  -23.4151  -30.4811   21.5474 C   0  0  2  0  0  0
  -24.8663  -28.9309   20.1191 C   0  0  0  0  0  0
  -22.7456  -29.4600   22.4970 C   0  0  0  0  0  0
  -18.0282  -28.1401   22.8503 C   0  0  0  0  0  0
  -24.1491  -36.7274   23.2650 C   0  0  0  0  0  0
  -25.9588  -30.7861   21.3811 C   0  0  0  0  0  0
  -26.0329  -29.4103   20.7244 C   0  0  0  0  0  0
  -27.2120  -28.6071   20.7295 C   0  0  0  0  0  0
  -26.0227  -26.8602   19.5348 C   0  0  0  0  0  0
  -24.8625  -27.6626   19.5135 C   0  0  0  0  0  0
  -23.6331  -29.8114   20.1641 C   0  0  0  0  0  0
  -25.4120  -36.3096   24.0335 C   0  0  1  0  0  0
  -20.5881  -28.3677   23.1331 C   0  0  2  0  0  0
  -20.6785  -26.9404   22.5449 C   0  0  0  0  0  0
  -19.5776  -26.6377   21.5240 C   0  0  0  0  0  0
  -18.1928  -26.7950   22.1619 C   0  0  0  0  0  0
  -19.1528  -28.8841   23.2904 C   0  0  0  0  0  0
  -18.9481  -30.1462   23.8911 C   0  0  0  0  0  0
  -17.6474  -30.6597   24.0558 C   0  0  0  0  0  0
  -25.9042  -34.9473   23.5094 C   0  0  0  0  0  0
  -16.5366  -29.9105   23.6332 C   0  0  0  0  0  0
  -16.7255  -28.6519   23.0348 C   0  0  0  0  0  0
  -26.4403  -31.6635   25.0737 C   0  0  0  0  0  0
  -25.3595  -31.3821   26.1436 C   0  0  0  0  0  0
  -27.0279  -30.3074   24.6200 C   0  0  0  0  0  0
  -27.5952  -32.4381   25.7508 C   0  0  0  0  0  0
  -27.5599  -37.1790   24.8452 C   0  0  0  0  0  0
  -21.4179  -29.3006   22.3714 N   0  0  0  0  0  0
  -26.4310  -37.3773   23.9403 N   0  0  0  0  0  0
  -24.6824  -31.0604   22.0993 N   0  0  0  0  0  0
  -23.4206  -28.8168   23.3050 O   0  0  0  0  0  0
  -28.3282  -26.4521   20.1135 O   0  0  0  0  0  0
  -26.5639  -34.8941   22.4692 O   0  0  0  0  0  0
  -23.5356  -32.1424   23.7330 O   0  0  0  0  0  0
  -29.3790  -22.9872   22.5063 C   0  0  0  0  0  0
  -30.6999  -22.8879   22.9756 C   0  0  0  0  0  0
  -29.0877  -22.5379   21.2064 C   0  0  0  0  0  0
  -31.6964  -22.3032   22.1631 C   0  0  0  0  0  0
  -29.9051  -21.4186   20.7569 C   0  0  0  0  0  0
  -31.2968  -21.5491   21.0202 C   0  0  0  0  0  0
  -33.6311  -21.5607   23.6410 C   0  0  0  0  0  0
  -33.3385  -20.0209   20.3993 C   0  0  0  0  0  0
  -32.8027  -22.2049   19.1117 C   0  0  0  0  0  0
  -28.6293  -18.3070   22.0071 C   0  0  0  0  0  0
  -33.1445  -22.5440   22.5724 C   0  0  0  0  0  0
  -28.5442  -23.7069   20.2616 C   0  0  0  0  0  0
  -29.3738  -20.0149   20.2167 C   0  0  0  0  0  0
  -30.1350  -17.2867   20.1643 C   0  0  0  0  0  0
  -28.3023  -25.1881   20.8944 C   0  0  0  0  0  0
  -32.2673  -21.0293   19.9484 C   0  0  0  0  0  0
  -29.7481  -18.6292   21.0044 C   0  0  2  0  0  0
  -29.9451  -15.8689   20.7315 N   0  0  0  0  0  0
  -31.4640  -12.5017   19.1478 H   0  0  0  0  0  0
  -30.3004  -11.4645   19.9245 H   0  0  0  0  0  0
  -29.7693  -11.7896   17.4702 H   0  0  0  0  0  0
  -29.5770  -13.5126   17.7422 H   0  0  0  0  0  0
  -27.9187  -11.2682   18.9303 H   0  0  0  0  0  0
  -27.3442  -12.4637   17.8129 H   0  0  0  0  0  0
  -27.6440  -14.2476   19.4505 H   0  0  0  0  0  0
  -28.7350  -12.1627   21.4053 H   0  0  0  0  0  0
  -28.4309  -13.8309   21.7955 H   0  0  0  0  0  0
  -25.2873   -9.5612   22.4670 H   0  0  0  0  0  0
  -24.0075   -7.4590   22.7369 H   0  0  0  0  0  0
  -21.0906   -8.8824   19.8875 H   0  0  0  0  0  0
  -22.3854  -10.9680   19.6098 H   0  0  0  0  0  0
  -21.2001   -7.6156   23.9768 H   0  0  0  0  0  0
  -21.1469   -6.0486   25.9092 H   0  0  0  0  0  0
  -22.0599   -2.7641   23.2775 H   0  0  0  0  0  0
  -22.4228  -12.0027   22.4956 H   0  0  0  0  0  0
  -21.1041  -13.1175   22.2462 H   0  0  0  0  0  0
  -24.6772  -15.8566   20.4760 H   0  0  0  0  0  0
  -26.2973  -15.6070   20.0635 H   0  0  0  0  0  0
  -26.7115  -32.5473   23.1118 H   0  0  0  0  0  0
  -24.9963  -33.9773   25.0391 H   0  0  0  0  0  0
  -22.7039  -31.2976   21.4059 H   0  0  0  0  0  0
  -23.3783  -35.9570   23.3295 H   0  0  0  0  0  0
  -24.3568  -36.8900   22.2064 H   0  0  0  0  0  0
  -23.7213  -37.6464   23.6674 H   0  0  0  0  0  0
  -26.0969  -31.5501   20.6174 H   0  0  0  0  0  0
  -26.8333  -30.8325   22.0169 H   0  0  0  0  0  0
  -28.1121  -28.9720   21.2068 H   0  0  0  0  0  0
  -25.9854  -25.8813   19.0775 H   0  0  0  0  0  0
  -23.9626  -27.2872   19.0477 H   0  0  0  0  0  0
  -23.7502  -30.5852   19.4054 H   0  0  0  0  0  0
  -22.7526  -29.2370   19.8699 H   0  0  0  0  0  0
  -25.1321  -36.1948   25.0829 H   0  0  0  0  0  0
  -20.9949  -28.3228   24.1463 H   0  0  0  0  0  0
  -20.5723  -26.2248   23.3629 H   0  0  0  0  0  0
  -21.6658  -26.7457   22.1231 H   0  0  0  0  0  0
  -19.6924  -25.6279   21.1280 H   0  0  0  0  0  0
  -19.6750  -27.3186   20.6784 H   0  0  0  0  0  0
  -17.4223  -26.6705   21.3998 H   0  0  0  0  0  0
  -18.0309  -26.0101   22.9035 H   0  0  0  0  0  0
  -19.7950  -30.7268   24.2290 H   0  0  0  0  0  0
  -17.5026  -31.6294   24.5163 H   0  0  0  0  0  0
  -15.5359  -30.3004   23.7658 H   0  0  0  0  0  0
  -15.8667  -28.0831   22.7068 H   0  0  0  0  0  0
  -24.5682  -30.7295   25.7720 H   0  0  0  0  0  0
  -24.8891  -32.3054   26.4851 H   0  0  0  0  0  0
  -25.7831  -30.8929   27.0217 H   0  0  0  0  0  0
  -26.2908  -29.6846   24.1142 H   0  0  0  0  0  0
  -27.3924  -29.7315   25.4713 H   0  0  0  0  0  0
  -27.8767  -30.4405   23.9483 H   0  0  0  0  0  0
  -27.2549  -33.3651   26.2137 H   0  0  0  0  0  0
  -28.3730  -32.6990   25.0323 H   0  0  0  0  0  0
  -28.0654  -31.8483   26.5385 H   0  0  0  0  0  0
  -28.2608  -38.0099   24.7523 H   0  0  0  0  0  0
  -28.1116  -36.2638   24.6262 H   0  0  0  0  0  0
  -27.2324  -37.1418   25.8855 H   0  0  0  0  0  0
  -20.9343  -29.8682   21.6899 H   0  0  0  0  0  0
  -26.0193  -38.2843   24.1433 H   0  0  0  0  0  0
  -28.7150  -23.6603   23.0286 H   0  0  0  0  0  0
  -30.9696  -23.4156   23.8779 H   0  0  0  0  0  0
  -34.6921  -21.7140   23.8308 H   0  0  0  0  0  0
  -33.5005  -20.5232   23.3279 H   0  0  0  0  0  0
  -33.1016  -21.7013   24.5846 H   0  0  0  0  0  0
  -32.8917  -19.1775   20.9275 H   0  0  0  0  0  0
  -34.1096  -20.4592   21.0292 H   0  0  0  0  0  0
  -33.8469  -19.6103   19.5252 H   0  0  0  0  0  0
  -31.9667  -22.7731   18.7016 H   0  0  0  0  0  0
  -33.3993  -21.8567   18.2700 H   0  0  0  0  0  0
  -33.4064  -22.9088   19.6814 H   0  0  0  0  0  0
  -28.3690  -19.1877   22.5971 H   0  0  0  0  0  0
  -28.9256  -17.5354   22.7161 H   0  0  0  0  0  0
  -27.7372  -17.9585   21.4849 H   0  0  0  0  0  0
  -33.2376  -23.5627   22.9545 H   0  0  0  0  0  0
  -33.8094  -22.5148   21.7145 H   0  0  0  0  0  0
  -27.6199  -23.3771   19.7886 H   0  0  0  0  0  0
  -29.2638  -23.8115   19.4481 H   0  0  0  0  0  0
  -29.6401  -19.9234   19.1630 H   0  0  0  0  0  0
  -28.2891  -20.0945   20.1951 H   0  0  0  0  0  0
  -31.1564  -17.3986   19.7959 H   0  0  0  0  0  0
  -29.5316  -17.2989   19.2598 H   0  0  0  0  0  0
  -29.1123  -25.3866   21.5961 H   0  0  0  0  0  0
  -27.4015  -25.1569   21.5108 H   0  0  0  0  0  0
  -31.6823  -20.4709   19.2222 H   0  0  0  0  0  0
  -30.6226  -18.8598   21.6107 H   0  0  0  0  0  0
  -29.0494  -15.6944   21.1562 H   0  0  0  0  0  0
  1 25  1  0  0  0
  1 30  2  0  0  0
  1 88  1  0  0  0
  2  3  1  0  0  0
  2 25  1  0  0  0
  2 89  1  0  0  0
  2 90  1  0  0  0
  3  4  1  0  0  0
  3 91  1  0  0  0
  3 92  1  0  0  0
  4  5  1  0  0  0
  4 93  1  0  0  0
  4 94  1  0  0  0
  5  6  1  0  0  0
  5 26  1  0  0  0
  5 95  1  0  0  0
  6 25  1  0  0  0
  6 96  1  0  0  0
  6 97  1  0  0  0
  7  8  2  0  0  0
  7 26  1  0  0  0
  7 29  1  0  0  0
  8  9  1  0  0  0
  8 22  1  0  0  0
  9 10  1  0  0  0
  9 27  2  0  0  0
 10 11  2  0  0  0
 10 15  1  0  0  0
 11 12  1  0  0  0
 11 98  1  0  0  0
 12 13  2  0  0  0
 12 99  1  0  0  0
 13 14  1  0  0  0
 13 31  1  0  0  0
 14 15  2  0  0  0
 14100  1  0  0  0
 15101  1  0  0  0
 16 17  2  0  0  0
 16 21  1  0  0  0
 16 31  1  0  0  0
 17 18  1  0  0  0
 17102  1  0  0  0
 18 19  2  0  0  0
 18103  1  0  0  0
 19 20  1  0  0  0
 19 24  1  0  0  0
 20 21  2  0  0  0
 20104  1  0  0  0
 21 23  1  0  0  0
 22 28  1  0  0  0
 22 32  2  0  0  0
 26 27  1  0  0  0
 28105  1  0  0  0
 28106  1  0  0  0
 29107  1  0  0  0
 29108  1  0  0  0
 33 34  1  0  0  0
 33 66  1  0  0  0
 33 70  2  0  0  0
 34 36  1  0  0  0
 34 59  1  0  0  0
 34109  1  0  0  0
 35 44  2  0  0  0
 35 45  1  0  0  0
 35 68  1  0  0  0
 36 56  1  0  0  0
 36110  1  0  0  0
 37 39  1  0  0  0
 37 47  1  0  0  0
 37 66  1  0  0  0
 37111  1  0  0  0
 38 43  2  0  0  0
 38 46  1  0  0  0
 38 47  1  0  0  0
 39 64  1  0  0  0
 39 67  2  0  0  0
 40 52  1  0  0  0
 40 53  2  0  0  0
 40 58  1  0  0  0
 41112  1  0  0  0
 41113  1  0  0  0
 41114  1  0  0  0
 41 48  1  0  0  0
 42 43  1  0  0  0
 42 66  1  0  0  0
 42115  1  0  0  0
 42116  1  0  0  0
 43 44  1  0  0  0
 44117  1  0  0  0
 45 46  2  0  0  0
 45118  1  0  0  0
 46119  1  0  0  0
 47120  1  0  0  0
 47121  1  0  0  0
 48 56  1  0  0  0
 48 65  1  0  0  0
 48122  1  0  0  0
 49 50  1  0  0  0
 49 53  1  0  0  0
 49 64  1  0  0  0
 49123  1  0  0  0
 50 51  1  0  0  0
 50124  1  0  0  0
 50125  1  0  0  0
 51 52  1  0  0  0
 51126  1  0  0  0
 51127  1  0  0  0
 52128  1  0  0  0
 52129  1  0  0  0
 53 54  1  0  0  0
 54 55  2  0  0  0
 54130  1  0  0  0
 55 57  1  0  0  0
 55131  1  0  0  0
 56 69  2  0  0  0
 57 58  2  0  0  0
 57132  1  0  0  0
 58133  1  0  0  0
 59 60  1  0  0  0
 59 61  1  0  0  0
 59 62  1  0  0  0
 60134  1  0  0  0
 60135  1  0  0  0
 60136  1  0  0  0
 61137  1  0  0  0
 61138  1  0  0  0
 61139  1  0  0  0
 62140  1  0  0  0
 62141  1  0  0  0
 62142  1  0  0  0
 63 65  1  0  0  0
 63143  1  0  0  0
 63144  1  0  0  0
 63145  1  0  0  0
 64146  1  0  0  0
 65147  1  0  0  0
 68 85  1  0  0  0
 71 72  2  0  0  0
 71 73  1  0  0  0
 71148  1  0  0  0
 72 74  1  0  0  0
 72149  1  0  0  0
 73 75  2  0  0  0
 73 82  1  0  0  0
 74 76  2  0  0  0
 74 81  1  0  0  0
 75 76  1  0  0  0
 75 83  1  0  0  0
 76 86  1  0  0  0
 77 81  1  0  0  0
 77150  1  0  0  0
 77151  1  0  0  0
 77152  1  0  0  0
 78153  1  0  0  0
 78154  1  0  0  0
 78155  1  0  0  0
 78 86  1  0  0  0
 79 86  1  0  0  0
 79156  1  0  0  0
 79157  1  0  0  0
 79158  1  0  0  0
 80159  1  0  0  0
 80160  1  0  0  0
 80161  1  0  0  0
 80 87  1  0  0  0
 81162  1  0  0  0
 81163  1  0  0  0
 82 85  1  0  0  0
 82164  1  0  0  0
 82165  1  0  0  0
 83 87  1  0  0  0
 83166  1  0  0  0
 83167  1  0  0  0
 84 87  1  0  0  0
 84 88  1  0  0  0
 84168  1  0  0  0
 84169  1  0  0  0
 85170  1  0  0  0
 85171  1  0  0  0
 86172  1  0  0  0
 87173  1  0  0  0
 88174  1  0  0  0
M  ISO  4   1 100  68 101  85 101  88 100
M  END
> <chiral flag>
0

> <version>
0

> <s_m_source_file>
/data/baiqing/PycharmProjects/Reinvent-master-3.2/result/LINK_invent/BTK/process_docking_weight1_custom_sum_contain_oxygen_bond_distance_aromatic_linkinvent_7_9_3/rearranged_h_0092.sdf

> <i_m_source_file_index>
6

> <r_mmod_Potential_Energy-OPLS-2005>
383.953582763672

> <r_mmod_Stretch_Energy-OPLS-2005>
130.580368041992

> <r_mmod_Bend_Energy-OPLS-2005>
190.914413452148

> <r_mmod_Torsional_Energy-OPLS-2005>
454.247192382812

> <r_mmod_Improper_Torsional_Energy-OPLS-2005>
19.5556697845459

> <r_mmod_Van_der_Waal_Energy-OPLS-2005>
138.669250488281

> <r_mmod_Electrostatic_Energy-OPLS-2005>
-419.619476318359

> <r_mmod_Solvation_Energy-OPLS-2005>
-196.815277099609

> <b_mmod_Minimization_Converged-OPLS-2005>
0

> <r_mmod_RMS_Derivative-OPLS-2005>
6.63411283493042

$$$$
6
                    3D
 Structure written by MMmdl.
169177  0  0  1  0            999 V2000
  -30.6171  -14.7260   20.4806 C   0  0  0  0  0  0
  -30.4303  -12.4498   19.4647 C   0  0  0  0  0  0
  -29.5027  -12.5008   18.2309 C   0  0  0  0  0  0
  -28.0290  -12.3311   18.6490 C   0  0  0  0  0  0
  -27.6399  -13.2316   19.8515 C   0  0  2  0  0  0
  -28.6847  -13.1608   20.9850 C   0  0  0  0  0  0
  -25.2515  -13.8201   20.5740 C   0  0  0  0  0  0
  -24.1803  -13.0448   20.9235 C   0  0  0  0  0  0
  -24.6388  -11.6935   20.8762 C   0  0  0  0  0  0
  -23.9080  -10.4301   21.0412 C   0  0  0  0  0  0
  -24.3619   -9.4214   21.9188 C   0  0  0  0  0  0
  -23.6298   -8.2250   22.0754 C   0  0  0  0  0  0
  -22.4286   -8.0279   21.3543 C   0  0  0  0  0  0
  -21.9919   -9.0262   20.4654 C   0  0  0  0  0  0
  -22.7250  -10.2143   20.3067 C   0  0  0  0  0  0
  -21.6852   -6.0745   22.5285 C   0  0  0  0  0  0
  -21.4005   -6.5644   23.8223 C   0  0  0  0  0  0
  -21.3660   -5.6797   24.9178 C   0  0  0  0  0  0
  -21.6037   -4.3065   24.7231 C   0  0  0  0  0  0
  -21.8824   -3.8157   23.4358 C   0  0  0  0  0  0
  -21.9194   -4.6969   22.3407 C   0  0  0  0  0  0
  -22.7826  -13.5219   21.1892 C   0  0  0  0  0  0
  -22.1669   -4.2156   21.0991 F   0  0  0  0  0  0
  -21.5623   -3.4548   25.7748 F   0  0  0  0  0  0
  -29.9843  -13.5080   20.4002 N   0  0  0  0  0  0
  -26.2935  -12.9409   20.3311 N   0  0  0  0  0  0
  -25.9319  -11.6555   20.5777 N   0  0  0  0  0  0
  -22.0472  -12.8198   22.0439 N   0  0  0  0  0  0
  -25.4195  -15.1930   20.4183 N   0  0  0  0  0  0
  -31.8063  -14.8211   20.1654 O   0  0  0  0  0  0
  -21.6644   -6.8884   21.4247 O   0  0  0  0  0  0
  -22.3513  -14.5531   20.6743 O   0  0  0  0  0  0
  -24.6339  -31.8532   23.1997 C   0  0  0  0  0  0
  -25.9166  -32.4727   23.8344 C   0  0  1  0  0  0
  -27.2134  -27.2572   20.1330 C   0  0  0  0  0  0
  -25.5928  -33.8532   24.2261 N   0  0  0  0  0  0
  -23.4282  -30.4791   21.5411 C   0  0  2  0  0  0
  -24.8755  -28.9292   20.1041 C   0  0  0  0  0  0
  -22.7520  -29.4592   22.4890 C   0  0  0  0  0  0
  -18.0307  -28.1368   22.8455 C   0  0  0  0  0  0
  -24.1491  -36.7309   23.2631 C   0  0  0  0  0  0
  -25.9768  -30.7618   21.3824 C   0  0  0  0  0  0
  -26.0461  -29.3859   20.7226 C   0  0  0  0  0  0
  -27.2172  -28.5637   20.7257 C   0  0  0  0  0  0
  -26.0239  -26.8697   19.4738 C   0  0  0  0  0  0
  -24.8701  -27.6769   19.4687 C   0  0  0  0  0  0
  -23.6482  -29.8197   20.1548 C   0  0  0  0  0  0
  -25.4104  -36.3055   24.0320 C   0  0  1  0  0  0
  -20.5912  -28.3678   23.1236 C   0  0  2  0  0  0
  -20.6797  -26.9384   22.5399 C   0  0  0  0  0  0
  -19.5762  -26.6354   21.5203 C   0  0  0  0  0  0
  -18.1931  -26.7902   22.1605 C   0  0  0  0  0  0
  -19.1559  -28.8843   23.2841 C   0  0  0  0  0  0
  -18.9474  -30.1445   23.8845 C   0  0  0  0  0  0
  -17.6475  -30.6552   24.0554 C   0  0  0  0  0  0
  -25.9042  -34.9420   23.5097 C   0  0  0  0  0  0
  -16.5371  -29.9052   23.6314 C   0  0  0  0  0  0
  -16.7290  -28.6489   23.0297 C   0  0  0  0  0  0
  -26.4521  -31.6529   25.0726 C   0  0  0  0  0  0
  -25.3742  -31.3666   26.1452 C   0  0  0  0  0  0
  -27.0395  -30.2939   24.6240 C   0  0  0  0  0  0
  -27.6084  -32.4294   25.7483 C   0  0  0  0  0  0
  -27.5579  -37.1789   24.8438 C   0  0  0  0  0  0
  -21.4232  -29.3038   22.3633 N   0  0  0  0  0  0
  -26.4284  -37.3747   23.9397 N   0  0  0  0  0  0
  -24.6990  -31.0515   22.0965 N   0  0  0  0  0  0
  -23.4236  -28.8109   23.2955 O   0  0  0  0  0  0
  -28.3029  -26.3587   20.2180 O   0  0  0  0  0  0
  -26.5614  -34.8882   22.4672 O   0  0  0  0  0  0
  -23.5490  -32.1389   23.7257 O   0  0  0  0  0  0
  -27.6057  -21.5462   21.9978 C   0  0  0  0  0  0
  -28.5573  -21.0681   21.0762 C   0  0  0  0  0  0
  -28.7439  -19.5983   21.1130 C   0  0  0  0  0  0
  -27.0600  -19.4610   22.7014 C   0  0  0  0  0  0
  -25.4062  -18.1597   27.3340 C   0  0  0  0  0  0
  -29.1548  -22.2166   20.1462 C   0  0  0  0  0  0
  -26.1001  -18.5940   23.5011 C   0  0  0  0  0  0
  -25.2106  -18.0055   25.8219 C   0  0  0  0  0  0
  -29.1299  -23.7987   20.5823 C   0  0  0  0  0  0
  -26.3891  -18.5737   25.0116 C   0  0  0  0  0  0
  -30.3550  -17.3126   20.8592 C   0  0  0  0  0  0
  -28.0753  -24.8838   20.0160 C   0  0  0  0  0  0
  -29.6061  -18.6196   20.2034 C   0  0  2  0  0  0
  -26.8710  -20.7604   22.7907 N   0  0  0  0  0  0
  -27.9630  -18.8651   21.9380 N   0  0  0  0  0  0
  -29.8634  -15.8648   20.7257 N   0  0  0  0  0  0
  -30.6130  -19.4795   19.5822 N   0  3  0  0  0  0
  -31.4688  -12.5793   19.1528 H   0  0  0  0  0  0
  -30.3837  -11.4710   19.9464 H   0  0  0  0  0  0
  -29.7778  -11.7204   17.5202 H   0  0  0  0  0  0
  -29.6311  -13.4496   17.7102 H   0  0  0  0  0  0
  -27.8804  -11.2835   18.9109 H   0  0  0  0  0  0
  -27.3700  -12.5296   17.8016 H   0  0  0  0  0  0
  -27.6364  -14.2540   19.4728 H   0  0  0  0  0  0
  -28.7191  -12.1647   21.4281 H   0  0  0  0  0  0
  -28.4250  -13.8455   21.7948 H   0  0  0  0  0  0
  -25.2759   -9.5693   22.4775 H   0  0  0  0  0  0
  -24.0018   -7.4635   22.7464 H   0  0  0  0  0  0
  -21.0859   -8.8784   19.8954 H   0  0  0  0  0  0
  -22.3703  -10.9686   19.6194 H   0  0  0  0  0  0
  -21.1992   -7.6150   23.9723 H   0  0  0  0  0  0
  -21.1472   -6.0528   25.9079 H   0  0  0  0  0  0
  -22.0597   -2.7623   23.2861 H   0  0  0  0  0  0
  -22.4102  -11.9852   22.4803 H   0  0  0  0  0  0
  -21.1094  -13.1213   22.2659 H   0  0  0  0  0  0
  -24.6457  -15.8412   20.5184 H   0  0  0  0  0  0
  -26.2622  -15.6343   20.0744 H   0  0  0  0  0  0
  -26.7208  -32.5384   23.1074 H   0  0  0  0  0  0
  -25.0085  -33.9642   25.0403 H   0  0  0  0  0  0
  -22.7246  -31.3019   21.3961 H   0  0  0  0  0  0
  -23.3731  -35.9656   23.3266 H   0  0  0  0  0  0
  -24.3597  -36.8992   22.2051 H   0  0  0  0  0  0
  -23.7292  -37.6521   23.6698 H   0  0  0  0  0  0
  -26.1179  -31.5172   20.6085 H   0  0  0  0  0  0
  -26.8575  -30.8138   22.0116 H   0  0  0  0  0  0
  -28.1112  -28.9018   21.2315 H   0  0  0  0  0  0
  -25.9525  -25.9165   18.9725 H   0  0  0  0  0  0
  -23.9765  -27.3250   18.9708 H   0  0  0  0  0  0
  -23.7805  -30.6055   19.4092 H   0  0  0  0  0  0
  -22.7642  -29.2637   19.8410 H   0  0  0  0  0  0
  -25.1280  -36.1888   25.0808 H   0  0  0  0  0  0
  -20.9993  -28.3268   24.1365 H   0  0  0  0  0  0
  -20.5674  -26.2288   23.3617 H   0  0  0  0  0  0
  -21.6660  -26.7388   22.1200 H   0  0  0  0  0  0
  -19.6927  -25.6262   21.1239 H   0  0  0  0  0  0
  -19.6708  -27.3163   20.6730 H   0  0  0  0  0  0
  -17.4221  -26.6635   21.4002 H   0  0  0  0  0  0
  -18.0334  -26.0039   22.8991 H   0  0  0  0  0  0
  -19.7948  -30.7286   24.2172 H   0  0  0  0  0  0
  -17.5019  -31.6212   24.5191 H   0  0  0  0  0  0
  -15.5363  -30.2934   23.7664 H   0  0  0  0  0  0
  -15.8695  -28.0840   22.6956 H   0  0  0  0  0  0
  -24.5917  -30.6984   25.7810 H   0  0  0  0  0  0
  -24.8906  -32.2808   26.4869 H   0  0  0  0  0  0
  -25.8060  -30.8863   27.0234 H   0  0  0  0  0  0
  -26.2984  -29.6605   24.1318 H   0  0  0  0  0  0
  -27.4163  -29.7231   25.4756 H   0  0  0  0  0  0
  -27.8828  -30.4218   23.9427 H   0  0  0  0  0  0
  -27.2713  -33.3626   26.2001 H   0  0  0  0  0  0
  -28.3905  -32.6821   25.0293 H   0  0  0  0  0  0
  -28.0735  -31.8449   26.5431 H   0  0  0  0  0  0
  -28.2535  -38.0140   24.7556 H   0  0  0  0  0  0
  -28.1159  -36.2692   24.6192 H   0  0  0  0  0  0
  -27.2323  -37.1348   25.8843 H   0  0  0  0  0  0
  -20.9405  -29.8838   21.6916 H   0  0  0  0  0  0
  -26.0155  -38.2805   24.1444 H   0  0  0  0  0  0
  -27.3713  -22.5960   22.0762 H   0  0  0  0  0  0
  -24.5640  -17.7352   27.8809 H   0  0  0  0  0  0
  -25.4864  -19.2109   27.6133 H   0  0  0  0  0  0
  -26.3096  -17.6519   27.6716 H   0  0  0  0  0  0
  -28.7066  -22.1262   19.1549 H   0  0  0  0  0  0
  -30.2118  -21.9900   20.0151 H   0  0  0  0  0  0
  -26.0949  -17.5771   23.1075 H   0  0  0  0  0  0
  -25.0981  -18.9861   23.3267 H   0  0  0  0  0  0
  -24.2880  -18.5156   25.5383 H   0  0  0  0  0  0
  -25.0659  -16.9523   25.5761 H   0  0  0  0  0  0
  -30.0888  -24.1885   20.2403 H   0  0  0  0  0  0
  -29.2034  -23.8880   21.6679 H   0  0  0  0  0  0
  -26.5777  -19.5954   25.3446 H   0  0  0  0  0  0
  -27.3030  -18.0114   25.2089 H   0  0  0  0  0  0
  -30.4817  -17.5053   21.9243 H   0  0  0  0  0  0
  -31.3786  -17.3022   20.4816 H   0  0  0  0  0  0
  -27.1046  -24.6213   20.4457 H   0  0  0  0  0  0
  -27.9848  -24.7272   18.9401 H   0  0  0  0  0  0
  -28.9456  -18.2750   19.4070 H   0  0  0  0  0  0
  -28.8855  -15.7068   20.9173 H   0  0  0  0  0  0
  -31.3472  -19.6907   20.2331 H   0  0  0  0  0  0
  -30.1504  -20.3374   19.3382 H   0  0  0  0  0  0
  -30.9936  -19.0519   18.7597 H   0  0  0  0  0  0
  1 25  1  0  0  0
  1 30  2  0  0  0
  1 86  1  0  0  0
  2  3  1  0  0  0
  2 25  1  0  0  0
  2 88  1  0  0  0
  2 89  1  0  0  0
  3  4  1  0  0  0
  3 90  1  0  0  0
  3 91  1  0  0  0
  4  5  1  0  0  0
  4 92  1  0  0  0
  4 93  1  0  0  0
  5  6  1  0  0  0
  5 26  1  0  0  0
  5 94  1  0  0  0
  6 25  1  0  0  0
  6 95  1  0  0  0
  6 96  1  0  0  0
  7  8  2  0  0  0
  7 26  1  0  0  0
  7 29  1  0  0  0
  8  9  1  0  0  0
  8 22  1  0  0  0
  9 10  1  0  0  0
  9 27  2  0  0  0
 10 11  2  0  0  0
 10 15  1  0  0  0
 11 12  1  0  0  0
 11 97  1  0  0  0
 12 13  2  0  0  0
 12 98  1  0  0  0
 13 14  1  0  0  0
 13 31  1  0  0  0
 14 15  2  0  0  0
 14 99  1  0  0  0
 15100  1  0  0  0
 16 17  2  0  0  0
 16 21  1  0  0  0
 16 31  1  0  0  0
 17 18  1  0  0  0
 17101  1  0  0  0
 18 19  2  0  0  0
 18102  1  0  0  0
 19 20  1  0  0  0
 19 24  1  0  0  0
 20 21  2  0  0  0
 20103  1  0  0  0
 21 23  1  0  0  0
 22 28  1  0  0  0
 22 32  2  0  0  0
 26 27  1  0  0  0
 28104  1  0  0  0
 28105  1  0  0  0
 29106  1  0  0  0
 29107  1  0  0  0
 33 34  1  0  0  0
 33 66  1  0  0  0
 33 70  2  0  0  0
 34 36  1  0  0  0
 34 59  1  0  0  0
 34108  1  0  0  0
 35 44  2  0  0  0
 35 45  1  0  0  0
 35 68  1  0  0  0
 36 56  1  0  0  0
 36109  1  0  0  0
 37 39  1  0  0  0
 37 47  1  0  0  0
 37 66  1  0  0  0
 37110  1  0  0  0
 38 43  2  0  0  0
 38 46  1  0  0  0
 38 47  1  0  0  0
 39 64  1  0  0  0
 39 67  2  0  0  0
 40 52  1  0  0  0
 40 53  2  0  0  0
 40 58  1  0  0  0
 41111  1  0  0  0
 41112  1  0  0  0
 41113  1  0  0  0
 41 48  1  0  0  0
 42 43  1  0  0  0
 42 66  1  0  0  0
 42114  1  0  0  0
 42115  1  0  0  0
 43 44  1  0  0  0
 44116  1  0  0  0
 45 46  2  0  0  0
 45117  1  0  0  0
 46118  1  0  0  0
 47119  1  0  0  0
 47120  1  0  0  0
 48 56  1  0  0  0
 48 65  1  0  0  0
 48121  1  0  0  0
 49 50  1  0  0  0
 49 53  1  0  0  0
 49 64  1  0  0  0
 49122  1  0  0  0
 50 51  1  0  0  0
 50123  1  0  0  0
 50124  1  0  0  0
 51 52  1  0  0  0
 51125  1  0  0  0
 51126  1  0  0  0
 52127  1  0  0  0
 52128  1  0  0  0
 53 54  1  0  0  0
 54 55  2  0  0  0
 54129  1  0  0  0
 55 57  1  0  0  0
 55130  1  0  0  0
 56 69  2  0  0  0
 57 58  2  0  0  0
 57131  1  0  0  0
 58132  1  0  0  0
 59 60  1  0  0  0
 59 61  1  0  0  0
 59 62  1  0  0  0
 60133  1  0  0  0
 60134  1  0  0  0
 60135  1  0  0  0
 61136  1  0  0  0
 61137  1  0  0  0
 61138  1  0  0  0
 62139  1  0  0  0
 62140  1  0  0  0
 62141  1  0  0  0
 63 65  1  0  0  0
 63142  1  0  0  0
 63143  1  0  0  0
 63144  1  0  0  0
 64145  1  0  0  0
 65146  1  0  0  0
 68 82  1  0  0  0
 71 72  2  0  0  0
 71 84  1  0  0  0
 71147  1  0  0  0
 72 73  1  0  0  0
 72 76  1  0  0  0
 73 83  1  0  0  0
 73 85  2  0  0  0
 74 77  1  0  0  0
 74 84  2  0  0  0
 74 85  1  0  0  0
 75 78  1  0  0  0
 75148  1  0  0  0
 75149  1  0  0  0
 75150  1  0  0  0
 76 79  1  0  0  0
 76151  1  0  0  0
 76152  1  0  0  0
 77 80  1  0  0  0
 77153  1  0  0  0
 77154  1  0  0  0
 78 80  1  0  0  0
 78155  1  0  0  0
 78156  1  0  0  0
 79 82  1  0  0  0
 79157  1  0  0  0
 79158  1  0  0  0
 80159  1  0  0  0
 80160  1  0  0  0
 81 83  1  0  0  0
 81 86  1  0  0  0
 81161  1  0  0  0
 81162  1  0  0  0
 82163  1  0  0  0
 82164  1  0  0  0
 83 87  1  0  0  0
 83165  1  0  0  0
 86166  1  0  0  0
 87167  1  0  0  0
 87168  1  0  0  0
 87169  1  0  0  0
M  CHG  1  87   1
M  ISO  4   1 100  68 101  82 101  86 100
M  END
> <chiral flag>
0

> <version>
0

> <s_m_source_file>
/data/baiqing/PycharmProjects/Reinvent-master-3.2/result/LINK_invent/BTK/process_docking_weight1_custom_sum_contain_oxygen_bond_distance_aromatic_linkinvent_7_9_3/rearranged_h_0092.sdf

> <i_m_source_file_index>
7

> <r_mmod_Potential_Energy-OPLS-2005>
-538.80712890625

> <r_mmod_Stretch_Energy-OPLS-2005>
139.828826904297

> <r_mmod_Bend_Energy-OPLS-2005>
213.941879272461

> <r_mmod_Torsional_Energy-OPLS-2005>
234.942962646484

> <r_mmod_Improper_Torsional_Energy-OPLS-2005>
5.04011678695679

> <r_mmod_Van_der_Waal_Energy-OPLS-2005>
148.485412597656

> <r_mmod_Electrostatic_Energy-OPLS-2005>
-830.723022460938

> <r_mmod_Solvation_Energy-OPLS-2005>
-535.182556152344

> <b_mmod_Minimization_Converged-OPLS-2005>
0

> <r_mmod_RMS_Derivative-OPLS-2005>
3.56738662719727

$$$$
7
                    3D
 Structure written by MMmdl.
169177  0  0  1  0            999 V2000
  -30.7094  -14.4037   20.6784 C   0  0  0  0  0  0
  -30.4341  -12.3022   19.4119 C   0  0  0  0  0  0
  -29.4958  -12.5277   18.2084 C   0  0  0  0  0  0
  -28.0168  -12.3782   18.6175 C   0  0  0  0  0  0
  -27.6681  -13.1975   19.8871 C   0  0  2  0  0  0
  -28.7010  -12.9207   21.0006 C   0  0  0  0  0  0
  -25.2594  -13.8145   20.5659 C   0  0  0  0  0  0
  -24.1828  -13.0424   20.9158 C   0  0  0  0  0  0
  -24.6366  -11.6901   20.8719 C   0  0  0  0  0  0
  -23.9035  -10.4290   21.0405 C   0  0  0  0  0  0
  -24.3600   -9.4221   21.9178 C   0  0  0  0  0  0
  -23.6284   -8.2247   22.0758 C   0  0  0  0  0  0
  -22.4255   -8.0285   21.3548 C   0  0  0  0  0  0
  -21.9891   -9.0248   20.4651 C   0  0  0  0  0  0
  -22.7213  -10.2134   20.3052 C   0  0  0  0  0  0
  -21.6850   -6.0730   22.5277 C   0  0  0  0  0  0
  -21.4013   -6.5634   23.8222 C   0  0  0  0  0  0
  -21.3657   -5.6791   24.9177 C   0  0  0  0  0  0
  -21.6045   -4.3052   24.7231 C   0  0  0  0  0  0
  -21.8818   -3.8143   23.4344 C   0  0  0  0  0  0
  -21.9191   -4.6956   22.3410 C   0  0  0  0  0  0
  -22.7849  -13.5250   21.1821 C   0  0  0  0  0  0
  -22.1659   -4.2143   21.0982 F   0  0  0  0  0  0
  -21.5626   -3.4540   25.7740 F   0  0  0  0  0  0
  -30.0440  -13.2374   20.4757 N   0  0  0  0  0  0
  -26.3038  -12.9306   20.3382 N   0  0  0  0  0  0
  -25.9291  -11.6469   20.5752 N   0  0  0  0  0  0
  -22.0492  -12.8244   22.0403 N   0  0  0  0  0  0
  -25.4312  -15.1862   20.4068 N   0  0  0  0  0  0
  -31.7583  -14.7004   20.0952 O   0  0  0  0  0  0
  -21.6629   -6.8861   21.4240 O   0  0  0  0  0  0
  -22.3541  -14.5552   20.6679 O   0  0  0  0  0  0
  -24.6128  -31.8711   23.2150 C   0  0  0  0  0  0
  -25.9025  -32.4861   23.8423 C   0  0  1  0  0  0
  -27.2427  -27.4637   20.0864 C   0  0  0  0  0  0
  -25.5891  -33.8651   24.2362 N   0  0  0  0  0  0
  -23.4038  -30.4898   21.5541 C   0  0  2  0  0  0
  -24.8561  -28.9629   20.1147 C   0  0  0  0  0  0
  -22.7419  -29.4645   22.5025 C   0  0  0  0  0  0
  -18.0267  -28.1382   22.8494 C   0  0  0  0  0  0
  -24.1485  -36.7314   23.2641 C   0  0  0  0  0  0
  -25.9310  -30.8384   21.3697 C   0  0  0  0  0  0
  -26.0106  -29.4724   20.7243 C   0  0  0  0  0  0
  -27.2080  -28.7225   20.7205 C   0  0  0  0  0  0
  -26.0876  -26.9779   19.4446 C   0  0  0  0  0  0
  -24.8860  -27.7095   19.4794 C   0  0  0  0  0  0
  -23.6133  -29.8217   20.1683 C   0  0  0  0  0  0
  -25.4104  -36.3130   24.0349 C   0  0  1  0  0  0
  -20.5859  -28.3662   23.1331 C   0  0  2  0  0  0
  -20.6772  -26.9398   22.5433 C   0  0  0  0  0  0
  -19.5749  -26.6392   21.5232 C   0  0  0  0  0  0
  -18.1906  -26.7937   22.1624 C   0  0  0  0  0  0
  -19.1514  -28.8842   23.2910 C   0  0  0  0  0  0
  -18.9437  -30.1445   23.8921 C   0  0  0  0  0  0
  -17.6451  -30.6587   24.0563 C   0  0  0  0  0  0
  -25.9020  -34.9493   23.5152 C   0  0  0  0  0  0
  -16.5337  -29.9096   23.6328 C   0  0  0  0  0  0
  -16.7253  -28.6511   23.0351 C   0  0  0  0  0  0
  -26.4439  -31.6623   25.0740 C   0  0  0  0  0  0
  -25.3696  -31.3734   26.1490 C   0  0  0  0  0  0
  -27.0249  -30.3060   24.6107 C   0  0  0  0  0  0
  -27.6038  -32.4322   25.7483 C   0  0  0  0  0  0
  -27.5577  -37.1815   24.8468 C   0  0  0  0  0  0
  -21.4146  -29.3033   22.3754 N   0  0  0  0  0  0
  -26.4294  -37.3814   23.9407 N   0  0  0  0  0  0
  -24.6666  -31.0800   22.1055 N   0  0  0  0  0  0
  -23.4192  -28.8196   23.3064 O   0  0  0  0  0  0
  -28.4002  -26.7313   20.0169 O   0  0  0  0  0  0
  -26.5570  -34.8930   22.4706 O   0  0  0  0  0  0
  -23.5303  -32.1466   23.7527 O   0  0  0  0  0  0
  -28.6911  -19.5923   22.0702 C   0  0  0  0  0  0
  -30.1038  -21.0253   23.0228 C   0  0  0  0  0  0
  -29.6229  -18.8429   22.7431 C   0  0  0  0  0  0
  -30.5440  -19.7675   23.3414 C   0  0  0  0  0  0
  -31.3510  -19.2431   25.6581 C   0  0  0  0  0  0
  -32.8398  -20.5470   24.0837 C   0  0  0  0  0  0
  -26.5701  -24.6398   21.7890 C   0  0  0  0  0  0
  -29.6247  -17.3252   22.8164 C   0  0  0  0  0  0
  -28.8102  -23.4196   21.7357 C   0  0  0  0  0  0
  -28.1324  -22.0247   21.7671 C   0  0  0  0  0  0
  -30.3530  -16.6867   21.6160 C   0  0  0  0  0  0
  -28.6994  -25.9015   21.1387 C   0  0  0  0  0  0
  -31.7612  -19.4507   24.1938 C   0  0  0  0  0  0
  -27.9493  -24.5419   21.1024 C   0  0  2  0  0  0
  -28.9663  -20.9321   22.2524 N   0  0  0  0  0  0
  -30.0947  -15.2522   21.5148 N   0  0  0  0  0  0
  -31.4738  -12.4376   19.1082 H   0  0  0  0  0  0
  -30.3641  -11.2761   19.7757 H   0  0  0  0  0  0
  -29.7382  -11.8277   17.4082 H   0  0  0  0  0  0
  -29.6614  -13.5267   17.8010 H   0  0  0  0  0  0
  -27.8275  -11.3195   18.7975 H   0  0  0  0  0  0
  -27.3672  -12.6685   17.7902 H   0  0  0  0  0  0
  -27.7298  -14.2527   19.6224 H   0  0  0  0  0  0
  -28.6656  -11.8691   21.2869 H   0  0  0  0  0  0
  -28.4375  -13.4621   21.9096 H   0  0  0  0  0  0
  -25.2742   -9.5691   22.4763 H   0  0  0  0  0  0
  -23.9988   -7.4634   22.7484 H   0  0  0  0  0  0
  -21.0817   -8.8754   19.8966 H   0  0  0  0  0  0
  -22.3659  -10.9658   19.6168 H   0  0  0  0  0  0
  -21.2011   -7.6145   23.9715 H   0  0  0  0  0  0
  -21.1481   -6.0524   25.9081 H   0  0  0  0  0  0
  -22.0599   -2.7602   23.2852 H   0  0  0  0  0  0
  -22.4082  -11.9900   22.4786 H   0  0  0  0  0  0
  -21.1129  -13.1306   22.2632 H   0  0  0  0  0  0
  -24.6647  -15.8429   20.5107 H   0  0  0  0  0  0
  -26.2903  -15.6255   20.0998 H   0  0  0  0  0  0
  -26.7114  -32.5577   23.1202 H   0  0  0  0  0  0
  -25.0125  -33.9827   25.0559 H   0  0  0  0  0  0
  -22.6910  -31.3038   21.4127 H   0  0  0  0  0  0
  -23.3755  -35.9634   23.3323 H   0  0  0  0  0  0
  -24.3575  -36.8901   22.2037 H   0  0  0  0  0  0
  -23.7201  -37.6524   23.6617 H   0  0  0  0  0  0
  -26.0375  -31.5998   20.5943 H   0  0  0  0  0  0
  -26.8200  -30.8966   21.9888 H   0  0  0  0  0  0
  -28.1028  -29.1117   21.1851 H   0  0  0  0  0  0
  -26.1159  -26.0228   18.9399 H   0  0  0  0  0  0
  -24.0018  -27.3140   18.9992 H   0  0  0  0  0  0
  -23.7146  -30.5930   19.4061 H   0  0  0  0  0  0
  -22.7425  -29.2340   19.8783 H   0  0  0  0  0  0
  -25.1268  -36.2035   25.0848 H   0  0  0  0  0  0
  -20.9921  -28.3215   24.1473 H   0  0  0  0  0  0
  -20.5699  -26.2251   23.3609 H   0  0  0  0  0  0
  -21.6627  -26.7479   22.1193 H   0  0  0  0  0  0
  -19.6905  -25.6309   21.1243 H   0  0  0  0  0  0
  -19.6686  -27.3213   20.6767 H   0  0  0  0  0  0
  -17.4194  -26.6702   21.4008 H   0  0  0  0  0  0
  -18.0279  -26.0066   22.8996 H   0  0  0  0  0  0
  -19.7908  -30.7244   24.2305 H   0  0  0  0  0  0
  -17.5001  -31.6270   24.5157 H   0  0  0  0  0  0
  -15.5329  -30.3011   23.7646 H   0  0  0  0  0  0
  -15.8654  -28.0847   22.7070 H   0  0  0  0  0  0
  -24.5892  -30.7064   25.7831 H   0  0  0  0  0  0
  -24.8851  -32.2875   26.4919 H   0  0  0  0  0  0
  -25.8035  -30.8928   27.0268 H   0  0  0  0  0  0
  -26.2783  -29.6845   24.1174 H   0  0  0  0  0  0
  -27.4016  -29.7286   25.4558 H   0  0  0  0  0  0
  -27.8612  -30.4370   23.9247 H   0  0  0  0  0  0
  -27.2728  -33.3682   26.1997 H   0  0  0  0  0  0
  -28.3869  -32.6791   25.0302 H   0  0  0  0  0  0
  -28.0663  -31.8473   26.5445 H   0  0  0  0  0  0
  -28.2626  -38.0095   24.7531 H   0  0  0  0  0  0
  -28.1055  -36.2626   24.6297 H   0  0  0  0  0  0
  -27.2293  -37.1465   25.8879 H   0  0  0  0  0  0
  -20.9326  -29.8736   21.6950 H   0  0  0  0  0  0
  -26.0208  -38.2905   24.1413 H   0  0  0  0  0  0
  -27.8306  -19.2855   21.4838 H   0  0  0  0  0  0
  -30.4998  -21.9916   23.3006 H   0  0  0  0  0  0
  -30.6423  -18.4189   25.7640 H   0  0  0  0  0  0
  -30.8824  -20.1438   26.0603 H   0  0  0  0  0  0
  -32.2172  -19.0143   26.2822 H   0  0  0  0  0  0
  -33.1388  -20.7053   23.0470 H   0  0  0  0  0  0
  -33.7345  -20.2812   24.6503 H   0  0  0  0  0  0
  -32.4836  -21.4995   24.4809 H   0  0  0  0  0  0
  -25.9863  -23.7317   21.6442 H   0  0  0  0  0  0
  -25.9539  -25.4384   21.3992 H   0  0  0  0  0  0
  -26.6632  -24.8332   22.8564 H   0  0  0  0  0  0
  -28.5859  -16.9876   22.8534 H   0  0  0  0  0  0
  -30.0803  -17.0083   23.7572 H   0  0  0  0  0  0
  -29.0662  -23.7139   22.7539 H   0  0  0  0  0  0
  -29.7559  -23.3520   21.1894 H   0  0  0  0  0  0
  -27.7765  -21.7584   20.7679 H   0  0  0  0  0  0
  -27.2597  -22.0604   22.4205 H   0  0  0  0  0  0
  -31.4238  -16.8898   21.6766 H   0  0  0  0  0  0
  -30.0011  -17.1461   20.6919 H   0  0  0  0  0  0
  -29.7727  -25.7160   21.0837 H   0  0  0  0  0  0
  -28.5444  -26.4203   22.0877 H   0  0  0  0  0  0
  -32.1943  -18.5202   23.8235 H   0  0  0  0  0  0
  -27.8065  -24.2815   20.0530 H   0  0  0  0  0  0
  -29.2603  -14.9016   21.9633 H   0  0  0  0  0  0
  1 25  1  0  0  0
  1 30  2  0  0  0
  1 86  1  0  0  0
  2  3  1  0  0  0
  2 25  1  0  0  0
  2 87  1  0  0  0
  2 88  1  0  0  0
  3  4  1  0  0  0
  3 89  1  0  0  0
  3 90  1  0  0  0
  4  5  1  0  0  0
  4 91  1  0  0  0
  4 92  1  0  0  0
  5  6  1  0  0  0
  5 26  1  0  0  0
  5 93  1  0  0  0
  6 25  1  0  0  0
  6 94  1  0  0  0
  6 95  1  0  0  0
  7  8  2  0  0  0
  7 26  1  0  0  0
  7 29  1  0  0  0
  8  9  1  0  0  0
  8 22  1  0  0  0
  9 10  1  0  0  0
  9 27  2  0  0  0
 10 11  2  0  0  0
 10 15  1  0  0  0
 11 12  1  0  0  0
 11 96  1  0  0  0
 12 13  2  0  0  0
 12 97  1  0  0  0
 13 14  1  0  0  0
 13 31  1  0  0  0
 14 15  2  0  0  0
 14 98  1  0  0  0
 15 99  1  0  0  0
 16 17  2  0  0  0
 16 21  1  0  0  0
 16 31  1  0  0  0
 17 18  1  0  0  0
 17100  1  0  0  0
 18 19  2  0  0  0
 18101  1  0  0  0
 19 20  1  0  0  0
 19 24  1  0  0  0
 20 21  2  0  0  0
 20102  1  0  0  0
 21 23  1  0  0  0
 22 28  1  0  0  0
 22 32  2  0  0  0
 26 27  1  0  0  0
 28103  1  0  0  0
 28104  1  0  0  0
 29105  1  0  0  0
 29106  1  0  0  0
 33 34  1  0  0  0
 33 66  1  0  0  0
 33 70  2  0  0  0
 34 36  1  0  0  0
 34 59  1  0  0  0
 34107  1  0  0  0
 35 44  2  0  0  0
 35 45  1  0  0  0
 35 68  1  0  0  0
 36 56  1  0  0  0
 36108  1  0  0  0
 37 39  1  0  0  0
 37 47  1  0  0  0
 37 66  1  0  0  0
 37109  1  0  0  0
 38 43  2  0  0  0
 38 46  1  0  0  0
 38 47  1  0  0  0
 39 64  1  0  0  0
 39 67  2  0  0  0
 40 52  1  0  0  0
 40 53  2  0  0  0
 40 58  1  0  0  0
 41110  1  0  0  0
 41111  1  0  0  0
 41112  1  0  0  0
 41 48  1  0  0  0
 42 43  1  0  0  0
 42 66  1  0  0  0
 42113  1  0  0  0
 42114  1  0  0  0
 43 44  1  0  0  0
 44115  1  0  0  0
 45 46  2  0  0  0
 45116  1  0  0  0
 46117  1  0  0  0
 47118  1  0  0  0
 47119  1  0  0  0
 48 56  1  0  0  0
 48 65  1  0  0  0
 48120  1  0  0  0
 49 50  1  0  0  0
 49 53  1  0  0  0
 49 64  1  0  0  0
 49121  1  0  0  0
 50 51  1  0  0  0
 50122  1  0  0  0
 50123  1  0  0  0
 51 52  1  0  0  0
 51124  1  0  0  0
 51125  1  0  0  0
 52126  1  0  0  0
 52127  1  0  0  0
 53 54  1  0  0  0
 54 55  2  0  0  0
 54128  1  0  0  0
 55 57  1  0  0  0
 55129  1  0  0  0
 56 69  2  0  0  0
 57 58  2  0  0  0
 57130  1  0  0  0
 58131  1  0  0  0
 59 60  1  0  0  0
 59 61  1  0  0  0
 59 62  1  0  0  0
 60132  1  0  0  0
 60133  1  0  0  0
 60134  1  0  0  0
 61135  1  0  0  0
 61136  1  0  0  0
 61137  1  0  0  0
 62138  1  0  0  0
 62139  1  0  0  0
 62140  1  0  0  0
 63 65  1  0  0  0
 63141  1  0  0  0
 63142  1  0  0  0
 63143  1  0  0  0
 64144  1  0  0  0
 65145  1  0  0  0
 68 82  1  0  0  0
 71 73  2  0  0  0
 71 85  1  0  0  0
 71146  1  0  0  0
 72 74  2  0  0  0
 72 85  1  0  0  0
 72147  1  0  0  0
 73 74  1  0  0  0
 73 78  1  0  0  0
 74 83  1  0  0  0
 75148  1  0  0  0
 75149  1  0  0  0
 75150  1  0  0  0
 75 83  1  0  0  0
 76 83  1  0  0  0
 76151  1  0  0  0
 76152  1  0  0  0
 76153  1  0  0  0
 77154  1  0  0  0
 77155  1  0  0  0
 77156  1  0  0  0
 77 84  1  0  0  0
 78 81  1  0  0  0
 78157  1  0  0  0
 78158  1  0  0  0
 79 80  1  0  0  0
 79 84  1  0  0  0
 79159  1  0  0  0
 79160  1  0  0  0
 80 85  1  0  0  0
 80161  1  0  0  0
 80162  1  0  0  0
 81 86  1  0  0  0
 81163  1  0  0  0
 81164  1  0  0  0
 82 84  1  0  0  0
 82165  1  0  0  0
 82166  1  0  0  0
 83167  1  0  0  0
 84168  1  0  0  0
 86169  1  0  0  0
M  ISO  4   1 100  68 101  82 101  86 100
M  END
> <chiral flag>
0

> <version>
0

> <s_m_source_file>
/data/baiqing/PycharmProjects/Reinvent-master-3.2/result/LINK_invent/BTK/process_docking_weight1_custom_sum_contain_oxygen_bond_distance_aromatic_linkinvent_7_9_3/rearranged_h_0092.sdf

> <i_m_source_file_index>
8

> <r_mmod_Potential_Energy-OPLS-2005>
-104.89533996582

> <r_mmod_Stretch_Energy-OPLS-2005>
33.2426910400391

> <r_mmod_Bend_Energy-OPLS-2005>
96.0903930664062

> <r_mmod_Torsional_Energy-OPLS-2005>
239.946044921875

> <r_mmod_Improper_Torsional_Energy-OPLS-2005>
2.99442076683044

> <r_mmod_Van_der_Waal_Energy-OPLS-2005>
128.802429199219

> <r_mmod_Electrostatic_Energy-OPLS-2005>
-410.825531005859

> <r_mmod_Solvation_Energy-OPLS-2005>
-203.403167724609

> <b_mmod_Minimization_Converged-OPLS-2005>
0

> <r_mmod_RMS_Derivative-OPLS-2005>
5.42526006698608

$$$$
8
                    3D
 Structure written by MMmdl.
165173  0  0  1  0            999 V2000
  -30.6673  -14.6959   20.5402 C   0  0  0  0  0  0
  -30.4228  -12.4416   19.4958 C   0  0  0  0  0  0
  -29.5226  -12.5449   18.2500 C   0  0  0  0  0  0
  -28.0464  -12.3661   18.6462 C   0  0  0  0  0  0
  -27.6474  -13.2456   19.8604 C   0  0  2  0  0  0
  -28.6843  -13.1736   21.0000 C   0  0  0  0  0  0
  -25.2548  -13.8250   20.5794 C   0  0  0  0  0  0
  -24.1810  -13.0429   20.9212 C   0  0  0  0  0  0
  -24.6424  -11.6923   20.8685 C   0  0  0  0  0  0
  -23.9079  -10.4284   21.0364 C   0  0  0  0  0  0
  -24.3621   -9.4198   21.9152 C   0  0  0  0  0  0
  -23.6290   -8.2226   22.0733 C   0  0  0  0  0  0
  -22.4272   -8.0277   21.3527 C   0  0  0  0  0  0
  -21.9915   -9.0244   20.4629 C   0  0  0  0  0  0
  -22.7243  -10.2127   20.3037 C   0  0  0  0  0  0
  -21.6837   -6.0721   22.5272 C   0  0  0  0  0  0
  -21.4002   -6.5622   23.8216 C   0  0  0  0  0  0
  -21.3676   -5.6771   24.9178 C   0  0  0  0  0  0
  -21.6064   -4.3031   24.7221 C   0  0  0  0  0  0
  -21.8819   -3.8129   23.4342 C   0  0  0  0  0  0
  -21.9187   -4.6951   22.3395 C   0  0  0  0  0  0
  -22.7856  -13.5251   21.1859 C   0  0  0  0  0  0
  -22.1650   -4.2139   21.0973 F   0  0  0  0  0  0
  -21.5641   -3.4516   25.7731 F   0  0  0  0  0  0
  -30.0021  -13.4962   20.4449 N   0  0  0  0  0  0
  -26.2973  -12.9448   20.3314 N   0  0  0  0  0  0
  -25.9373  -11.6576   20.5700 N   0  0  0  0  0  0
  -22.0475  -12.8242   22.0430 N   0  0  0  0  0  0
  -25.4239  -15.1951   20.4431 N   0  0  0  0  0  0
  -31.7867  -14.7920   20.0296 O   0  0  0  0  0  0
  -21.6633   -6.8869   21.4239 O   0  0  0  0  0  0
  -22.3533  -14.5526   20.6702 O   0  0  0  0  0  0
  -24.6235  -31.8642   23.2072 C   0  0  0  0  0  0
  -25.9096  -32.4805   23.8385 C   0  0  1  0  0  0
  -27.2103  -27.3151   20.1188 C   0  0  0  0  0  0
  -25.5924  -33.8607   24.2317 N   0  0  0  0  0  0
  -23.4156  -30.4890   21.5509 C   0  0  2  0  0  0
  -24.8635  -28.9566   20.1210 C   0  0  0  0  0  0
  -22.7462  -29.4623   22.4967 C   0  0  0  0  0  0
  -18.0314  -28.1270   22.8510 C   0  0  0  0  0  0
  -24.1486  -36.7280   23.2641 C   0  0  0  0  0  0
  -25.9620  -30.7980   21.3837 C   0  0  0  0  0  0
  -26.0356  -29.4250   20.7274 C   0  0  0  0  0  0
  -27.2095  -28.6088   20.7293 C   0  0  0  0  0  0
  -26.0094  -26.9197   19.4796 C   0  0  0  0  0  0
  -24.8497  -27.7035   19.5015 C   0  0  0  0  0  0
  -23.6313  -29.8304   20.1655 C   0  0  0  0  0  0
  -25.4121  -36.3107   24.0339 C   0  0  1  0  0  0
  -20.5894  -28.3672   23.1309 C   0  0  2  0  0  0
  -20.6863  -26.9370   22.5517 C   0  0  0  0  0  0
  -19.5861  -26.6125   21.5394 C   0  0  0  0  0  0
  -18.1981  -26.7799   22.1680 C   0  0  0  0  0  0
  -19.1523  -28.8814   23.2873 C   0  0  0  0  0  0
  -18.9387  -30.1458   23.8781 C   0  0  0  0  0  0
  -17.6381  -30.6564   24.0393 C   0  0  0  0  0  0
  -25.9065  -34.9474   23.5132 C   0  0  0  0  0  0
  -16.5303  -29.8946   23.6263 C   0  0  0  0  0  0
  -16.7285  -28.6343   23.0333 C   0  0  0  0  0  0
  -26.4506  -31.6592   25.0735 C   0  0  0  0  0  0
  -25.3725  -31.3735   26.1445 C   0  0  0  0  0  0
  -27.0343  -30.3004   24.6198 C   0  0  0  0  0  0
  -27.6070  -32.4319   25.7486 C   0  0  0  0  0  0
  -27.5584  -37.1815   24.8486 C   0  0  0  0  0  0
  -21.4173  -29.3036   22.3707 N   0  0  0  0  0  0
  -26.4317  -37.3799   23.9413 N   0  0  0  0  0  0
  -24.6849  -31.0677   22.1013 N   0  0  0  0  0  0
  -23.4208  -28.8140   23.3019 O   0  0  0  0  0  0
  -28.3070  -26.4318   20.1641 O   0  0  0  0  0  0
  -26.5626  -34.8928   22.4694 O   0  0  0  0  0  0
  -23.5405  -32.1428   23.7410 O   0  0  0  0  0  0
  -29.0319  -19.7472   20.1490 C   0  0  0  0  0  0
  -27.9251  -21.1195   21.7960 C   0  0  0  0  0  0
  -28.5676  -21.0607   20.5519 C   0  0  0  0  0  0
  -28.7959  -18.5604   20.9554 C   0  0  0  0  0  0
  -27.9836  -18.7960   22.0980 C   0  0  0  0  0  0
  -25.8768  -17.7070   23.1979 C   0  0  0  0  0  0
  -29.9717  -15.6902   22.7961 C   0  0  0  0  0  0
  -29.6985  -23.8005   21.5117 C   0  0  0  0  0  0
  -28.5242  -22.3587   19.6463 C   0  0  0  0  0  0
  -29.1681  -17.0630   20.4911 C   0  0  0  0  0  0
  -27.4028  -17.6583   22.9304 C   0  0  0  0  0  0
  -27.9963  -24.9928   19.9621 C   0  0  0  0  0  0
  -30.1408  -16.0130   21.2865 C   0  0  2  0  0  0
  -29.0486  -23.8087   20.1244 C   0  0  1  0  0  0
  -27.6391  -20.0309   22.5350 N   0  0  0  0  0  0
  -31.4737  -12.5193   19.2129 H   0  0  0  0  0  0
  -30.3180  -11.4672   19.9745 H   0  0  0  0  0  0
  -29.8175  -11.7991   17.5123 H   0  0  0  0  0  0
  -29.6660  -13.5195   17.7774 H   0  0  0  0  0  0
  -27.8973  -11.3134   18.8858 H   0  0  0  0  0  0
  -27.4006  -12.5862   17.7973 H   0  0  0  0  0  0
  -27.6454  -14.2750   19.4976 H   0  0  0  0  0  0
  -28.7099  -12.1905   21.4667 H   0  0  0  0  0  0
  -28.3997  -13.8644   21.7864 H   0  0  0  0  0  0
  -25.2759   -9.5702   22.4728 H   0  0  0  0  0  0
  -23.9984   -7.4646   22.7485 H   0  0  0  0  0  0
  -21.0828   -8.8793   19.8952 H   0  0  0  0  0  0
  -22.3682  -10.9675   19.6160 H   0  0  0  0  0  0
  -21.1970   -7.6122   23.9719 H   0  0  0  0  0  0
  -21.1512   -6.0491   25.9086 H   0  0  0  0  0  0
  -22.0585   -2.7592   23.2842 H   0  0  0  0  0  0
  -22.4030  -11.9886   22.4779 H   0  0  0  0  0  0
  -21.1106  -13.1315   22.2584 H   0  0  0  0  0  0
  -24.6672  -15.8483   20.6124 H   0  0  0  0  0  0
  -26.2877  -15.6457   20.1683 H   0  0  0  0  0  0
  -26.7150  -32.5518   23.1115 H   0  0  0  0  0  0
  -25.0070  -33.9765   25.0455 H   0  0  0  0  0  0
  -22.7076  -31.3099   21.4078 H   0  0  0  0  0  0
  -23.3783  -35.9586   23.3356 H   0  0  0  0  0  0
  -24.3590  -36.8843   22.2059 H   0  0  0  0  0  0
  -23.7203  -37.6482   23.6614 H   0  0  0  0  0  0
  -26.1019  -31.5738   20.6287 H   0  0  0  0  0  0
  -26.8364  -30.8396   22.0212 H   0  0  0  0  0  0
  -28.0974  -28.9519   21.2442 H   0  0  0  0  0  0
  -25.9127  -25.9767   18.9661 H   0  0  0  0  0  0
  -23.9474  -27.3348   19.0339 H   0  0  0  0  0  0
  -23.7457  -30.6056   19.4076 H   0  0  0  0  0  0
  -22.7561  -29.2522   19.8611 H   0  0  0  0  0  0
  -25.1297  -36.1995   25.0836 H   0  0  0  0  0  0
  -20.9962  -28.3327   24.1436 H   0  0  0  0  0  0
  -21.6701  -26.7467   22.1215 H   0  0  0  0  0  0
  -20.5916  -26.2284   23.3771 H   0  0  0  0  0  0
  -19.7103  -25.5918   21.1744 H   0  0  0  0  0  0
  -19.6851  -27.2715   20.6764 H   0  0  0  0  0  0
  -17.4295  -26.6551   21.4051 H   0  0  0  0  0  0
  -18.0268  -25.9949   22.9067 H   0  0  0  0  0  0
  -19.7838  -30.7354   24.2084 H   0  0  0  0  0  0
  -17.4897  -31.6289   24.4870 H   0  0  0  0  0  0
  -15.5289  -30.2790   23.7554 H   0  0  0  0  0  0
  -15.8734  -28.0571   22.7059 H   0  0  0  0  0  0
  -24.5905  -30.7088   25.7764 H   0  0  0  0  0  0
  -24.8905  -32.2895   26.4852 H   0  0  0  0  0  0
  -25.8032  -30.8920   27.0215 H   0  0  0  0  0  0
  -26.2919  -29.6760   24.1215 H   0  0  0  0  0  0
  -27.4020  -29.7271   25.4715 H   0  0  0  0  0  0
  -27.8791  -30.4291   23.9431 H   0  0  0  0  0  0
  -27.2690  -33.3624   26.2040 H   0  0  0  0  0  0
  -28.3852  -32.6857   25.0280 H   0  0  0  0  0  0
  -28.0723  -31.8440   26.5397 H   0  0  0  0  0  0
  -28.2623  -38.0090   24.7507 H   0  0  0  0  0  0
  -28.1042  -36.2625   24.6327 H   0  0  0  0  0  0
  -27.2303  -37.1472   25.8887 H   0  0  0  0  0  0
  -20.9369  -29.8803   21.6936 H   0  0  0  0  0  0
  -26.0217  -38.2884   24.1389 H   0  0  0  0  0  0
  -29.4876  -19.6380   19.1745 H   0  0  0  0  0  0
  -27.5632  -22.0642   22.1812 H   0  0  0  0  0  0
  -25.5857  -16.8766   23.8443 H   0  0  0  0  0  0
  -25.2926  -17.6113   22.2812 H   0  0  0  0  0  0
  -25.5530  -18.6218   23.6925 H   0  0  0  0  0  0
  -30.2913  -16.4987   23.4516 H   0  0  0  0  0  0
  -30.6117  -14.8459   23.0680 H   0  0  0  0  0  0
  -28.9693  -15.3897   23.0804 H   0  0  0  0  0  0
  -30.3547  -22.9382   21.6286 H   0  0  0  0  0  0
  -28.9621  -23.7832   22.3125 H   0  0  0  0  0  0
  -30.3062  -24.6936   21.6498 H   0  0  0  0  0  0
  -27.4642  -22.4821   19.4039 H   0  0  0  0  0  0
  -28.9692  -22.1356   18.6755 H   0  0  0  0  0  0
  -28.2129  -16.5507   20.3651 H   0  0  0  0  0  0
  -29.5352  -17.1588   19.4694 H   0  0  0  0  0  0
  -27.9889  -17.5632   23.8428 H   0  0  0  0  0  0
  -27.5497  -16.7356   22.3904 H   0  0  0  0  0  0
  -27.1457  -24.7433   20.5991 H   0  0  0  0  0  0
  -27.6653  -24.9051   18.9276 H   0  0  0  0  0  0
  -31.0594  -16.5947   21.3380 H   0  0  0  0  0  0
  -29.8544  -24.0628   19.4306 H   0  0  0  0  0  0
  1 25  1  0  0  0
  1 30  2  0  0  0
  1 83  1  0  0  0
  2  3  1  0  0  0
  2 25  1  0  0  0
  2 86  1  0  0  0
  2 87  1  0  0  0
  3  4  1  0  0  0
  3 88  1  0  0  0
  3 89  1  0  0  0
  4  5  1  0  0  0
  4 90  1  0  0  0
  4 91  1  0  0  0
  5  6  1  0  0  0
  5 26  1  0  0  0
  5 92  1  0  0  0
  6 25  1  0  0  0
  6 93  1  0  0  0
  6 94  1  0  0  0
  7  8  2  0  0  0
  7 26  1  0  0  0
  7 29  1  0  0  0
  8  9  1  0  0  0
  8 22  1  0  0  0
  9 10  1  0  0  0
  9 27  2  0  0  0
 10 11  2  0  0  0
 10 15  1  0  0  0
 11 12  1  0  0  0
 11 95  1  0  0  0
 12 13  2  0  0  0
 12 96  1  0  0  0
 13 14  1  0  0  0
 13 31  1  0  0  0
 14 15  2  0  0  0
 14 97  1  0  0  0
 15 98  1  0  0  0
 16 17  2  0  0  0
 16 21  1  0  0  0
 16 31  1  0  0  0
 17 18  1  0  0  0
 17 99  1  0  0  0
 18 19  2  0  0  0
 18100  1  0  0  0
 19 20  1  0  0  0
 19 24  1  0  0  0
 20 21  2  0  0  0
 20101  1  0  0  0
 21 23  1  0  0  0
 22 28  1  0  0  0
 22 32  2  0  0  0
 26 27  1  0  0  0
 28102  1  0  0  0
 28103  1  0  0  0
 29104  1  0  0  0
 29105  1  0  0  0
 33 34  1  0  0  0
 33 66  1  0  0  0
 33 70  2  0  0  0
 34 36  1  0  0  0
 34 59  1  0  0  0
 34106  1  0  0  0
 35 44  2  0  0  0
 35 45  1  0  0  0
 35 68  1  0  0  0
 36 56  1  0  0  0
 36107  1  0  0  0
 37 39  1  0  0  0
 37 47  1  0  0  0
 37 66  1  0  0  0
 37108  1  0  0  0
 38 43  2  0  0  0
 38 46  1  0  0  0
 38 47  1  0  0  0
 39 64  1  0  0  0
 39 67  2  0  0  0
 40 52  1  0  0  0
 40 53  2  0  0  0
 40 58  1  0  0  0
 41109  1  0  0  0
 41110  1  0  0  0
 41111  1  0  0  0
 41 48  1  0  0  0
 42 43  1  0  0  0
 42 66  1  0  0  0
 42112  1  0  0  0
 42113  1  0  0  0
 43 44  1  0  0  0
 44114  1  0  0  0
 45 46  2  0  0  0
 45115  1  0  0  0
 46116  1  0  0  0
 47117  1  0  0  0
 47118  1  0  0  0
 48 56  1  0  0  0
 48 65  1  0  0  0
 48119  1  0  0  0
 49 50  1  0  0  0
 49 53  1  0  0  0
 49 64  1  0  0  0
 49120  1  0  0  0
 50 51  1  0  0  0
 50121  1  0  0  0
 50122  1  0  0  0
 51 52  1  0  0  0
 51123  1  0  0  0
 51124  1  0  0  0
 52125  1  0  0  0
 52126  1  0  0  0
 53 54  1  0  0  0
 54 55  2  0  0  0
 54127  1  0  0  0
 55 57  1  0  0  0
 55128  1  0  0  0
 56 69  2  0  0  0
 57 58  2  0  0  0
 57129  1  0  0  0
 58130  1  0  0  0
 59 60  1  0  0  0
 59 61  1  0  0  0
 59 62  1  0  0  0
 60131  1  0  0  0
 60132  1  0  0  0
 60133  1  0  0  0
 61134  1  0  0  0
 61135  1  0  0  0
 61136  1  0  0  0
 62137  1  0  0  0
 62138  1  0  0  0
 62139  1  0  0  0
 63 65  1  0  0  0
 63140  1  0  0  0
 63141  1  0  0  0
 63142  1  0  0  0
 64143  1  0  0  0
 65144  1  0  0  0
 68 82  1  0  0  0
 71 73  2  0  0  0
 71 74  1  0  0  0
 71145  1  0  0  0
 72 73  1  0  0  0
 72 85  2  0  0  0
 72146  1  0  0  0
 73 79  1  0  0  0
 74 75  2  0  0  0
 74 80  1  0  0  0
 75 81  1  0  0  0
 75 85  1  0  0  0
 76 81  1  0  0  0
 76147  1  0  0  0
 76148  1  0  0  0
 76149  1  0  0  0
 77150  1  0  0  0
 77151  1  0  0  0
 77152  1  0  0  0
 77 83  1  0  0  0
 78153  1  0  0  0
 78154  1  0  0  0
 78155  1  0  0  0
 78 84  1  0  0  0
 79 84  1  0  0  0
 79156  1  0  0  0
 79157  1  0  0  0
 80 83  1  0  0  0
 80158  1  0  0  0
 80159  1  0  0  0
 81160  1  0  0  0
 81161  1  0  0  0
 82 84  1  0  0  0
 82162  1  0  0  0
 82163  1  0  0  0
 83164  1  0  0  0
 84165  1  0  0  0
M  ISO  4   1 100  68 101  82 101  83 100
M  END
> <chiral flag>
0

> <version>
0

> <s_m_source_file>
/data/baiqing/PycharmProjects/Reinvent-master-3.2/result/LINK_invent/BTK/process_docking_weight1_custom_sum_contain_oxygen_bond_distance_aromatic_linkinvent_7_9_3/rearranged_h_0092.sdf

> <i_m_source_file_index>
9

> <r_mmod_Potential_Energy-OPLS-2005>
80.3027877807617

> <r_mmod_Stretch_Energy-OPLS-2005>
116.19556427002

> <r_mmod_Bend_Energy-OPLS-2005>
205.523147583008

> <r_mmod_Torsional_Energy-OPLS-2005>
198.104919433594

> <r_mmod_Improper_Torsional_Energy-OPLS-2005>
4.09052658081055

> <r_mmod_Van_der_Waal_Energy-OPLS-2005>
155.593154907227

> <r_mmod_Electrostatic_Energy-OPLS-2005>
-462.045776367188

> <r_mmod_Solvation_Energy-OPLS-2005>
-200.114868164062

> <b_mmod_Minimization_Converged-OPLS-2005>
0

> <r_mmod_RMS_Derivative-OPLS-2005>
8.89712047576904

$$$$
9
                    3D
 Structure written by MMmdl.
156164  0  0  1  0            999 V2000
  -30.6615  -14.4792   20.6013 C   0  0  0  0  0  0
  -30.4387  -12.3311   19.4001 C   0  0  0  0  0  0
  -29.4901  -12.5230   18.1950 C   0  0  0  0  0  0
  -28.0149  -12.3604   18.6156 C   0  0  0  0  0  0
  -27.6619  -13.1963   19.8739 C   0  0  2  0  0  0
  -28.7046  -12.9453   20.9867 C   0  0  0  0  0  0
  -25.2601  -13.8130   20.5678 C   0  0  0  0  0  0
  -24.1839  -13.0431   20.9171 C   0  0  0  0  0  0
  -24.6373  -11.6894   20.8735 C   0  0  0  0  0  0
  -23.9037  -10.4295   21.0415 C   0  0  0  0  0  0
  -24.3599   -9.4216   21.9192 C   0  0  0  0  0  0
  -23.6279   -8.2255   22.0764 C   0  0  0  0  0  0
  -22.4254   -8.0300   21.3565 C   0  0  0  0  0  0
  -21.9884   -9.0268   20.4671 C   0  0  0  0  0  0
  -22.7203  -10.2147   20.3078 C   0  0  0  0  0  0
  -21.6861   -6.0740   22.5289 C   0  0  0  0  0  0
  -21.4004   -6.5647   23.8220 C   0  0  0  0  0  0
  -21.3646   -5.6807   24.9187 C   0  0  0  0  0  0
  -21.6036   -4.3068   24.7246 C   0  0  0  0  0  0
  -21.8816   -3.8152   23.4370 C   0  0  0  0  0  0
  -21.9182   -4.6961   22.3420 C   0  0  0  0  0  0
  -22.7857  -13.5257   21.1833 C   0  0  0  0  0  0
  -22.1654   -4.2141   21.0999 F   0  0  0  0  0  0
  -21.5628   -3.4554   25.7756 F   0  0  0  0  0  0
  -30.0316  -13.2835   20.4464 N   0  0  0  0  0  0
  -26.3014  -12.9275   20.3341 N   0  0  0  0  0  0
  -25.9301  -11.6444   20.5774 N   0  0  0  0  0  0
  -22.0481  -12.8299   22.0406 N   0  0  0  0  0  0
  -25.4375  -15.1857   20.4124 N   0  0  0  0  0  0
  -31.7751  -14.7212   20.1271 O   0  0  0  0  0  0
  -21.6647   -6.8884   21.4252 O   0  0  0  0  0  0
  -22.3565  -14.5570   20.6678 O   0  0  0  0  0  0
  -24.6137  -31.8673   23.2085 C   0  0  0  0  0  0
  -25.9029  -32.4831   23.8402 C   0  0  1  0  0  0
  -27.2472  -27.4302   20.0940 C   0  0  0  0  0  0
  -25.5883  -33.8629   24.2334 N   0  0  0  0  0  0
  -23.4041  -30.4903   21.5479 C   0  0  2  0  0  0
  -24.8541  -28.9547   20.1183 C   0  0  0  0  0  0
  -22.7392  -29.4676   22.4999 C   0  0  0  0  0  0
  -18.0271  -28.1322   22.8515 C   0  0  0  0  0  0
  -24.1491  -36.7304   23.2645 C   0  0  0  0  0  0
  -25.9328  -30.8342   21.3627 C   0  0  0  0  0  0
  -26.0118  -29.4646   20.7164 C   0  0  0  0  0  0
  -27.2051  -28.7051   20.7090 C   0  0  0  0  0  0
  -26.0621  -26.9344   19.5005 C   0  0  0  0  0  0
  -24.8743  -27.6880   19.5115 C   0  0  0  0  0  0
  -23.6148  -29.8197   20.1640 C   0  0  0  0  0  0
  -25.4104  -36.3115   24.0366 C   0  0  1  0  0  0
  -20.5858  -28.3683   23.1276 C   0  0  2  0  0  0
  -20.6833  -26.9463   22.5260 C   0  0  0  0  0  0
  -19.5702  -26.6350   21.5205 C   0  0  0  0  0  0
  -18.1959  -26.7821   22.1772 C   0  0  0  0  0  0
  -19.1504  -28.8818   23.2882 C   0  0  0  0  0  0
  -18.9398  -30.1428   23.8881 C   0  0  0  0  0  0
  -17.6395  -30.6570   24.0506 C   0  0  0  0  0  0
  -25.9025  -34.9478   23.5149 C   0  0  0  0  0  0
  -16.5296  -29.9041   23.6299 C   0  0  0  0  0  0
  -16.7256  -28.6435   23.0362 C   0  0  0  0  0  0
  -26.4473  -31.6595   25.0712 C   0  0  0  0  0  0
  -25.3773  -31.3686   26.1491 C   0  0  0  0  0  0
  -27.0313  -30.3053   24.6052 C   0  0  0  0  0  0
  -27.6067  -32.4283   25.7470 C   0  0  0  0  0  0
  -27.5583  -37.1806   24.8465 C   0  0  0  0  0  0
  -21.4125  -29.3087   22.3736 N   0  0  0  0  0  0
  -26.4295  -37.3786   23.9409 N   0  0  0  0  0  0
  -24.6684  -31.0784   22.0989 N   0  0  0  0  0  0
  -23.4144  -28.8206   23.3056 O   0  0  0  0  0  0
  -28.4367  -26.7222   20.1086 O   0  0  0  0  0  0
  -26.5576  -34.8923   22.4696 O   0  0  0  0  0  0
  -23.5314  -32.1399   23.7473 O   0  0  0  0  0  0
  -27.9659  -21.3578   20.7497 C   0  0  0  0  0  0
  -30.2681  -21.3663   21.5066 C   0  0  0  0  0  0
  -27.9098  -19.9589   20.9502 C   0  0  0  0  0  0
  -30.2112  -19.9683   21.7131 C   0  0  0  0  0  0
  -29.1536  -22.0797   21.0074 C   0  0  0  0  0  0
  -29.0360  -19.2418   21.4188 C   0  0  0  0  0  0
  -29.2644  -23.5993   20.7774 C   0  0  0  0  0  0
  -28.9476  -17.7206   21.6301 C   0  0  0  0  0  0
  -28.2601  -24.2164   19.7662 C   0  0  0  0  0  0
  -30.1926  -16.8859   21.2116 C   0  0  0  0  0  0
  -28.6336  -25.6193   19.2098 C   0  0  0  0  0  0
  -29.9113  -15.4396   21.1815 N   0  0  0  0  0  0
  -31.4737  -12.4774   19.0845 H   0  0  0  0  0  0
  -30.3822  -11.3079   19.7757 H   0  0  0  0  0  0
  -29.7344  -11.8176   17.3993 H   0  0  0  0  0  0
  -29.6306  -13.5163   17.7666 H   0  0  0  0  0  0
  -27.8418  -11.3028   18.8135 H   0  0  0  0  0  0
  -27.3538  -12.6191   17.7877 H   0  0  0  0  0  0
  -27.7137  -14.2470   19.5847 H   0  0  0  0  0  0
  -28.6932  -11.8934   21.2752 H   0  0  0  0  0  0
  -28.4637  -13.4951   21.8972 H   0  0  0  0  0  0
  -25.2744   -9.5704   22.4773 H   0  0  0  0  0  0
  -23.9981   -7.4666   22.7502 H   0  0  0  0  0  0
  -21.0798   -8.8792   19.9019 H   0  0  0  0  0  0
  -22.3641  -10.9691   19.6209 H   0  0  0  0  0  0
  -21.2000   -7.6156   23.9721 H   0  0  0  0  0  0
  -21.1459   -6.0544   25.9088 H   0  0  0  0  0  0
  -22.0596   -2.7614   23.2887 H   0  0  0  0  0  0
  -22.4055  -11.9954   22.4809 H   0  0  0  0  0  0
  -21.1127  -13.1407   22.2630 H   0  0  0  0  0  0
  -24.6780  -15.8448   20.5475 H   0  0  0  0  0  0
  -26.2938  -15.6265   20.1010 H   0  0  0  0  0  0
  -26.7100  -32.5538   23.1164 H   0  0  0  0  0  0
  -25.0119  -33.9812   25.0543 H   0  0  0  0  0  0
  -22.6960  -31.3090   21.4039 H   0  0  0  0  0  0
  -23.3775  -35.9615   23.3304 H   0  0  0  0  0  0
  -24.3595  -36.8885   22.2057 H   0  0  0  0  0  0
  -23.7248  -37.6521   23.6637 H   0  0  0  0  0  0
  -26.0432  -31.6042   20.5979 H   0  0  0  0  0  0
  -26.8228  -30.8906   21.9778 H   0  0  0  0  0  0
  -28.1000  -29.1009   21.1685 H   0  0  0  0  0  0
  -26.0327  -25.9644   19.0308 H   0  0  0  0  0  0
  -23.9818  -27.2879   19.0509 H   0  0  0  0  0  0
  -23.7166  -30.5913   19.3994 H   0  0  0  0  0  0
  -22.7444  -29.2319   19.8676 H   0  0  0  0  0  0
  -25.1280  -36.1994   25.0870 H   0  0  0  0  0  0
  -20.9945  -28.3227   24.1395 H   0  0  0  0  0  0
  -20.5995  -26.2256   23.3402 H   0  0  0  0  0  0
  -21.6648  -26.7675   22.0834 H   0  0  0  0  0  0
  -19.6922  -25.6263   21.1210 H   0  0  0  0  0  0
  -19.6460  -27.3183   20.6750 H   0  0  0  0  0  0
  -17.4113  -26.6348   21.4343 H   0  0  0  0  0  0
  -18.0623  -26.0054   22.9306 H   0  0  0  0  0  0
  -19.7869  -30.7263   24.2229 H   0  0  0  0  0  0
  -17.4936  -31.6287   24.5021 H   0  0  0  0  0  0
  -15.5287  -30.2938   23.7581 H   0  0  0  0  0  0
  -15.8667  -28.0740   22.7097 H   0  0  0  0  0  0
  -24.5959  -30.6999   25.7852 H   0  0  0  0  0  0
  -24.8972  -32.2844   26.4945 H   0  0  0  0  0  0
  -25.8184  -30.8878   27.0238 H   0  0  0  0  0  0
  -26.2842  -29.6803   24.1152 H   0  0  0  0  0  0
  -27.4171  -29.7280   25.4465 H   0  0  0  0  0  0
  -27.8632  -30.4390   23.9139 H   0  0  0  0  0  0
  -27.2717  -33.3570   26.2093 H   0  0  0  0  0  0
  -28.3883  -32.6835   25.0305 H   0  0  0  0  0  0
  -28.0747  -31.8373   26.5346 H   0  0  0  0  0  0
  -28.2619  -38.0084   24.7506 H   0  0  0  0  0  0
  -28.1066  -36.2629   24.6301 H   0  0  0  0  0  0
  -27.2307  -37.1463   25.8868 H   0  0  0  0  0  0
  -20.9292  -29.8691   21.6872 H   0  0  0  0  0  0
  -26.0201  -38.2870   24.1401 H   0  0  0  0  0  0
  -27.0838  -21.8718   20.3932 H   0  0  0  0  0  0
  -31.1827  -21.8939   21.7403 H   0  0  0  0  0  0
  -26.9827  -19.4424   20.7380 H   0  0  0  0  0  0
  -31.0813  -19.4592   22.1007 H   0  0  0  0  0  0
  -30.2775  -23.7972   20.4273 H   0  0  0  0  0  0
  -29.1777  -24.1085   21.7373 H   0  0  0  0  0  0
  -28.0738  -17.3534   21.0901 H   0  0  0  0  0  0
  -28.7370  -17.5534   22.6871 H   0  0  0  0  0  0
  -27.2577  -24.2238   20.1914 H   0  0  0  0  0  0
  -28.2154  -23.5533   18.9014 H   0  0  0  0  0  0
  -31.0215  -17.0733   21.8959 H   0  0  0  0  0  0
  -30.5235  -17.1992   20.2206 H   0  0  0  0  0  0
  -28.1213  -25.8066   18.2634 H   0  0  0  0  0  0
  -29.6907  -25.6131   18.9405 H   0  0  0  0  0  0
  -29.0052  -15.1434   21.5104 H   0  0  0  0  0  0
  1 25  1  0  0  0
  1 30  2  0  0  0
  1 82  1  0  0  0
  2  3  1  0  0  0
  2 25  1  0  0  0
  2 83  1  0  0  0
  2 84  1  0  0  0
  3  4  1  0  0  0
  3 85  1  0  0  0
  3 86  1  0  0  0
  4  5  1  0  0  0
  4 87  1  0  0  0
  4 88  1  0  0  0
  5  6  1  0  0  0
  5 26  1  0  0  0
  5 89  1  0  0  0
  6 25  1  0  0  0
  6 90  1  0  0  0
  6 91  1  0  0  0
  7  8  2  0  0  0
  7 26  1  0  0  0
  7 29  1  0  0  0
  8  9  1  0  0  0
  8 22  1  0  0  0
  9 10  1  0  0  0
  9 27  2  0  0  0
 10 11  2  0  0  0
 10 15  1  0  0  0
 11 12  1  0  0  0
 11 92  1  0  0  0
 12 13  2  0  0  0
 12 93  1  0  0  0
 13 14  1  0  0  0
 13 31  1  0  0  0
 14 15  2  0  0  0
 14 94  1  0  0  0
 15 95  1  0  0  0
 16 17  2  0  0  0
 16 21  1  0  0  0
 16 31  1  0  0  0
 17 18  1  0  0  0
 17 96  1  0  0  0
 18 19  2  0  0  0
 18 97  1  0  0  0
 19 20  1  0  0  0
 19 24  1  0  0  0
 20 21  2  0  0  0
 20 98  1  0  0  0
 21 23  1  0  0  0
 22 28  1  0  0  0
 22 32  2  0  0  0
 26 27  1  0  0  0
 28 99  1  0  0  0
 28100  1  0  0  0
 29101  1  0  0  0
 29102  1  0  0  0
 33 34  1  0  0  0
 33 66  1  0  0  0
 33 70  2  0  0  0
 34 36  1  0  0  0
 34 59  1  0  0  0
 34103  1  0  0  0
 35 44  2  0  0  0
 35 45  1  0  0  0
 35 68  1  0  0  0
 36 56  1  0  0  0
 36104  1  0  0  0
 37 39  1  0  0  0
 37 47  1  0  0  0
 37 66  1  0  0  0
 37105  1  0  0  0
 38 43  2  0  0  0
 38 46  1  0  0  0
 38 47  1  0  0  0
 39 64  1  0  0  0
 39 67  2  0  0  0
 40 52  1  0  0  0
 40 53  2  0  0  0
 40 58  1  0  0  0
 41106  1  0  0  0
 41107  1  0  0  0
 41108  1  0  0  0
 41 48  1  0  0  0
 42 43  1  0  0  0
 42 66  1  0  0  0
 42109  1  0  0  0
 42110  1  0  0  0
 43 44  1  0  0  0
 44111  1  0  0  0
 45 46  2  0  0  0
 45112  1  0  0  0
 46113  1  0  0  0
 47114  1  0  0  0
 47115  1  0  0  0
 48 56  1  0  0  0
 48 65  1  0  0  0
 48116  1  0  0  0
 49 50  1  0  0  0
 49 53  1  0  0  0
 49 64  1  0  0  0
 49117  1  0  0  0
 50 51  1  0  0  0
 50118  1  0  0  0
 50119  1  0  0  0
 51 52  1  0  0  0
 51120  1  0  0  0
 51121  1  0  0  0
 52122  1  0  0  0
 52123  1  0  0  0
 53 54  1  0  0  0
 54 55  2  0  0  0
 54124  1  0  0  0
 55 57  1  0  0  0
 55125  1  0  0  0
 56 69  2  0  0  0
 57 58  2  0  0  0
 57126  1  0  0  0
 58127  1  0  0  0
 59 60  1  0  0  0
 59 61  1  0  0  0
 59 62  1  0  0  0
 60128  1  0  0  0
 60129  1  0  0  0
 60130  1  0  0  0
 61131  1  0  0  0
 61132  1  0  0  0
 61133  1  0  0  0
 62134  1  0  0  0
 62135  1  0  0  0
 62136  1  0  0  0
 63 65  1  0  0  0
 63137  1  0  0  0
 63138  1  0  0  0
 63139  1  0  0  0
 64140  1  0  0  0
 65141  1  0  0  0
 68 81  1  0  0  0
 71 73  2  0  0  0
 71 75  1  0  0  0
 71142  1  0  0  0
 72 74  1  0  0  0
 72 75  2  0  0  0
 72143  1  0  0  0
 73 76  1  0  0  0
 73144  1  0  0  0
 74 76  2  0  0  0
 74145  1  0  0  0
 75 77  1  0  0  0
 76 78  1  0  0  0
 77 79  1  0  0  0
 77146  1  0  0  0
 77147  1  0  0  0
 78 80  1  0  0  0
 78148  1  0  0  0
 78149  1  0  0  0
 79 81  1  0  0  0
 79150  1  0  0  0
 79151  1  0  0  0
 80 82  1  0  0  0
 80152  1  0  0  0
 80153  1  0  0  0
 81154  1  0  0  0
 81155  1  0  0  0
 82156  1  0  0  0
M  ISO  4   1 100  68 101  81 101  82 100
M  END
> <chiral flag>
0

> <version>
0

> <s_m_source_file>
/data/baiqing/PycharmProjects/Reinvent-master-3.2/result/LINK_invent/BTK/process_docking_weight1_custom_sum_contain_oxygen_bond_distance_aromatic_linkinvent_7_9_3/rearranged_h_0092.sdf

> <i_m_source_file_index>
10

> <r_mmod_Potential_Energy-OPLS-2005>
-86.1198272705078

> <r_mmod_Stretch_Energy-OPLS-2005>
39.5364074707031

> <r_mmod_Bend_Energy-OPLS-2005>
100.748306274414

> <r_mmod_Torsional_Energy-OPLS-2005>
192.774597167969

> <r_mmod_Improper_Torsional_Energy-OPLS-2005>
3.57973480224609

> <r_mmod_Van_der_Waal_Energy-OPLS-2005>
150.026504516602

> <r_mmod_Electrostatic_Energy-OPLS-2005>
-377.681945800781

> <r_mmod_Solvation_Energy-OPLS-2005>
-208.403503417969

> <b_mmod_Minimization_Converged-OPLS-2005>
0

> <r_mmod_RMS_Derivative-OPLS-2005>
3.32290267944336

$$$$
10
                    3D
 Structure written by MMmdl.
165172  0  0  1  0            999 V2000
  -30.7509  -14.4114   20.7000 C   0  0  0  0  0  0
  -30.4262  -12.3303   19.3958 C   0  0  0  0  0  0
  -29.4945  -12.5643   18.1883 C   0  0  0  0  0  0
  -28.0100  -12.4228   18.5872 C   0  0  0  0  0  0
  -27.6705  -13.1980   19.8868 C   0  0  2  0  0  0
  -28.7101  -12.8554   20.9715 C   0  0  0  0  0  0
  -25.2650  -13.8120   20.5659 C   0  0  0  0  0  0
  -24.1882  -13.0407   20.9125 C   0  0  0  0  0  0
  -24.6402  -11.6873   20.8677 C   0  0  0  0  0  0
  -23.9043  -10.4278   21.0360 C   0  0  0  0  0  0
  -24.3605   -9.4217   21.9161 C   0  0  0  0  0  0
  -23.6281   -8.2251   22.0750 C   0  0  0  0  0  0
  -22.4265   -8.0275   21.3532 C   0  0  0  0  0  0
  -21.9889   -9.0249   20.4642 C   0  0  0  0  0  0
  -22.7208  -10.2116   20.3028 C   0  0  0  0  0  0
  -21.6865   -6.0715   22.5271 C   0  0  0  0  0  0
  -21.4020   -6.5624   23.8199 C   0  0  0  0  0  0
  -21.3668   -5.6783   24.9173 C   0  0  0  0  0  0
  -21.6045   -4.3041   24.7226 C   0  0  0  0  0  0
  -21.8821   -3.8126   23.4349 C   0  0  0  0  0  0
  -21.9203   -4.6943   22.3404 C   0  0  0  0  0  0
  -22.7916  -13.5234   21.1825 C   0  0  0  0  0  0
  -22.1670   -4.2120   21.0979 F   0  0  0  0  0  0
  -21.5637   -3.4531   25.7744 F   0  0  0  0  0  0
  -30.0364  -13.2624   20.4773 N   0  0  0  0  0  0
  -26.3076  -12.9272   20.3371 N   0  0  0  0  0  0
  -25.9317  -11.6421   20.5692 N   0  0  0  0  0  0
  -22.0550  -12.8231   22.0375 N   0  0  0  0  0  0
  -25.4395  -15.1834   20.4079 N   0  0  0  0  0  0
  -31.7941  -14.6018   20.0617 O   0  0  0  0  0  0
  -21.6639   -6.8853   21.4229 O   0  0  0  0  0  0
  -22.3617  -14.5565   20.6709 O   0  0  0  0  0  0
  -24.6152  -31.8717   23.2147 C   0  0  0  0  0  0
  -25.9050  -32.4866   23.8434 C   0  0  1  0  0  0
  -27.2168  -27.4380   20.0683 C   0  0  0  0  0  0
  -25.5912  -33.8650   24.2353 N   0  0  0  0  0  0
  -23.3993  -30.5034   21.5569 C   0  0  2  0  0  0
  -24.8384  -28.9821   20.1116 C   0  0  0  0  0  0
  -22.7398  -29.4693   22.4963 C   0  0  0  0  0  0
  -18.0274  -28.1398   22.8519 C   0  0  0  0  0  0
  -24.1456  -36.7288   23.2639 C   0  0  0  0  0  0
  -25.9331  -30.8340   21.3703 C   0  0  0  0  0  0
  -26.0055  -29.4756   20.7098 C   0  0  0  0  0  0
  -27.1984  -28.7146   20.6803 C   0  0  0  0  0  0
  -26.0195  -26.9679   19.4703 C   0  0  0  0  0  0
  -24.8423  -27.7289   19.4930 C   0  0  0  0  0  0
  -23.6058  -29.8510   20.1675 C   0  0  0  0  0  0
  -25.4094  -36.3133   24.0351 C   0  0  1  0  0  0
  -20.5869  -28.3673   23.1320 C   0  0  2  0  0  0
  -20.6776  -26.9408   22.5406 C   0  0  0  0  0  0
  -19.5738  -26.6404   21.5206 C   0  0  0  0  0  0
  -18.1917  -26.7941   22.1621 C   0  0  0  0  0  0
  -19.1527  -28.8839   23.2924 C   0  0  0  0  0  0
  -18.9447  -30.1443   23.8943 C   0  0  0  0  0  0
  -17.6450  -30.6617   24.0579 C   0  0  0  0  0  0
  -25.9031  -34.9509   23.5129 C   0  0  0  0  0  0
  -16.5338  -29.9137   23.6321 C   0  0  0  0  0  0
  -16.7250  -28.6530   23.0379 C   0  0  0  0  0  0
  -26.4473  -31.6637   25.0756 C   0  0  0  0  0  0
  -25.3737  -31.3717   26.1494 C   0  0  0  0  0  0
  -27.0279  -30.3086   24.6075 C   0  0  0  0  0  0
  -27.6064  -32.4316   25.7538 C   0  0  0  0  0  0
  -27.5568  -37.1807   24.8481 C   0  0  0  0  0  0
  -21.4122  -29.3038   22.3703 N   0  0  0  0  0  0
  -26.4262  -37.3846   23.9445 N   0  0  0  0  0  0
  -24.6690  -31.0834   22.1050 N   0  0  0  0  0  0
  -23.4176  -28.8217   23.2979 O   0  0  0  0  0  0
  -28.3795  -26.6845   20.0580 O   0  0  0  0  0  0
  -26.5572  -34.8955   22.4682 O   0  0  0  0  0  0
  -23.5355  -32.1443   23.7571 O   0  0  0  0  0  0
  -29.0657  -15.4749   22.4946 C   0  0  0  0  0  0
  -31.5302  -15.6517   22.7397 C   0  0  0  0  0  0
  -28.9539  -20.7404   22.6221 C   0  0  0  0  0  0
  -28.9909  -22.9287   20.2743 C   0  0  0  0  0  0
  -29.8417  -18.1782   21.5567 C   0  0  0  0  0  0
  -29.4153  -24.4091   20.1509 C   0  0  0  0  0  0
  -30.4116  -16.9121   20.8721 C   0  0  0  0  0  0
  -30.0763  -21.9767   20.8108 C   0  0  0  0  0  0
  -30.3599  -19.5094   20.9551 C   0  0  0  0  0  0
  -28.1947  -25.2814   19.8281 C   0  0  0  0  0  0
  -30.3895  -15.5809   21.6969 C   0  0  0  0  0  0
  -29.4815  -20.6810   21.2333 N   0  3  1  0  0  0
  -31.4664  -12.4423   19.0876 H   0  0  0  0  0  0
  -30.3496  -11.2984   19.7384 H   0  0  0  0  0  0
  -29.7370  -11.8655   17.3864 H   0  0  0  0  0  0
  -29.6693  -13.5613   17.7811 H   0  0  0  0  0  0
  -27.7962  -11.3611   18.7180 H   0  0  0  0  0  0
  -27.3714  -12.7622   17.7701 H   0  0  0  0  0  0
  -27.7479  -14.2623   19.6671 H   0  0  0  0  0  0
  -28.7099  -11.7761   21.1238 H   0  0  0  0  0  0
  -28.4247  -13.2012   21.9512 H   0  0  0  0  0  0
  -25.2739   -9.5711   22.4730 H   0  0  0  0  0  0
  -23.9995   -7.4647   22.7473 H   0  0  0  0  0  0
  -21.0807   -8.8736   19.8965 H   0  0  0  0  0  0
  -22.3634  -10.9646   19.6136 H   0  0  0  0  0  0
  -21.1999   -7.6125   23.9688 H   0  0  0  0  0  0
  -21.1502   -6.0517   25.9069 H   0  0  0  0  0  0
  -22.0598   -2.7585   23.2858 H   0  0  0  0  0  0
  -22.4150  -11.9863   22.4734 H   0  0  0  0  0  0
  -21.1181  -13.1283   22.2586 H   0  0  0  0  0  0
  -24.6731  -15.8412   20.5049 H   0  0  0  0  0  0
  -26.3036  -15.6198   20.1143 H   0  0  0  0  0  0
  -26.7130  -32.5581   23.1226 H   0  0  0  0  0  0
  -25.0199  -33.9857   25.0578 H   0  0  0  0  0  0
  -22.6872  -31.3203   21.4290 H   0  0  0  0  0  0
  -23.3767  -35.9589   23.3336 H   0  0  0  0  0  0
  -24.3534  -36.8841   22.2041 H   0  0  0  0  0  0
  -23.7144  -37.6484   23.6611 H   0  0  0  0  0  0
  -26.0447  -31.5995   20.6010 H   0  0  0  0  0  0
  -26.8188  -30.8834   21.9920 H   0  0  0  0  0  0
  -28.1019  -29.0996   21.1351 H   0  0  0  0  0  0
  -25.9537  -26.0171   18.9652 H   0  0  0  0  0  0
  -23.9446  -27.3466   19.0238 H   0  0  0  0  0  0
  -23.7228  -30.6325   19.4159 H   0  0  0  0  0  0
  -22.7266  -29.2805   19.8603 H   0  0  0  0  0  0
  -25.1266  -36.1999   25.0849 H   0  0  0  0  0  0
  -20.9961  -28.3220   24.1430 H   0  0  0  0  0  0
  -20.5658  -26.2271   23.3595 H   0  0  0  0  0  0
  -21.6657  -26.7445   22.1193 H   0  0  0  0  0  0
  -19.6877  -25.6320   21.1227 H   0  0  0  0  0  0
  -19.6703  -27.3224   20.6748 H   0  0  0  0  0  0
  -17.4188  -26.6695   21.4033 H   0  0  0  0  0  0
  -18.0328  -26.0071   22.8990 H   0  0  0  0  0  0
  -19.7916  -30.7253   24.2355 H   0  0  0  0  0  0
  -17.5012  -31.6325   24.5156 H   0  0  0  0  0  0
  -15.5358  -30.3085   23.7621 H   0  0  0  0  0  0
  -15.8633  -28.0883   22.7120 H   0  0  0  0  0  0
  -24.5899  -30.7062   25.7820 H   0  0  0  0  0  0
  -24.8947  -32.2879   26.4959 H   0  0  0  0  0  0
  -25.8107  -30.8863   27.0233 H   0  0  0  0  0  0
  -26.2774  -29.6871   24.1175 H   0  0  0  0  0  0
  -27.4093  -29.7277   25.4493 H   0  0  0  0  0  0
  -27.8621  -30.4446   23.9192 H   0  0  0  0  0  0
  -27.2696  -33.3594   26.2191 H   0  0  0  0  0  0
  -28.3896  -32.6888   25.0381 H   0  0  0  0  0  0
  -28.0748  -31.8388   26.5402 H   0  0  0  0  0  0
  -28.2645  -38.0062   24.7583 H   0  0  0  0  0  0
  -28.1009  -36.2617   24.6273 H   0  0  0  0  0  0
  -27.2293  -37.1411   25.8882 H   0  0  0  0  0  0
  -20.9240  -29.8791   21.6985 H   0  0  0  0  0  0
  -26.0146  -38.2909   24.1500 H   0  0  0  0  0  0
  -28.8849  -16.3490   23.1184 H   0  0  0  0  0  0
  -29.0947  -14.6595   23.2159 H   0  0  0  0  0  0
  -28.1940  -15.3757   21.8499 H   0  0  0  0  0  0
  -31.3341  -16.3919   23.5154 H   0  0  0  0  0  0
  -32.4824  -15.9205   22.2778 H   0  0  0  0  0  0
  -31.6811  -14.6933   23.2397 H   0  0  0  0  0  0
  -28.4858  -21.7038   22.8307 H   0  0  0  0  0  0
  -29.7414  -20.5824   23.3604 H   0  0  0  0  0  0
  -28.1859  -19.9851   22.7856 H   0  0  0  0  0  0
  -28.6487  -22.5675   19.3040 H   0  0  0  0  0  0
  -28.1201  -22.8851   20.9289 H   0  0  0  0  0  0
  -30.0914  -18.1790   22.6180 H   0  0  0  0  0  0
  -28.7548  -18.1325   21.4961 H   0  0  0  0  0  0
  -30.1683  -24.5226   19.3694 H   0  0  0  0  0  0
  -29.8697  -24.7441   21.0832 H   0  0  0  0  0  0
  -31.4412  -17.1158   20.5732 H   0  0  0  0  0  0
  -29.8736  -16.7713   19.9317 H   0  0  0  0  0  0
  -30.6115  -22.4274   21.6485 H   0  0  0  0  0  0
  -30.8184  -21.8294   20.0257 H   0  0  0  0  0  0
  -30.4476  -19.4111   19.8732 H   0  0  0  0  0  0
  -31.3684  -19.7113   21.3223 H   0  0  0  0  0  0
  -27.9108  -25.1027   18.7886 H   0  0  0  0  0  0
  -27.3744  -24.9439   20.4680 H   0  0  0  0  0  0
  -28.6825  -20.5436   20.6333 H   0  0  0  0  0  0
  1 25  1  0  0  0
  1 30  2  0  0  0
  1 81  1  0  0  0
  2  3  1  0  0  0
  2 25  1  0  0  0
  2 83  1  0  0  0
  2 84  1  0  0  0
  3  4  1  0  0  0
  3 85  1  0  0  0
  3 86  1  0  0  0
  4  5  1  0  0  0
  4 87  1  0  0  0
  4 88  1  0  0  0
  5  6  1  0  0  0
  5 26  1  0  0  0
  5 89  1  0  0  0
  6 25  1  0  0  0
  6 90  1  0  0  0
  6 91  1  0  0  0
  7  8  2  0  0  0
  7 26  1  0  0  0
  7 29  1  0  0  0
  8  9  1  0  0  0
  8 22  1  0  0  0
  9 10  1  0  0  0
  9 27  2  0  0  0
 10 11  2  0  0  0
 10 15  1  0  0  0
 11 12  1  0  0  0
 11 92  1  0  0  0
 12 13  2  0  0  0
 12 93  1  0  0  0
 13 14  1  0  0  0
 13 31  1  0  0  0
 14 15  2  0  0  0
 14 94  1  0  0  0
 15 95  1  0  0  0
 16 17  2  0  0  0
 16 21  1  0  0  0
 16 31  1  0  0  0
 17 18  1  0  0  0
 17 96  1  0  0  0
 18 19  2  0  0  0
 18 97  1  0  0  0
 19 20  1  0  0  0
 19 24  1  0  0  0
 20 21  2  0  0  0
 20 98  1  0  0  0
 21 23  1  0  0  0
 22 28  1  0  0  0
 22 32  2  0  0  0
 26 27  1  0  0  0
 28 99  1  0  0  0
 28100  1  0  0  0
 29101  1  0  0  0
 29102  1  0  0  0
 33 34  1  0  0  0
 33 66  1  0  0  0
 33 70  2  0  0  0
 34 36  1  0  0  0
 34 59  1  0  0  0
 34103  1  0  0  0
 35 44  2  0  0  0
 35 45  1  0  0  0
 35 68  1  0  0  0
 36 56  1  0  0  0
 36104  1  0  0  0
 37 39  1  0  0  0
 37 47  1  0  0  0
 37 66  1  0  0  0
 37105  1  0  0  0
 38 43  2  0  0  0
 38 46  1  0  0  0
 38 47  1  0  0  0
 39 64  1  0  0  0
 39 67  2  0  0  0
 40 52  1  0  0  0
 40 53  2  0  0  0
 40 58  1  0  0  0
 41106  1  0  0  0
 41107  1  0  0  0
 41108  1  0  0  0
 41 48  1  0  0  0
 42 43  1  0  0  0
 42 66  1  0  0  0
 42109  1  0  0  0
 42110  1  0  0  0
 43 44  1  0  0  0
 44111  1  0  0  0
 45 46  2  0  0  0
 45112  1  0  0  0
 46113  1  0  0  0
 47114  1  0  0  0
 47115  1  0  0  0
 48 56  1  0  0  0
 48 65  1  0  0  0
 48116  1  0  0  0
 49 50  1  0  0  0
 49 53  1  0  0  0
 49 64  1  0  0  0
 49117  1  0  0  0
 50 51  1  0  0  0
 50118  1  0  0  0
 50119  1  0  0  0
 51 52  1  0  0  0
 51120  1  0  0  0
 51121  1  0  0  0
 52122  1  0  0  0
 52123  1  0  0  0
 53 54  1  0  0  0
 54 55  2  0  0  0
 54124  1  0  0  0
 55 57  1  0  0  0
 55125  1  0  0  0
 56 69  2  0  0  0
 57 58  2  0  0  0
 57126  1  0  0  0
 58127  1  0  0  0
 59 60  1  0  0  0
 59 61  1  0  0  0
 59 62  1  0  0  0
 60128  1  0  0  0
 60129  1  0  0  0
 60130  1  0  0  0
 61131  1  0  0  0
 61132  1  0  0  0
 61133  1  0  0  0
 62134  1  0  0  0
 62135  1  0  0  0
 62136  1  0  0  0
 63 65  1  0  0  0
 63137  1  0  0  0
 63138  1  0  0  0
 63139  1  0  0  0
 64140  1  0  0  0
 65141  1  0  0  0
 68 80  1  0  0  0
 71142  1  0  0  0
 71143  1  0  0  0
 71144  1  0  0  0
 71 81  1  0  0  0
 72 81  1  0  0  0
 72145  1  0  0  0
 72146  1  0  0  0
 72147  1  0  0  0
 73148  1  0  0  0
 73149  1  0  0  0
 73150  1  0  0  0
 73 82  1  0  0  0
 74 76  1  0  0  0
 74 78  1  0  0  0
 74151  1  0  0  0
 74152  1  0  0  0
 75 77  1  0  0  0
 75 79  1  0  0  0
 75153  1  0  0  0
 75154  1  0  0  0
 76 80  1  0  0  0
 76155  1  0  0  0
 76156  1  0  0  0
 77 81  1  0  0  0
 77157  1  0  0  0
 77158  1  0  0  0
 78 82  1  0  0  0
 78159  1  0  0  0
 78160  1  0  0  0
 79 82  1  0  0  0
 79161  1  0  0  0
 79162  1  0  0  0
 80163  1  0  0  0
 80164  1  0  0  0
 82165  1  0  0  0
M  CHG  1  82   1
M  ISO  4   1 100  68 101  80 101  81 100
M  END
> <chiral flag>
0

> <version>
0

> <s_m_source_file>
/data/baiqing/PycharmProjects/Reinvent-master-3.2/result/LINK_invent/BTK/process_docking_weight1_custom_sum_contain_oxygen_bond_distance_aromatic_linkinvent_7_9_3/rearranged_h_0092.sdf

> <i_m_source_file_index>
11

> <r_mmod_Potential_Energy-OPLS-2005>
-30.3058166503906

> <r_mmod_Stretch_Energy-OPLS-2005>
42.7682647705078

> <r_mmod_Bend_Energy-OPLS-2005>
131.848281860352

> <r_mmod_Torsional_Energy-OPLS-2005>
207.483352661133

> <r_mmod_Improper_Torsional_Energy-OPLS-2005>
1.55745768547058

> <r_mmod_Van_der_Waal_Energy-OPLS-2005>
168.107757568359

> <r_mmod_Electrostatic_Energy-OPLS-2005>
-175.885391235352

> <r_mmod_Solvation_Energy-OPLS-2005>
-418.752227783203

> <b_mmod_Minimization_Converged-OPLS-2005>
0

> <r_mmod_RMS_Derivative-OPLS-2005>
4.82578897476196

$$$$
11
                    3D
 Structure written by MMmdl.
196204  0  0  1  0            999 V2000
  -30.7982  -14.3331   20.7528 C   0  0  0  0  0  0
  -30.4159  -12.3146   19.3687 C   0  0  0  0  0  0
  -29.4709  -12.5416   18.1773 C   0  0  0  0  0  0
  -28.0016  -12.3792   18.6067 C   0  0  0  0  0  0
  -27.6652  -13.2001   19.8783 C   0  0  2  0  0  0
  -28.7076  -12.9389   20.9862 C   0  0  0  0  0  0
  -25.2607  -13.8151   20.5682 C   0  0  0  0  0  0
  -24.1846  -13.0439   20.9160 C   0  0  0  0  0  0
  -24.6388  -11.6900   20.8719 C   0  0  0  0  0  0
  -23.9050  -10.4289   21.0396 C   0  0  0  0  0  0
  -24.3604   -9.4206   21.9178 C   0  0  0  0  0  0
  -23.6282   -8.2241   22.0752 C   0  0  0  0  0  0
  -22.4264   -8.0274   21.3543 C   0  0  0  0  0  0
  -21.9895   -9.0247   20.4646 C   0  0  0  0  0  0
  -22.7221  -10.2127   20.3049 C   0  0  0  0  0  0
  -21.6852   -6.0726   22.5276 C   0  0  0  0  0  0
  -21.4013   -6.5632   23.8209 C   0  0  0  0  0  0
  -21.3662   -5.6790   24.9172 C   0  0  0  0  0  0
  -21.6045   -4.3052   24.7226 C   0  0  0  0  0  0
  -21.8820   -3.8140   23.4349 C   0  0  0  0  0  0
  -21.9194   -4.6954   22.3401 C   0  0  0  0  0  0
  -22.7871  -13.5248   21.1836 C   0  0  0  0  0  0
  -22.1659   -4.2139   21.0982 F   0  0  0  0  0  0
  -21.5629   -3.4537   25.7740 F   0  0  0  0  0  0
  -30.0436  -13.2446   20.4448 N   0  0  0  0  0  0
  -26.3047  -12.9313   20.3401 N   0  0  0  0  0  0
  -25.9313  -11.6475   20.5763 N   0  0  0  0  0  0
  -22.0511  -12.8240   22.0388 N   0  0  0  0  0  0
  -25.4343  -15.1868   20.4088 N   0  0  0  0  0  0
  -31.7646  -14.6706   20.0600 O   0  0  0  0  0  0
  -21.6635   -6.8866   21.4237 O   0  0  0  0  0  0
  -22.3567  -14.5570   20.6707 O   0  0  0  0  0  0
  -24.6118  -31.8697   23.2131 C   0  0  0  0  0  0
  -25.9023  -32.4833   23.8415 C   0  0  1  0  0  0
  -27.2325  -27.4659   20.0855 C   0  0  0  0  0  0
  -25.5888  -33.8632   24.2346 N   0  0  0  0  0  0
  -23.3976  -30.4937   21.5540 C   0  0  2  0  0  0
  -24.8432  -28.9643   20.1152 C   0  0  0  0  0  0
  -22.7390  -29.4666   22.5023 C   0  0  0  0  0  0
  -18.0264  -28.1364   22.8497 C   0  0  0  0  0  0
  -24.1487  -36.7326   23.2637 C   0  0  0  0  0  0
  -25.9234  -30.8461   21.3592 C   0  0  0  0  0  0
  -26.0031  -29.4839   20.7042 C   0  0  0  0  0  0
  -27.2045  -28.7433   20.6828 C   0  0  0  0  0  0
  -26.0566  -26.9517   19.4973 C   0  0  0  0  0  0
  -24.8630  -27.6959   19.5099 C   0  0  0  0  0  0
  -23.6027  -29.8257   20.1685 C   0  0  0  0  0  0
  -25.4107  -36.3120   24.0339 C   0  0  1  0  0  0
  -20.5849  -28.3651   23.1333 C   0  0  2  0  0  0
  -20.6760  -26.9395   22.5421 C   0  0  0  0  0  0
  -19.5744  -26.6382   21.5211 C   0  0  0  0  0  0
  -18.1919  -26.7916   22.1614 C   0  0  0  0  0  0
  -19.1511  -28.8826   23.2912 C   0  0  0  0  0  0
  -18.9442  -30.1432   23.8922 C   0  0  0  0  0  0
  -17.6446  -30.6581   24.0563 C   0  0  0  0  0  0
  -25.9029  -34.9480   23.5142 C   0  0  0  0  0  0
  -16.5339  -29.9082   23.6325 C   0  0  0  0  0  0
  -16.7253  -28.6494   23.0355 C   0  0  0  0  0  0
  -26.4463  -31.6593   25.0723 C   0  0  0  0  0  0
  -25.3749  -31.3669   26.1482 C   0  0  0  0  0  0
  -27.0281  -30.3044   24.6055 C   0  0  0  0  0  0
  -27.6057  -32.4295   25.7477 C   0  0  0  0  0  0
  -27.5585  -37.1813   24.8462 C   0  0  0  0  0  0
  -21.4121  -29.3025   22.3754 N   0  0  0  0  0  0
  -26.4296  -37.3801   23.9410 N   0  0  0  0  0  0
  -24.6628  -31.0823   22.1016 N   0  0  0  0  0  0
  -23.4176  -28.8208   23.3051 O   0  0  0  0  0  0
  -28.3961  -26.7353   20.0802 O   0  0  0  0  0  0
  -26.5589  -34.8926   22.4701 O   0  0  0  0  0  0
  -23.5320  -32.1428   23.7548 O   0  0  0  0  0  0
  -29.1869  -22.6664   22.4402 C   0  0  0  0  0  0
  -29.0755  -21.6898   23.4410 C   0  0  0  0  0  0
  -29.9548  -22.4652   21.2785 C   0  0  0  0  0  0
  -29.7943  -20.4732   23.3142 C   0  0  0  0  0  0
  -30.6133  -21.2153   21.0980 C   0  0  0  0  0  0
  -30.5720  -20.2379   22.1397 C   0  0  0  0  0  0
  -30.7807  -19.7659   25.5559 C   0  0  0  0  0  0
  -32.8159  -21.4620   19.8296 C   0  0  0  0  0  0
  -30.8387  -14.1963   23.2750 C   0  0  0  0  0  0
  -28.7764  -24.6050   18.3349 C   0  0  0  0  0  0
  -24.4067  -19.2458   22.8671 C   0  0  0  0  0  0
  -23.8582  -20.6697   24.7826 C   0  0  0  0  0  0
  -28.1925  -22.0327   24.6414 C   0  0  0  0  0  0
  -30.0904  -23.6467   20.3027 C   0  0  0  0  0  0
  -29.7558  -19.4504   24.4562 C   0  0  0  0  0  0
  -31.3764  -20.9274   19.8021 C   0  0  0  0  0  0
  -31.4259  -18.9643   22.0468 C   0  0  0  0  0  0
  -26.6843  -21.9472   24.3344 C   0  0  0  0  0  0
  -30.6604  -17.6924   21.6141 C   0  0  0  0  0  0
  -31.3073  -16.4328   22.2278 C   0  0  0  0  0  0
  -26.1978  -20.5304   23.9606 C   0  0  0  0  0  0
  -28.2922  -25.4588   20.7179 C   0  0  0  0  0  0
  -30.5156  -15.1052   22.0682 C   0  0  2  0  0  0
  -28.7453  -24.2629   19.8367 C   0  0  1  0  0  0
  -24.7528  -20.4760   23.6162 N   0  3  0  0  0  0
  -31.4540  -12.4320   19.0527 H   0  0  0  0  0  0
  -30.3344  -11.2877   19.7285 H   0  0  0  0  0  0
  -29.7040  -11.8423   17.3735 H   0  0  0  0  0  0
  -29.6262  -13.5419   17.7703 H   0  0  0  0  0  0
  -27.8219  -11.3191   18.7918 H   0  0  0  0  0  0
  -27.3362  -12.6618   17.7898 H   0  0  0  0  0  0
  -27.7256  -14.2546   19.6090 H   0  0  0  0  0  0
  -28.6774  -11.8930   21.2953 H   0  0  0  0  0  0
  -28.4439  -13.5073   21.8751 H   0  0  0  0  0  0
  -25.2746   -9.5682   22.4756 H   0  0  0  0  0  0
  -23.9989   -7.4633   22.7479 H   0  0  0  0  0  0
  -21.0820   -8.8762   19.8957 H   0  0  0  0  0  0
  -22.3675  -10.9661   19.6159 H   0  0  0  0  0  0
  -21.2003   -7.6141   23.9707 H   0  0  0  0  0  0
  -21.1483   -6.0521   25.9077 H   0  0  0  0  0  0
  -22.0599   -2.7602   23.2854 H   0  0  0  0  0  0
  -22.4114  -11.9873   22.4735 H   0  0  0  0  0  0
  -21.1138  -13.1272   22.2617 H   0  0  0  0  0  0
  -24.6665  -15.8424   20.4991 H   0  0  0  0  0  0
  -26.2952  -15.6222   20.1016 H   0  0  0  0  0  0
  -26.7096  -32.5550   23.1186 H   0  0  0  0  0  0
  -25.0052  -33.9809   25.0499 H   0  0  0  0  0  0
  -22.6847  -31.3093   21.4173 H   0  0  0  0  0  0
  -23.3743  -35.9663   23.3302 H   0  0  0  0  0  0
  -24.3588  -36.8938   22.2052 H   0  0  0  0  0  0
  -23.7246  -37.6536   23.6647 H   0  0  0  0  0  0
  -26.0288  -31.6148   20.5926 H   0  0  0  0  0  0
  -26.8141  -30.9005   21.9730 H   0  0  0  0  0  0
  -28.1029  -29.1416   21.1334 H   0  0  0  0  0  0
  -26.0582  -25.9773   19.0314 H   0  0  0  0  0  0
  -23.9699  -27.2895   19.0558 H   0  0  0  0  0  0
  -23.7041  -30.5997   19.4074 H   0  0  0  0  0  0
  -22.7278  -29.2417   19.8775 H   0  0  0  0  0  0
  -25.1280  -36.1993   25.0832 H   0  0  0  0  0  0
  -20.9936  -28.3209   24.1455 H   0  0  0  0  0  0
  -20.5667  -26.2258   23.3599 H   0  0  0  0  0  0
  -21.6636  -26.7452   22.1211 H   0  0  0  0  0  0
  -19.6918  -25.6300   21.1227 H   0  0  0  0  0  0
  -19.6689  -27.3205   20.6754 H   0  0  0  0  0  0
  -17.4195  -26.6668   21.4010 H   0  0  0  0  0  0
  -18.0320  -26.0042   22.8995 H   0  0  0  0  0  0
  -19.7920  -30.7238   24.2307 H   0  0  0  0  0  0
  -17.5004  -31.6268   24.5152 H   0  0  0  0  0  0
  -15.5342  -30.2995   23.7641 H   0  0  0  0  0  0
  -15.8645  -28.0821   22.7071 H   0  0  0  0  0  0
  -24.5939  -30.6990   25.7828 H   0  0  0  0  0  0
  -24.8913  -32.2804   26.4953 H   0  0  0  0  0  0
  -25.8128  -30.8837   27.0226 H   0  0  0  0  0  0
  -26.2802  -29.6813   24.1135 H   0  0  0  0  0  0
  -27.4102  -29.7266   25.4481 H   0  0  0  0  0  0
  -27.8615  -30.4377   23.9153 H   0  0  0  0  0  0
  -27.2703  -33.3593   26.2081 H   0  0  0  0  0  0
  -28.3856  -32.6851   25.0291 H   0  0  0  0  0  0
  -28.0732  -31.8390   26.5365 H   0  0  0  0  0  0
  -28.2601  -38.0112   24.7521 H   0  0  0  0  0  0
  -28.1081  -36.2648   24.6269 H   0  0  0  0  0  0
  -27.2303  -37.1445   25.8864 H   0  0  0  0  0  0
  -20.9279  -29.8747   21.6979 H   0  0  0  0  0  0
  -26.0185  -38.2882   24.1405 H   0  0  0  0  0  0
  -28.6692  -23.6002   22.5905 H   0  0  0  0  0  0
  -30.7266  -19.0308   26.3587 H   0  0  0  0  0  0
  -30.6091  -20.7479   25.9962 H   0  0  0  0  0  0
  -31.7990  -19.7572   25.1679 H   0  0  0  0  0  0
  -33.3319  -21.2328   18.8972 H   0  0  0  0  0  0
  -33.3908  -21.0177   20.6416 H   0  0  0  0  0  0
  -32.8410  -22.5431   19.9654 H   0  0  0  0  0  0
  -31.9103  -14.0053   23.3471 H   0  0  0  0  0  0
  -30.3437  -13.2275   23.2199 H   0  0  0  0  0  0
  -30.5207  -14.6576   24.2107 H   0  0  0  0  0  0
  -29.0020  -23.7221   17.7365 H   0  0  0  0  0  0
  -29.5344  -25.3572   18.1133 H   0  0  0  0  0  0
  -27.8174  -24.9874   17.9881 H   0  0  0  0  0  0
  -23.3565  -19.2503   22.5727 H   0  0  0  0  0  0
  -24.5840  -18.3538   23.4690 H   0  0  0  0  0  0
  -24.9981  -19.1615   21.9547 H   0  0  0  0  0  0
  -22.8115  -20.6294   24.4798 H   0  0  0  0  0  0
  -24.0116  -21.6390   25.2553 H   0  0  0  0  0  0
  -24.0178  -19.8968   25.5351 H   0  0  0  0  0  0
  -28.4272  -23.0549   24.9422 H   0  0  0  0  0  0
  -28.4272  -21.4382   25.5212 H   0  0  0  0  0  0
  -30.6683  -23.3708   19.4265 H   0  0  0  0  0  0
  -30.7067  -24.4097   20.7802 H   0  0  0  0  0  0
  -29.9189  -18.4375   24.0987 H   0  0  0  0  0  0
  -28.7569  -19.3979   24.8842 H   0  0  0  0  0  0
  -30.8350  -21.3328   18.9479 H   0  0  0  0  0  0
  -31.3819  -19.8592   19.5903 H   0  0  0  0  0  0
  -31.8832  -18.8138   23.0234 H   0  0  0  0  0  0
  -32.2980  -19.0991   21.4107 H   0  0  0  0  0  0
  -26.4412  -22.6432   23.5308 H   0  0  0  0  0  0
  -26.1506  -22.3037   25.2150 H   0  0  0  0  0  0
  -30.6091  -17.6256   20.5267 H   0  0  0  0  0  0
  -29.6275  -17.7544   21.9577 H   0  0  0  0  0  0
  -31.4234  -16.6218   23.2955 H   0  0  0  0  0  0
  -32.3293  -16.3283   21.8602 H   0  0  0  0  0  0
  -26.4053  -19.8287   24.7697 H   0  0  0  0  0  0
  -26.7739  -20.1845   23.1008 H   0  0  0  0  0  0
  -28.9040  -25.5292   21.6172 H   0  0  0  0  0  0
  -27.2860  -25.2602   21.0940 H   0  0  0  0  0  0
  -29.4579  -15.3632   22.0990 H   0  0  0  0  0  0
  -27.9884  -23.4829   19.9356 H   0  0  0  0  0  0
  -24.5726  -21.2397   22.9810 H   0  0  0  0  0  0
  1 25  1  0  0  0
  1 30  2  0  0  0
  1 93  1  0  0  0
  2  3  1  0  0  0
  2 25  1  0  0  0
  2 96  1  0  0  0
  2 97  1  0  0  0
  3  4  1  0  0  0
  3 98  1  0  0  0
  3 99  1  0  0  0
  4  5  1  0  0  0
  4100  1  0  0  0
  4101  1  0  0  0
  5  6  1  0  0  0
  5 26  1  0  0  0
  5102  1  0  0  0
  6 25  1  0  0  0
  6103  1  0  0  0
  6104  1  0  0  0
  7  8  2  0  0  0
  7 26  1  0  0  0
  7 29  1  0  0  0
  8  9  1  0  0  0
  8 22  1  0  0  0
  9 10  1  0  0  0
  9 27  2  0  0  0
 10 11  2  0  0  0
 10 15  1  0  0  0
 11 12  1  0  0  0
 11105  1  0  0  0
 12 13  2  0  0  0
 12106  1  0  0  0
 13 14  1  0  0  0
 13 31  1  0  0  0
 14 15  2  0  0  0
 14107  1  0  0  0
 15108  1  0  0  0
 16 17  2  0  0  0
 16 21  1  0  0  0
 16 31  1  0  0  0
 17 18  1  0  0  0
 17109  1  0  0  0
 18 19  2  0  0  0
 18110  1  0  0  0
 19 20  1  0  0  0
 19 24  1  0  0  0
 20 21  2  0  0  0
 20111  1  0  0  0
 21 23  1  0  0  0
 22 28  1  0  0  0
 22 32  2  0  0  0
 26 27  1  0  0  0
 28112  1  0  0  0
 28113  1  0  0  0
 29114  1  0  0  0
 29115  1  0  0  0
 33 34  1  0  0  0
 33 66  1  0  0  0
 33 70  2  0  0  0
 34 36  1  0  0  0
 34 59  1  0  0  0
 34116  1  0  0  0
 35 44  2  0  0  0
 35 45  1  0  0  0
 35 68  1  0  0  0
 36 56  1  0  0  0
 36117  1  0  0  0
 37 39  1  0  0  0
 37 47  1  0  0  0
 37 66  1  0  0  0
 37118  1  0  0  0
 38 43  2  0  0  0
 38 46  1  0  0  0
 38 47  1  0  0  0
 39 64  1  0  0  0
 39 67  2  0  0  0
 40 52  1  0  0  0
 40 53  2  0  0  0
 40 58  1  0  0  0
 41119  1  0  0  0
 41120  1  0  0  0
 41121  1  0  0  0
 41 48  1  0  0  0
 42 43  1  0  0  0
 42 66  1  0  0  0
 42122  1  0  0  0
 42123  1  0  0  0
 43 44  1  0  0  0
 44124  1  0  0  0
 45 46  2  0  0  0
 45125  1  0  0  0
 46126  1  0  0  0
 47127  1  0  0  0
 47128  1  0  0  0
 48 56  1  0  0  0
 48 65  1  0  0  0
 48129  1  0  0  0
 49 50  1  0  0  0
 49 53  1  0  0  0
 49 64  1  0  0  0
 49130  1  0  0  0
 50 51  1  0  0  0
 50131  1  0  0  0
 50132  1  0  0  0
 51 52  1  0  0  0
 51133  1  0  0  0
 51134  1  0  0  0
 52135  1  0  0  0
 52136  1  0  0  0
 53 54  1  0  0  0
 54 55  2  0  0  0
 54137  1  0  0  0
 55 57  1  0  0  0
 55138  1  0  0  0
 56 69  2  0  0  0
 57 58  2  0  0  0
 57139  1  0  0  0
 58140  1  0  0  0
 59 60  1  0  0  0
 59 61  1  0  0  0
 59 62  1  0  0  0
 60141  1  0  0  0
 60142  1  0  0  0
 60143  1  0  0  0
 61144  1  0  0  0
 61145  1  0  0  0
 61146  1  0  0  0
 62147  1  0  0  0
 62148  1  0  0  0
 62149  1  0  0  0
 63 65  1  0  0  0
 63150  1  0  0  0
 63151  1  0  0  0
 63152  1  0  0  0
 64153  1  0  0  0
 65154  1  0  0  0
 68 92  1  0  0  0
 71 72  2  0  0  0
 71 73  1  0  0  0
 71155  1  0  0  0
 72 74  1  0  0  0
 72 83  1  0  0  0
 73 75  2  0  0  0
 73 84  1  0  0  0
 74 76  2  0  0  0
 74 85  1  0  0  0
 75 76  1  0  0  0
 75 86  1  0  0  0
 76 87  1  0  0  0
 77 85  1  0  0  0
 77156  1  0  0  0
 77157  1  0  0  0
 77158  1  0  0  0
 78 86  1  0  0  0
 78159  1  0  0  0
 78160  1  0  0  0
 78161  1  0  0  0
 79162  1  0  0  0
 79163  1  0  0  0
 79164  1  0  0  0
 79 93  1  0  0  0
 80165  1  0  0  0
 80166  1  0  0  0
 80167  1  0  0  0
 80 94  1  0  0  0
 81168  1  0  0  0
 81169  1  0  0  0
 81170  1  0  0  0
 81 95  1  0  0  0
 82 95  1  0  0  0
 82171  1  0  0  0
 82172  1  0  0  0
 82173  1  0  0  0
 83 88  1  0  0  0
 83174  1  0  0  0
 83175  1  0  0  0
 84 94  1  0  0  0
 84176  1  0  0  0
 84177  1  0  0  0
 85178  1  0  0  0
 85179  1  0  0  0
 86180  1  0  0  0
 86181  1  0  0  0
 87 89  1  0  0  0
 87182  1  0  0  0
 87183  1  0  0  0
 88 91  1  0  0  0
 88184  1  0  0  0
 88185  1  0  0  0
 89 90  1  0  0  0
 89186  1  0  0  0
 89187  1  0  0  0
 90 93  1  0  0  0
 90188  1  0  0  0
 90189  1  0  0  0
 91 95  1  0  0  0
 91190  1  0  0  0
 91191  1  0  0  0
 92 94  1  0  0  0
 92192  1  0  0  0
 92193  1  0  0  0
 93194  1  0  0  0
 94195  1  0  0  0
 95196  1  0  0  0
M  CHG  1  95   1
M  ISO  4   1 100  68 101  92 101  93 100
M  END
> <chiral flag>
0

> <version>
0

> <s_m_source_file>
/data/baiqing/PycharmProjects/Reinvent-master-3.2/result/LINK_invent/BTK/process_docking_weight1_custom_sum_contain_oxygen_bond_distance_aromatic_linkinvent_7_9_3/rearranged_h_0092.sdf

> <i_m_source_file_index>
12

> <r_mmod_Potential_Energy-OPLS-2005>
-90.5646591186523

> <r_mmod_Stretch_Energy-OPLS-2005>
43.3112983703613

> <r_mmod_Bend_Energy-OPLS-2005>
108.291465759277

> <r_mmod_Torsional_Energy-OPLS-2005>
234.916046142578

> <r_mmod_Improper_Torsional_Energy-OPLS-2005>
2.32769083976746

> <r_mmod_Van_der_Waal_Energy-OPLS-2005>
168.556076049805

> <r_mmod_Electrostatic_Energy-OPLS-2005>
-252.828720092773

> <r_mmod_Solvation_Energy-OPLS-2005>
-403.478637695312

> <b_mmod_Minimization_Converged-OPLS-2005>
0

> <r_mmod_RMS_Derivative-OPLS-2005>
0.807489931583405

$$$$
12
                    3D
 Structure written by MMmdl.
158166  0  0  1  0            999 V2000
  -30.6437  -14.6757   20.4711 C   0  0  0  0  0  0
  -30.4269  -12.4115   19.4690 C   0  0  0  0  0  0
  -29.5070  -12.5031   18.2326 C   0  0  0  0  0  0
  -28.0311  -12.3399   18.6434 C   0  0  0  0  0  0
  -27.6459  -13.2282   19.8567 C   0  0  2  0  0  0
  -28.6902  -13.1356   20.9919 C   0  0  0  0  0  0
  -25.2525  -13.8203   20.5702 C   0  0  0  0  0  0
  -24.1810  -13.0450   20.9210 C   0  0  0  0  0  0
  -24.6398  -11.6923   20.8745 C   0  0  0  0  0  0
  -23.9071  -10.4294   21.0398 C   0  0  0  0  0  0
  -24.3615   -9.4208   21.9177 C   0  0  0  0  0  0
  -23.6290   -8.2245   22.0755 C   0  0  0  0  0  0
  -22.4273   -8.0281   21.3545 C   0  0  0  0  0  0
  -21.9904   -9.0258   20.4646 C   0  0  0  0  0  0
  -22.7240  -10.2133   20.3053 C   0  0  0  0  0  0
  -21.6858   -6.0731   22.5276 C   0  0  0  0  0  0
  -21.4023   -6.5635   23.8209 C   0  0  0  0  0  0
  -21.3658   -5.6784   24.9169 C   0  0  0  0  0  0
  -21.6042   -4.3050   24.7214 C   0  0  0  0  0  0
  -21.8818   -3.8143   23.4336 C   0  0  0  0  0  0
  -21.9195   -4.6959   22.3396 C   0  0  0  0  0  0
  -22.7826  -13.5230   21.1859 C   0  0  0  0  0  0
  -22.1664   -4.2145   21.0972 F   0  0  0  0  0  0
  -21.5620   -3.4534   25.7727 F   0  0  0  0  0  0
  -30.0006  -13.4639   20.4158 N   0  0  0  0  0  0
  -26.2954  -12.9402   20.3300 N   0  0  0  0  0  0
  -25.9326  -11.6541   20.5755 N   0  0  0  0  0  0
  -22.0466  -12.8225   22.0412 N   0  0  0  0  0  0
  -25.4208  -15.1932   20.4127 N   0  0  0  0  0  0
  -31.8233  -14.7751   20.1251 O   0  0  0  0  0  0
  -21.6644   -6.8877   21.4237 O   0  0  0  0  0  0
  -22.3503  -14.5529   20.6698 O   0  0  0  0  0  0
  -24.6279  -31.8588   23.2029 C   0  0  0  0  0  0
  -25.9120  -32.4775   23.8354 C   0  0  1  0  0  0
  -27.2135  -27.2899   20.1167 C   0  0  0  0  0  0
  -25.5927  -33.8576   24.2272 N   0  0  0  0  0  0
  -23.4228  -30.4854   21.5451 C   0  0  2  0  0  0
  -24.8678  -28.9426   20.1072 C   0  0  0  0  0  0
  -22.7481  -29.4624   22.4912 C   0  0  0  0  0  0
  -18.0286  -28.1384   22.8492 C   0  0  0  0  0  0
  -24.1489  -36.7291   23.2639 C   0  0  0  0  0  0
  -25.9675  -30.7793   21.3811 C   0  0  0  0  0  0
  -26.0390  -29.4060   20.7200 C   0  0  0  0  0  0
  -27.2133  -28.5906   20.7187 C   0  0  0  0  0  0
  -26.0214  -26.9018   19.4591 C   0  0  0  0  0  0
  -24.8626  -27.6971   19.4674 C   0  0  0  0  0  0
  -23.6387  -29.8263   20.1588 C   0  0  0  0  0  0
  -25.4115  -36.3079   24.0327 C   0  0  1  0  0  0
  -20.5889  -28.3698   23.1268 C   0  0  2  0  0  0
  -20.6765  -26.9417   22.5402 C   0  0  0  0  0  0
  -19.5739  -26.6387   21.5209 C   0  0  0  0  0  0
  -18.1926  -26.7930   22.1628 C   0  0  0  0  0  0
  -19.1540  -28.8860   23.2878 C   0  0  0  0  0  0
  -18.9462  -30.1461   23.8897 C   0  0  0  0  0  0
  -17.6460  -30.6591   24.0567 C   0  0  0  0  0  0
  -25.9053  -34.9448   23.5098 C   0  0  0  0  0  0
  -16.5351  -29.9087   23.6332 C   0  0  0  0  0  0
  -16.7274  -28.6500   23.0364 C   0  0  0  0  0  0
  -26.4495  -31.6590   25.0730 C   0  0  0  0  0  0
  -25.3724  -31.3738   26.1456 C   0  0  0  0  0  0
  -27.0340  -30.3005   24.6206 C   0  0  0  0  0  0
  -27.6044  -32.4333   25.7507 C   0  0  0  0  0  0
  -27.5578  -37.1802   24.8466 C   0  0  0  0  0  0
  -21.4190  -29.3051   22.3657 N   0  0  0  0  0  0
  -26.4290  -37.3776   23.9408 N   0  0  0  0  0  0
  -24.6918  -31.0579   22.0996 N   0  0  0  0  0  0
  -23.4195  -28.8155   23.2992 O   0  0  0  0  0  0
  -28.3053  -26.3971   20.1941 O   0  0  0  0  0  0
  -26.5623  -34.8918   22.4667 O   0  0  0  0  0  0
  -23.5435  -32.1396   23.7342 O   0  0  0  0  0  0
  -29.5361  -19.7954   20.1925 C   0  0  0  0  0  0
  -28.6364  -18.4236   21.9508 C   0  0  0  0  0  0
  -29.4678  -18.4971   20.8232 C   0  0  0  0  0  0
  -28.7593  -20.9240   20.6563 C   0  0  0  0  0  0
  -27.9317  -20.6563   21.7774 C   0  0  0  0  0  0
  -25.4862  -21.3395   21.8340 C   0  0  0  0  0  0
  -28.6376  -22.2863   19.8474 C   0  0  0  0  0  0
  -30.3008  -17.2340   20.3526 C   0  0  0  0  0  0
  -26.9088  -21.6480   22.3193 C   0  0  0  0  0  0
  -28.9798  -23.7487   20.4374 C   0  0  0  0  0  0
  -28.0556  -24.9510   19.9091 C   0  0  0  0  0  0
  -27.9023  -19.4593   22.4081 N   0  0  0  0  0  0
  -29.8886  -15.8080   20.6828 N   0  0  0  0  0  0
  -31.4713  -12.5184   19.1701 H   0  0  0  0  0  0
  -30.3508  -11.4285   19.9359 H   0  0  0  0  0  0
  -29.7787  -11.7406   17.5020 H   0  0  0  0  0  0
  -29.6475  -13.4660   17.7379 H   0  0  0  0  0  0
  -27.8746  -11.2896   18.8908 H   0  0  0  0  0  0
  -27.3766  -12.5531   17.7973 H   0  0  0  0  0  0
  -27.6493  -14.2544   19.4894 H   0  0  0  0  0  0
  -28.7064  -12.1337   21.4235 H   0  0  0  0  0  0
  -28.4369  -13.8146   21.8074 H   0  0  0  0  0  0
  -25.2756   -9.5683   22.4757 H   0  0  0  0  0  0
  -23.9993   -7.4636   22.7479 H   0  0  0  0  0  0
  -21.0834   -8.8779   19.8955 H   0  0  0  0  0  0
  -22.3699  -10.9672   19.6163 H   0  0  0  0  0  0
  -21.2032   -7.6144   23.9715 H   0  0  0  0  0  0
  -21.1479   -6.0511   25.9072 H   0  0  0  0  0  0
  -22.0603   -2.7604   23.2838 H   0  0  0  0  0  0
  -22.4088  -11.9898   22.4812 H   0  0  0  0  0  0
  -21.1087  -13.1260   22.2617 H   0  0  0  0  0  0
  -24.6539  -15.8448   20.5397 H   0  0  0  0  0  0
  -26.2593  -15.6351   20.0575 H   0  0  0  0  0  0
  -26.7183  -32.5431   23.1096 H   0  0  0  0  0  0
  -25.0074  -33.9720   25.0418 H   0  0  0  0  0  0
  -22.7170  -31.3070   21.4037 H   0  0  0  0  0  0
  -23.3746  -35.9629   23.3307 H   0  0  0  0  0  0
  -24.3581  -36.8906   22.2052 H   0  0  0  0  0  0
  -23.7244  -37.6494   23.6662 H   0  0  0  0  0  0
  -26.1052  -31.5427   20.6145 H   0  0  0  0  0  0
  -26.8460  -30.8244   22.0138 H   0  0  0  0  0  0
  -28.1061  -28.9373   21.2199 H   0  0  0  0  0  0
  -25.9435  -25.9593   18.9390 H   0  0  0  0  0  0
  -23.9680  -27.3407   18.9742 H   0  0  0  0  0  0
  -23.7612  -30.6052   19.4046 H   0  0  0  0  0  0
  -22.7572  -29.2593   19.8541 H   0  0  0  0  0  0
  -25.1296  -36.1931   25.0818 H   0  0  0  0  0  0
  -20.9997  -28.3278   24.1385 H   0  0  0  0  0  0
  -20.5653  -26.2318   23.3611 H   0  0  0  0  0  0
  -21.6634  -26.7428   22.1209 H   0  0  0  0  0  0
  -19.6898  -25.6299   21.1240 H   0  0  0  0  0  0
  -19.6669  -27.3196   20.6739 H   0  0  0  0  0  0
  -17.4192  -26.6688   21.4032 H   0  0  0  0  0  0
  -18.0327  -26.0063   22.9016 H   0  0  0  0  0  0
  -19.7940  -30.7279   24.2261 H   0  0  0  0  0  0
  -17.5017  -31.6274   24.5164 H   0  0  0  0  0  0
  -15.5351  -30.2993   23.7648 H   0  0  0  0  0  0
  -15.8676  -28.0814   22.7084 H   0  0  0  0  0  0
  -24.5900  -30.7085   25.7786 H   0  0  0  0  0  0
  -24.8921  -32.2911   26.4863 H   0  0  0  0  0  0
  -25.8047  -30.8926   27.0236 H   0  0  0  0  0  0
  -26.2919  -29.6756   24.1222 H   0  0  0  0  0  0
  -27.4009  -29.7261   25.4719 H   0  0  0  0  0  0
  -27.8805  -30.4270   23.9457 H   0  0  0  0  0  0
  -27.2635  -33.3630   26.2075 H   0  0  0  0  0  0
  -28.3864  -32.6898   25.0351 H   0  0  0  0  0  0
  -28.0704  -31.8470   26.5436 H   0  0  0  0  0  0
  -28.2596  -38.0096   24.7505 H   0  0  0  0  0  0
  -28.1069  -36.2625   24.6303 H   0  0  0  0  0  0
  -27.2296  -37.1469   25.8869 H   0  0  0  0  0  0
  -20.9362  -29.8796   21.6890 H   0  0  0  0  0  0
  -26.0167  -38.2849   24.1407 H   0  0  0  0  0  0
  -30.1587  -19.9149   19.3171 H   0  0  0  0  0  0
  -28.5451  -17.5013   22.5052 H   0  0  0  0  0  0
  -25.1714  -20.3438   22.1470 H   0  0  0  0  0  0
  -25.4278  -21.3830   20.7466 H   0  0  0  0  0  0
  -24.7717  -22.0570   22.2381 H   0  0  0  0  0  0
  -27.5989  -22.3161   19.5153 H   0  0  0  0  0  0
  -29.2010  -22.1671   18.9211 H   0  0  0  0  0  0
  -31.3132  -17.3775   20.7339 H   0  0  0  0  0  0
  -30.3927  -17.2961   19.2668 H   0  0  0  0  0  0
  -27.1527  -22.6709   22.0551 H   0  0  0  0  0  0
  -26.9355  -21.6196   23.4096 H   0  0  0  0  0  0
  -30.0224  -23.9723   20.2100 H   0  0  0  0  0  0
  -28.9339  -23.7388   21.5251 H   0  0  0  0  0  0
  -27.0680  -24.6983   20.2961 H   0  0  0  0  0  0
  -27.9912  -24.8597   18.8237 H   0  0  0  0  0  0
  -28.9209  -15.6474   20.9144 H   0  0  0  0  0  0
  1 25  1  0  0  0
  1 30  2  0  0  0
  1 83  1  0  0  0
  2  3  1  0  0  0
  2 25  1  0  0  0
  2 84  1  0  0  0
  2 85  1  0  0  0
  3  4  1  0  0  0
  3 86  1  0  0  0
  3 87  1  0  0  0
  4  5  1  0  0  0
  4 88  1  0  0  0
  4 89  1  0  0  0
  5  6  1  0  0  0
  5 26  1  0  0  0
  5 90  1  0  0  0
  6 25  1  0  0  0
  6 91  1  0  0  0
  6 92  1  0  0  0
  7  8  2  0  0  0
  7 26  1  0  0  0
  7 29  1  0  0  0
  8  9  1  0  0  0
  8 22  1  0  0  0
  9 10  1  0  0  0
  9 27  2  0  0  0
 10 11  2  0  0  0
 10 15  1  0  0  0
 11 12  1  0  0  0
 11 93  1  0  0  0
 12 13  2  0  0  0
 12 94  1  0  0  0
 13 14  1  0  0  0
 13 31  1  0  0  0
 14 15  2  0  0  0
 14 95  1  0  0  0
 15 96  1  0  0  0
 16 17  2  0  0  0
 16 21  1  0  0  0
 16 31  1  0  0  0
 17 18  1  0  0  0
 17 97  1  0  0  0
 18 19  2  0  0  0
 18 98  1  0  0  0
 19 20  1  0  0  0
 19 24  1  0  0  0
 20 21  2  0  0  0
 20 99  1  0  0  0
 21 23  1  0  0  0
 22 28  1  0  0  0
 22 32  2  0  0  0
 26 27  1  0  0  0
 28100  1  0  0  0
 28101  1  0  0  0
 29102  1  0  0  0
 29103  1  0  0  0
 33 34  1  0  0  0
 33 66  1  0  0  0
 33 70  2  0  0  0
 34 36  1  0  0  0
 34 59  1  0  0  0
 34104  1  0  0  0
 35 44  2  0  0  0
 35 45  1  0  0  0
 35 68  1  0  0  0
 36 56  1  0  0  0
 36105  1  0  0  0
 37 39  1  0  0  0
 37 47  1  0  0  0
 37 66  1  0  0  0
 37106  1  0  0  0
 38 43  2  0  0  0
 38 46  1  0  0  0
 38 47  1  0  0  0
 39 64  1  0  0  0
 39 67  2  0  0  0
 40 52  1  0  0  0
 40 53  2  0  0  0
 40 58  1  0  0  0
 41107  1  0  0  0
 41108  1  0  0  0
 41109  1  0  0  0
 41 48  1  0  0  0
 42 43  1  0  0  0
 42 66  1  0  0  0
 42110  1  0  0  0
 42111  1  0  0  0
 43 44  1  0  0  0
 44112  1  0  0  0
 45 46  2  0  0  0
 45113  1  0  0  0
 46114  1  0  0  0
 47115  1  0  0  0
 47116  1  0  0  0
 48 56  1  0  0  0
 48 65  1  0  0  0
 48117  1  0  0  0
 49 50  1  0  0  0
 49 53  1  0  0  0
 49 64  1  0  0  0
 49118  1  0  0  0
 50 51  1  0  0  0
 50119  1  0  0  0
 50120  1  0  0  0
 51 52  1  0  0  0
 51121  1  0  0  0
 51122  1  0  0  0
 52123  1  0  0  0
 52124  1  0  0  0
 53 54  1  0  0  0
 54 55  2  0  0  0
 54125  1  0  0  0
 55 57  1  0  0  0
 55126  1  0  0  0
 56 69  2  0  0  0
 57 58  2  0  0  0
 57127  1  0  0  0
 58128  1  0  0  0
 59 60  1  0  0  0
 59 61  1  0  0  0
 59 62  1  0  0  0
 60129  1  0  0  0
 60130  1  0  0  0
 60131  1  0  0  0
 61132  1  0  0  0
 61133  1  0  0  0
 61134  1  0  0  0
 62135  1  0  0  0
 62136  1  0  0  0
 62137  1  0  0  0
 63 65  1  0  0  0
 63138  1  0  0  0
 63139  1  0  0  0
 63140  1  0  0  0
 64141  1  0  0  0
 65142  1  0  0  0
 68 81  1  0  0  0
 71 73  2  0  0  0
 71 74  1  0  0  0
 71143  1  0  0  0
 72 73  1  0  0  0
 72 82  2  0  0  0
 72144  1  0  0  0
 73 78  1  0  0  0
 74 75  2  0  0  0
 74 77  1  0  0  0
 75 79  1  0  0  0
 75 82  1  0  0  0
 76 79  1  0  0  0
 76145  1  0  0  0
 76146  1  0  0  0
 76147  1  0  0  0
 77 80  1  0  0  0
 77148  1  0  0  0
 77149  1  0  0  0
 78 83  1  0  0  0
 78150  1  0  0  0
 78151  1  0  0  0
 79152  1  0  0  0
 79153  1  0  0  0
 80 81  1  0  0  0
 80154  1  0  0  0
 80155  1  0  0  0
 81156  1  0  0  0
 81157  1  0  0  0
 83158  1  0  0  0
M  ISO  4   1 100  68 101  81 101  83 100
M  END
> <chiral flag>
0

> <version>
0

> <s_m_source_file>
/data/baiqing/PycharmProjects/Reinvent-master-3.2/result/LINK_invent/BTK/process_docking_weight1_custom_sum_contain_oxygen_bond_distance_aromatic_linkinvent_7_9_3/rearranged_h_0092.sdf

> <i_m_source_file_index>
13

> <r_mmod_Potential_Energy-OPLS-2005>
-39.7719612121582

> <r_mmod_Stretch_Energy-OPLS-2005>
100.870384216309

> <r_mmod_Bend_Energy-OPLS-2005>
153.700103759766

> <r_mmod_Torsional_Energy-OPLS-2005>
202.437377929688

> <r_mmod_Improper_Torsional_Energy-OPLS-2005>
7.25695466995239

> <r_mmod_Van_der_Waal_Energy-OPLS-2005>
145.60546875

> <r_mmod_Electrostatic_Energy-OPLS-2005>
-496.001861572266

> <r_mmod_Solvation_Energy-OPLS-2005>
-219.329055786133

> <b_mmod_Minimization_Converged-OPLS-2005>
0

> <r_mmod_RMS_Derivative-OPLS-2005>
1.07713413238525

$$$$
13
                    3D
 Structure written by MMmdl.
178186  0  0  1  0            999 V2000
  -30.7210  -14.4510   20.6218 C   0  0  0  0  0  0
  -30.4235  -12.3039   19.4337 C   0  0  0  0  0  0
  -29.5095  -12.5118   18.2085 C   0  0  0  0  0  0
  -28.0264  -12.3754   18.6090 C   0  0  0  0  0  0
  -27.6624  -13.2103   19.8666 C   0  0  2  0  0  0
  -28.6942  -12.9918   20.9986 C   0  0  0  0  0  0
  -25.2572  -13.8162   20.5591 C   0  0  0  0  0  0
  -24.1825  -13.0444   20.9117 C   0  0  0  0  0  0
  -24.6387  -11.6917   20.8670 C   0  0  0  0  0  0
  -23.9073  -10.4298   21.0346 C   0  0  0  0  0  0
  -24.3631   -9.4222   21.9136 C   0  0  0  0  0  0
  -23.6279   -8.2273   22.0762 C   0  0  0  0  0  0
  -22.4240   -8.0307   21.3582 C   0  0  0  0  0  0
  -21.9883   -9.0270   20.4665 C   0  0  0  0  0  0
  -22.7238  -10.2130   20.3008 C   0  0  0  0  0  0
  -21.6850   -6.0715   22.5280 C   0  0  0  0  0  0
  -21.4020   -6.5617   23.8213 C   0  0  0  0  0  0
  -21.3659   -5.6774   24.9176 C   0  0  0  0  0  0
  -21.6046   -4.3039   24.7234 C   0  0  0  0  0  0
  -21.8819   -3.8136   23.4356 C   0  0  0  0  0  0
  -21.9190   -4.6945   22.3408 C   0  0  0  0  0  0
  -22.7848  -13.5246   21.1813 C   0  0  0  0  0  0
  -22.1659   -4.2128   21.0987 F   0  0  0  0  0  0
  -21.5649   -3.4543   25.7757 F   0  0  0  0  0  0
  -30.0314  -13.2845   20.4614 N   0  0  0  0  0  0
  -26.3011  -12.9349   20.3235 N   0  0  0  0  0  0
  -25.9300  -11.6515   20.5649 N   0  0  0  0  0  0
  -22.0484  -12.8244   22.0374 N   0  0  0  0  0  0
  -25.4318  -15.1879   20.4050 N   0  0  0  0  0  0
  -31.8181  -14.6484   20.0930 O   0  0  0  0  0  0
  -21.6655   -6.8868   21.4236 O   0  0  0  0  0  0
  -22.3506  -14.5541   20.6651 O   0  0  0  0  0  0
  -24.6144  -31.8741   23.2132 C   0  0  0  0  0  0
  -25.9041  -32.4858   23.8433 C   0  0  1  0  0  0
  -27.2332  -27.4377   20.1224 C   0  0  0  0  0  0
  -25.5888  -33.8652   24.2382 N   0  0  0  0  0  0
  -23.4033  -30.4959   21.5517 C   0  0  2  0  0  0
  -24.8542  -28.9634   20.1131 C   0  0  0  0  0  0
  -22.7425  -29.4693   22.5013 C   0  0  0  0  0  0
  -18.0279  -28.1379   22.8539 C   0  0  0  0  0  0
  -24.1470  -36.7296   23.2635 C   0  0  0  0  0  0
  -25.9296  -30.8426   21.3644 C   0  0  0  0  0  0
  -26.0126  -29.4755   20.7142 C   0  0  0  0  0  0
  -27.2068  -28.7180   20.7213 C   0  0  0  0  0  0
  -26.0739  -26.9534   19.4830 C   0  0  0  0  0  0
  -24.8812  -27.7005   19.4925 C   0  0  0  0  0  0
  -23.6160  -29.8291   20.1662 C   0  0  0  0  0  0
  -25.4095  -36.3147   24.0360 C   0  0  1  0  0  0
  -20.5883  -28.3687   23.1325 C   0  0  2  0  0  0
  -20.6778  -26.9422   22.5426 C   0  0  0  0  0  0
  -19.5754  -26.6403   21.5223 C   0  0  0  0  0  0
  -18.1926  -26.7934   22.1627 C   0  0  0  0  0  0
  -19.1529  -28.8841   23.2923 C   0  0  0  0  0  0
  -18.9450  -30.1461   23.8926 C   0  0  0  0  0  0
  -17.6451  -30.6584   24.0576 C   0  0  0  0  0  0
  -25.9031  -34.9508   23.5170 C   0  0  0  0  0  0
  -16.5343  -29.9101   23.6334 C   0  0  0  0  0  0
  -16.7272  -28.6504   23.0380 C   0  0  0  0  0  0
  -26.4458  -31.6610   25.0752 C   0  0  0  0  0  0
  -25.3716  -31.3714   26.1497 C   0  0  0  0  0  0
  -27.0260  -30.3055   24.6089 C   0  0  0  0  0  0
  -27.6060  -32.4327   25.7469 C   0  0  0  0  0  0
  -27.5587  -37.1829   24.8479 C   0  0  0  0  0  0
  -21.4157  -29.3035   22.3708 N   0  0  0  0  0  0
  -26.4295  -37.3824   23.9436 N   0  0  0  0  0  0
  -24.6665  -31.0848   22.1025 N   0  0  0  0  0  0
  -23.4177  -28.8267   23.3087 O   0  0  0  0  0  0
  -28.3332  -26.6145   20.2015 O   0  0  0  0  0  0
  -26.5578  -34.8962   22.4723 O   0  0  0  0  0  0
  -23.5340  -32.1496   23.7530 O   0  0  0  0  0  0
  -29.9720  -19.8858   20.1944 C   0  0  0  0  0  0
  -29.9540  -19.3172   21.4826 C   0  0  0  0  0  0
  -30.3841  -21.2218   20.0065 C   0  0  0  0  0  0
  -30.3617  -20.1450   22.5559 C   0  0  0  0  0  0
  -30.7834  -21.9592   21.1424 C   0  0  0  0  0  0
  -29.0476  -20.0627   24.7078 C   0  0  0  0  0  0
  -29.1721  -21.4788   17.7755 C   0  0  0  0  0  0
  -31.7056  -21.3985   17.8653 C   0  0  0  0  0  0
  -27.1010  -25.5539   22.1558 C   0  0  0  0  0  0
  -32.8060  -23.2016   21.2987 C   0  0  0  0  0  0
  -29.4776  -17.8636   21.6433 C   0  0  0  0  0  0
  -30.3528  -19.6787   24.0008 C   0  0  0  0  0  0
  -29.1348  -24.4681   21.1315 C   0  0  0  0  0  0
  -30.5951  -16.8158   21.4159 C   0  0  0  0  0  0
  -30.6574  -24.4567   21.3850 C   0  0  0  0  0  0
  -30.4250  -21.8193   18.5980 C   0  0  0  0  0  0
  -28.4397  -25.8298   21.4226 C   0  0  1  0  0  0
  -30.7653  -21.4246   22.3806 N   0  0  0  0  0  0
  -30.1021  -15.4282   21.3106 N   0  0  0  0  0  0
  -31.3767  -23.2291   21.0024 N   0  0  0  0  0  0
  -31.4745  -12.3866   19.1499 H   0  0  0  0  0  0
  -30.3157  -11.2919   19.8248 H   0  0  0  0  0  0
  -29.7568  -11.7885   17.4311 H   0  0  0  0  0  0
  -29.6987  -13.4949   17.7714 H   0  0  0  0  0  0
  -27.8260  -11.3192   18.8002 H   0  0  0  0  0  0
  -27.3873  -12.6518   17.7672 H   0  0  0  0  0  0
  -27.7176  -14.2582   19.5695 H   0  0  0  0  0  0
  -28.6611  -11.9587   21.3524 H   0  0  0  0  0  0
  -28.4462  -13.5978   21.8702 H   0  0  0  0  0  0
  -25.2782   -9.5707   22.4676 H   0  0  0  0  0  0
  -24.0026   -7.4645   22.7438 H   0  0  0  0  0  0
  -21.0842   -8.8780   19.8918 H   0  0  0  0  0  0
  -22.3734  -10.9649   19.6091 H   0  0  0  0  0  0
  -21.2031   -7.6127   23.9720 H   0  0  0  0  0  0
  -21.1462   -6.0506   25.9083 H   0  0  0  0  0  0
  -22.0593   -2.7593   23.2871 H   0  0  0  0  0  0
  -22.4120  -11.9968   22.4838 H   0  0  0  0  0  0
  -21.1065  -13.1210   22.2498 H   0  0  0  0  0  0
  -24.6751  -15.8514   20.5321 H   0  0  0  0  0  0
  -26.2943  -15.6269   20.1078 H   0  0  0  0  0  0
  -26.7119  -32.5630   23.1222 H   0  0  0  0  0  0
  -25.0099  -33.9793   25.0561 H   0  0  0  0  0  0
  -22.6896  -31.3095   21.4101 H   0  0  0  0  0  0
  -23.3770  -35.9596   23.3324 H   0  0  0  0  0  0
  -24.3571  -36.8884   22.2041 H   0  0  0  0  0  0
  -23.7182  -37.6502   23.6608 H   0  0  0  0  0  0
  -26.0356  -31.6125   20.5976 H   0  0  0  0  0  0
  -26.8145  -30.9004   21.9863 H   0  0  0  0  0  0
  -28.0974  -29.0974   21.2023 H   0  0  0  0  0  0
  -26.0881  -25.9747   19.0217 H   0  0  0  0  0  0
  -23.9914  -27.3015   19.0297 H   0  0  0  0  0  0
  -23.7256  -30.6017   19.4045 H   0  0  0  0  0  0
  -22.7410  -29.2497   19.8728 H   0  0  0  0  0  0
  -25.1268  -36.2028   25.0861 H   0  0  0  0  0  0
  -20.9966  -28.3262   24.1450 H   0  0  0  0  0  0
  -20.5688  -26.2294   23.3613 H   0  0  0  0  0  0
  -21.6651  -26.7490   22.1199 H   0  0  0  0  0  0
  -19.6905  -25.6315   21.1255 H   0  0  0  0  0  0
  -19.6666  -27.3199   20.6728 H   0  0  0  0  0  0
  -17.4196  -26.6740   21.4008 H   0  0  0  0  0  0
  -18.0285  -26.0032   22.8959 H   0  0  0  0  0  0
  -19.7923  -30.7288   24.2280 H   0  0  0  0  0  0
  -17.5002  -31.6263   24.5171 H   0  0  0  0  0  0
  -15.5350  -30.2995   23.7640 H   0  0  0  0  0  0
  -15.8675  -28.0810   22.7116 H   0  0  0  0  0  0
  -24.5900  -30.7038   25.7854 H   0  0  0  0  0  0
  -24.8855  -32.2841   26.4965 H   0  0  0  0  0  0
  -25.8068  -30.8900   27.0262 H   0  0  0  0  0  0
  -26.2780  -29.6860   24.1128 H   0  0  0  0  0  0
  -27.4000  -29.7281   25.4552 H   0  0  0  0  0  0
  -27.8637  -30.4374   23.9241 H   0  0  0  0  0  0
  -27.2712  -33.3647   26.2047 H   0  0  0  0  0  0
  -28.3831  -32.6876   25.0243 H   0  0  0  0  0  0
  -28.0742  -31.8441   26.5379 H   0  0  0  0  0  0
  -28.2662  -38.0081   24.7550 H   0  0  0  0  0  0
  -28.1042  -36.2640   24.6270 H   0  0  0  0  0  0
  -27.2321  -37.1442   25.8890 H   0  0  0  0  0  0
  -20.9316  -29.8691   21.6876 H   0  0  0  0  0  0
  -26.0209  -38.2932   24.1438 H   0  0  0  0  0  0
  -29.6788  -19.2843   19.3484 H   0  0  0  0  0  0
  -29.0200  -19.6624   25.7214 H   0  0  0  0  0  0
  -28.1829  -19.6803   24.1649 H   0  0  0  0  0  0
  -28.9456  -21.1472   24.7747 H   0  0  0  0  0  0
  -29.1741  -22.0157   16.8259 H   0  0  0  0  0  0
  -28.2620  -21.7594   18.3078 H   0  0  0  0  0  0
  -29.1107  -20.4170   17.5337 H   0  0  0  0  0  0
  -32.5948  -21.6885   18.4295 H   0  0  0  0  0  0
  -31.7731  -21.8757   16.8855 H   0  0  0  0  0  0
  -31.7366  -20.3175   17.7155 H   0  0  0  0  0  0
  -27.2593  -24.9624   23.0571 H   0  0  0  0  0  0
  -26.4054  -24.9983   21.5244 H   0  0  0  0  0  0
  -26.6111  -26.4707   22.4845 H   0  0  0  0  0  0
  -33.2396  -22.2169   21.1010 H   0  0  0  0  0  0
  -32.9886  -23.4378   22.3485 H   0  0  0  0  0  0
  -33.3455  -23.9237   20.6851 H   0  0  0  0  0  0
  -28.6785  -17.6997   20.9188 H   0  0  0  0  0  0
  -29.0140  -17.7176   22.6209 H   0  0  0  0  0  0
  -31.2002  -20.1284   24.5251 H   0  0  0  0  0  0
  -30.5146  -18.6027   24.0555 H   0  0  0  0  0  0
  -28.7067  -23.6994   21.7768 H   0  0  0  0  0  0
  -28.8986  -24.1581   20.1153 H   0  0  0  0  0  0
  -31.3211  -16.8761   22.2275 H   0  0  0  0  0  0
  -31.1200  -17.0765   20.4944 H   0  0  0  0  0  0
  -30.8526  -24.6667   22.4373 H   0  0  0  0  0  0
  -31.0962  -25.2835   20.8250 H   0  0  0  0  0  0
  -30.4375  -22.9067   18.6800 H   0  0  0  0  0  0
  -29.0584  -26.4030   22.1132 H   0  0  0  0  0  0
  -29.2239  -15.2036   21.7545 H   0  0  0  0  0  0
  1 25  1  0  0  0
  1 30  2  0  0  0
  1 89  1  0  0  0
  2  3  1  0  0  0
  2 25  1  0  0  0
  2 91  1  0  0  0
  2 92  1  0  0  0
  3  4  1  0  0  0
  3 93  1  0  0  0
  3 94  1  0  0  0
  4  5  1  0  0  0
  4 95  1  0  0  0
  4 96  1  0  0  0
  5  6  1  0  0  0
  5 26  1  0  0  0
  5 97  1  0  0  0
  6 25  1  0  0  0
  6 98  1  0  0  0
  6 99  1  0  0  0
  7  8  2  0  0  0
  7 26  1  0  0  0
  7 29  1  0  0  0
  8  9  1  0  0  0
  8 22  1  0  0  0
  9 10  1  0  0  0
  9 27  2  0  0  0
 10 11  2  0  0  0
 10 15  1  0  0  0
 11 12  1  0  0  0
 11100  1  0  0  0
 12 13  2  0  0  0
 12101  1  0  0  0
 13 14  1  0  0  0
 13 31  1  0  0  0
 14 15  2  0  0  0
 14102  1  0  0  0
 15103  1  0  0  0
 16 17  2  0  0  0
 16 21  1  0  0  0
 16 31  1  0  0  0
 17 18  1  0  0  0
 17104  1  0  0  0
 18 19  2  0  0  0
 18105  1  0  0  0
 19 20  1  0  0  0
 19 24  1  0  0  0
 20 21  2  0  0  0
 20106  1  0  0  0
 21 23  1  0  0  0
 22 28  1  0  0  0
 22 32  2  0  0  0
 26 27  1  0  0  0
 28107  1  0  0  0
 28108  1  0  0  0
 29109  1  0  0  0
 29110  1  0  0  0
 33 34  1  0  0  0
 33 66  1  0  0  0
 33 70  2  0  0  0
 34 36  1  0  0  0
 34 59  1  0  0  0
 34111  1  0  0  0
 35 44  2  0  0  0
 35 45  1  0  0  0
 35 68  1  0  0  0
 36 56  1  0  0  0
 36112  1  0  0  0
 37 39  1  0  0  0
 37 47  1  0  0  0
 37 66  1  0  0  0
 37113  1  0  0  0
 38 43  2  0  0  0
 38 46  1  0  0  0
 38 47  1  0  0  0
 39 64  1  0  0  0
 39 67  2  0  0  0
 40 52  1  0  0  0
 40 53  2  0  0  0
 40 58  1  0  0  0
 41114  1  0  0  0
 41115  1  0  0  0
 41116  1  0  0  0
 41 48  1  0  0  0
 42 43  1  0  0  0
 42 66  1  0  0  0
 42117  1  0  0  0
 42118  1  0  0  0
 43 44  1  0  0  0
 44119  1  0  0  0
 45 46  2  0  0  0
 45120  1  0  0  0
 46121  1  0  0  0
 47122  1  0  0  0
 47123  1  0  0  0
 48 56  1  0  0  0
 48 65  1  0  0  0
 48124  1  0  0  0
 49 50  1  0  0  0
 49 53  1  0  0  0
 49 64  1  0  0  0
 49125  1  0  0  0
 50 51  1  0  0  0
 50126  1  0  0  0
 50127  1  0  0  0
 51 52  1  0  0  0
 51128  1  0  0  0
 51129  1  0  0  0
 52130  1  0  0  0
 52131  1  0  0  0
 53 54  1  0  0  0
 54 55  2  0  0  0
 54132  1  0  0  0
 55 57  1  0  0  0
 55133  1  0  0  0
 56 69  2  0  0  0
 57 58  2  0  0  0
 57134  1  0  0  0
 58135  1  0  0  0
 59 60  1  0  0  0
 59 61  1  0  0  0
 59 62  1  0  0  0
 60136  1  0  0  0
 60137  1  0  0  0
 60138  1  0  0  0
 61139  1  0  0  0
 61140  1  0  0  0
 61141  1  0  0  0
 62142  1  0  0  0
 62143  1  0  0  0
 62144  1  0  0  0
 63 65  1  0  0  0
 63145  1  0  0  0
 63146  1  0  0  0
 63147  1  0  0  0
 64148  1  0  0  0
 65149  1  0  0  0
 68 87  1  0  0  0
 71 72  2  0  0  0
 71 73  1  0  0  0
 71150  1  0  0  0
 72 74  1  0  0  0
 72 81  1  0  0  0
 73 75  2  0  0  0
 73 86  1  0  0  0
 74 82  1  0  0  0
 74 88  2  0  0  0
 75 88  1  0  0  0
 75 90  1  0  0  0
 76 82  1  0  0  0
 76151  1  0  0  0
 76152  1  0  0  0
 76153  1  0  0  0
 77154  1  0  0  0
 77155  1  0  0  0
 77156  1  0  0  0
 77 86  1  0  0  0
 78 86  1  0  0  0
 78157  1  0  0  0
 78158  1  0  0  0
 78159  1  0  0  0
 79160  1  0  0  0
 79161  1  0  0  0
 79162  1  0  0  0
 79 87  1  0  0  0
 80 90  1  0  0  0
 80163  1  0  0  0
 80164  1  0  0  0
 80165  1  0  0  0
 81 84  1  0  0  0
 81166  1  0  0  0
 81167  1  0  0  0
 82168  1  0  0  0
 82169  1  0  0  0
 83 85  1  0  0  0
 83 87  1  0  0  0
 83170  1  0  0  0
 83171  1  0  0  0
 84 89  1  0  0  0
 84172  1  0  0  0
 84173  1  0  0  0
 85 90  1  0  0  0
 85174  1  0  0  0
 85175  1  0  0  0
 86176  1  0  0  0
 87177  1  0  0  0
 89178  1  0  0  0
M  ISO  4   1 100  68 101  87 101  89 100
M  END
> <chiral flag>
0

> <version>
0

> <s_m_source_file>
/data/baiqing/PycharmProjects/Reinvent-master-3.2/result/LINK_invent/BTK/process_docking_weight1_custom_sum_contain_oxygen_bond_distance_aromatic_linkinvent_7_9_3/rearranged_h_0092.sdf

> <i_m_source_file_index>
14

> <r_mmod_Potential_Energy-OPLS-2005>
-281.543304443359

> <r_mmod_Stretch_Energy-OPLS-2005>
41.668628692627

> <r_mmod_Bend_Energy-OPLS-2005>
109.416275024414

> <r_mmod_Torsional_Energy-OPLS-2005>
244.396728515625

> <r_mmod_Improper_Torsional_Energy-OPLS-2005>
6.09529829025269

> <r_mmod_Van_der_Waal_Energy-OPLS-2005>
154.058135986328

> <r_mmod_Electrostatic_Energy-OPLS-2005>
-627.855651855469

> <r_mmod_Solvation_Energy-OPLS-2005>
-224.643142700195

> <b_mmod_Minimization_Converged-OPLS-2005>
0

> <r_mmod_RMS_Derivative-OPLS-2005>
5.50052213668823

$$$$
14
                    3D
 Structure written by MMmdl.
160168  0  0  1  0            999 V2000
  -30.6722  -14.5393   20.5130 C   0  0  0  0  0  0
  -30.4324  -12.3238   19.4492 C   0  0  0  0  0  0
  -29.5075  -12.4973   18.2247 C   0  0  0  0  0  0
  -28.0287  -12.3455   18.6359 C   0  0  0  0  0  0
  -27.6616  -13.2104   19.8712 C   0  0  2  0  0  0
  -28.7051  -13.0347   21.0025 C   0  0  0  0  0  0
  -25.2577  -13.8159   20.5673 C   0  0  0  0  0  0
  -24.1842  -13.0440   20.9185 C   0  0  0  0  0  0
  -24.6397  -11.6902   20.8723 C   0  0  0  0  0  0
  -23.9061  -10.4291   21.0396 C   0  0  0  0  0  0
  -24.3617   -9.4220   21.9186 C   0  0  0  0  0  0
  -23.6302   -8.2244   22.0751 C   0  0  0  0  0  0
  -22.4276   -8.0272   21.3543 C   0  0  0  0  0  0
  -21.9916   -9.0243   20.4636 C   0  0  0  0  0  0
  -22.7226  -10.2137   20.3051 C   0  0  0  0  0  0
  -21.6856   -6.0742   22.5289 C   0  0  0  0  0  0
  -21.4006   -6.5644   23.8221 C   0  0  0  0  0  0
  -21.3666   -5.6790   24.9181 C   0  0  0  0  0  0
  -21.6043   -4.3050   24.7228 C   0  0  0  0  0  0
  -21.8822   -3.8155   23.4345 C   0  0  0  0  0  0
  -21.9192   -4.6975   22.3405 C   0  0  0  0  0  0
  -22.7859  -13.5231   21.1859 C   0  0  0  0  0  0
  -22.1658   -4.2171   21.0980 F   0  0  0  0  0  0
  -21.5646   -3.4525   25.7738 F   0  0  0  0  0  0
  -30.0371  -13.3343   20.4487 N   0  0  0  0  0  0
  -26.3018  -12.9335   20.3336 N   0  0  0  0  0  0
  -25.9327  -11.6494   20.5761 N   0  0  0  0  0  0
  -22.0480  -12.8219   22.0394 N   0  0  0  0  0  0
  -25.4268  -15.1876   20.4068 N   0  0  0  0  0  0
  -31.8081  -14.7187   20.0658 O   0  0  0  0  0  0
  -21.6639   -6.8869   21.4243 O   0  0  0  0  0  0
  -22.3546  -14.5537   20.6691 O   0  0  0  0  0  0
  -24.6160  -31.8643   23.2065 C   0  0  0  0  0  0
  -25.9018  -32.4818   23.8388 C   0  0  1  0  0  0
  -27.2460  -27.4115   20.0952 C   0  0  0  0  0  0
  -25.5838  -33.8624   24.2306 N   0  0  0  0  0  0
  -23.4076  -30.4785   21.5515 C   0  0  2  0  0  0
  -24.8537  -28.9312   20.1248 C   0  0  0  0  0  0
  -22.7423  -29.4592   22.5043 C   0  0  0  0  0  0
  -18.0267  -28.1375   22.8458 C   0  0  0  0  0  0
  -24.1480  -36.7344   23.2642 C   0  0  0  0  0  0
  -25.9371  -30.8149   21.3637 C   0  0  0  0  0  0
  -26.0128  -29.4421   20.7221 C   0  0  0  0  0  0
  -27.2137  -28.6884   20.7038 C   0  0  0  0  0  0
  -26.0691  -26.9100   19.5064 C   0  0  0  0  0  0
  -24.8751  -27.6627   19.5140 C   0  0  0  0  0  0
  -23.6153  -29.8009   20.1714 C   0  0  0  0  0  0
  -25.4097  -36.3134   24.0349 C   0  0  1  0  0  0
  -20.5843  -28.3632   23.1356 C   0  0  2  0  0  0
  -20.6762  -26.9381   22.5424 C   0  0  0  0  0  0
  -19.5746  -26.6380   21.5211 C   0  0  0  0  0  0
  -18.1910  -26.7917   22.1602 C   0  0  0  0  0  0
  -19.1509  -28.8817   23.2894 C   0  0  0  0  0  0
  -18.9449  -30.1425   23.8896 C   0  0  0  0  0  0
  -17.6453  -30.6575   24.0550 C   0  0  0  0  0  0
  -25.9025  -34.9489   23.5149 C   0  0  0  0  0  0
  -16.5338  -29.9075   23.6335 C   0  0  0  0  0  0
  -16.7255  -28.6499   23.0339 C   0  0  0  0  0  0
  -26.4448  -31.6595   25.0720 C   0  0  0  0  0  0
  -25.3724  -31.3696   26.1487 C   0  0  0  0  0  0
  -27.0282  -30.3044   24.6091 C   0  0  0  0  0  0
  -27.6031  -32.4316   25.7481 C   0  0  0  0  0  0
  -27.5579  -37.1806   24.8457 C   0  0  0  0  0  0
  -21.4152  -29.2990   22.3793 N   0  0  0  0  0  0
  -26.4291  -37.3805   23.9406 N   0  0  0  0  0  0
  -24.6718  -31.0707   22.0983 N   0  0  0  0  0  0
  -23.4171  -28.8153   23.3124 O   0  0  0  0  0  0
  -28.4274  -26.7007   19.9815 O   0  0  0  0  0  0
  -26.5644  -34.8939   22.4748 O   0  0  0  0  0  0
  -23.5336  -32.1400   23.7433 O   0  0  0  0  0  0
  -30.1091  -20.6767   20.8531 C   0  0  0  0  0  0
  -29.5298  -19.4608   21.1513 C   0  0  0  0  0  0
  -28.1414  -19.7412   21.3486 C   0  0  0  0  0  0
  -27.9593  -21.1027   21.2893 C   0  0  0  0  0  0
  -27.0778  -18.7271   21.6912 C   0  0  0  0  0  0
  -26.7318  -21.9067   21.5965 C   0  0  0  0  0  0
  -30.2166  -18.0963   21.3898 C   0  0  0  0  0  0
  -28.8353  -24.1931   20.1619 C   0  0  0  0  0  0
  -29.4948  -23.1503   21.1289 C   0  0  0  0  0  0
  -29.9833  -16.9752   20.3316 C   0  0  0  0  0  0
  -28.6345  -25.5798   20.8584 C   0  0  0  0  0  0
  -29.1798  -21.7046   21.0165 N   0  0  0  0  0  0
  -29.8958  -15.5882   20.8664 N   0  0  0  0  0  0
  -31.4769  -12.4208   19.1495 H   0  0  0  0  0  0
  -30.3406  -11.3211   19.8689 H   0  0  0  0  0  0
  -29.7573  -11.7632   17.4574 H   0  0  0  0  0  0
  -29.6690  -13.4765   17.7709 H   0  0  0  0  0  0
  -27.8539  -11.2919   18.8590 H   0  0  0  0  0  0
  -27.3776  -12.5877   17.7953 H   0  0  0  0  0  0
  -27.6932  -14.2493   19.5427 H   0  0  0  0  0  0
  -28.6855  -12.0105   21.3768 H   0  0  0  0  0  0
  -28.4673  -13.6740   21.8558 H   0  0  0  0  0  0
  -25.2769   -9.5695   22.4763 H   0  0  0  0  0  0
  -24.0016   -7.4634   22.7473 H   0  0  0  0  0  0
  -21.0849   -8.8742   19.8934 H   0  0  0  0  0  0
  -22.3671  -10.9675   19.6158 H   0  0  0  0  0  0
  -21.1977   -7.6149   23.9737 H   0  0  0  0  0  0
  -21.1495   -6.0511   25.9085 H   0  0  0  0  0  0
  -22.0597   -2.7620   23.2843 H   0  0  0  0  0  0
  -22.4066  -11.9884   22.4819 H   0  0  0  0  0  0
  -21.1095  -13.1256   22.2588 H   0  0  0  0  0  0
  -24.6503  -15.8300   20.5046 H   0  0  0  0  0  0
  -26.2709  -15.6352   20.0742 H   0  0  0  0  0  0
  -26.7086  -32.5520   23.1149 H   0  0  0  0  0  0
  -24.9932  -33.9789   25.0413 H   0  0  0  0  0  0
  -22.6963  -31.2936   21.4039 H   0  0  0  0  0  0
  -23.3741  -35.9673   23.3318 H   0  0  0  0  0  0
  -24.3559  -36.8974   22.2050 H   0  0  0  0  0  0
  -23.7234  -37.6556   23.6659 H   0  0  0  0  0  0
  -26.0457  -31.5639   20.5784 H   0  0  0  0  0  0
  -26.8308  -30.8856   21.9729 H   0  0  0  0  0  0
  -28.1126  -29.0818   21.1545 H   0  0  0  0  0  0
  -26.0843  -25.9437   19.0208 H   0  0  0  0  0  0
  -23.9827  -27.2647   19.0463 H   0  0  0  0  0  0
  -23.7228  -30.5709   19.4074 H   0  0  0  0  0  0
  -22.7375  -29.2184   19.8825 H   0  0  0  0  0  0
  -25.1253  -36.2025   25.0841 H   0  0  0  0  0  0
  -20.9891  -28.3190   24.1498 H   0  0  0  0  0  0
  -20.5679  -26.2231   23.3603 H   0  0  0  0  0  0
  -21.6638  -26.7449   22.1199 H   0  0  0  0  0  0
  -19.6942  -25.6311   21.1212 H   0  0  0  0  0  0
  -19.6716  -27.3223   20.6779 H   0  0  0  0  0  0
  -17.4192  -26.6638   21.4006 H   0  0  0  0  0  0
  -18.0304  -26.0079   22.9015 H   0  0  0  0  0  0
  -19.7927  -30.7220   24.2265 H   0  0  0  0  0  0
  -17.5019  -31.6257   24.5157 H   0  0  0  0  0  0
  -15.5335  -30.2980   23.7675 H   0  0  0  0  0  0
  -15.8650  -28.0838   22.7050 H   0  0  0  0  0  0
  -24.5877  -30.7049   25.7869 H   0  0  0  0  0  0
  -24.8906  -32.2831   26.4981 H   0  0  0  0  0  0
  -25.8078  -30.8855   27.0236 H   0  0  0  0  0  0
  -26.2824  -29.6795   24.1162 H   0  0  0  0  0  0
  -27.4094  -29.7278   25.4532 H   0  0  0  0  0  0
  -27.8631  -30.4403   23.9213 H   0  0  0  0  0  0
  -27.2669  -33.3612   26.2090 H   0  0  0  0  0  0
  -28.3811  -32.6888   25.0284 H   0  0  0  0  0  0
  -28.0732  -31.8418   26.5363 H   0  0  0  0  0  0
  -28.2599  -38.0099   24.7519 H   0  0  0  0  0  0
  -28.1068  -36.2638   24.6258 H   0  0  0  0  0  0
  -27.2295  -37.1452   25.8857 H   0  0  0  0  0  0
  -20.9334  -29.8726   21.7012 H   0  0  0  0  0  0
  -26.0207  -38.2895   24.1394 H   0  0  0  0  0  0
  -31.1440  -20.9188   20.6487 H   0  0  0  0  0  0
  -26.7566  -18.8507   22.7258 H   0  0  0  0  0  0
  -27.4497  -17.7088   21.5835 H   0  0  0  0  0  0
  -26.2110  -18.8414   21.0377 H   0  0  0  0  0  0
  -25.8414  -21.2800   21.6006 H   0  0  0  0  0  0
  -26.5475  -22.6883   20.8661 H   0  0  0  0  0  0
  -26.8167  -22.3776   22.5773 H   0  0  0  0  0  0
  -29.8727  -17.7487   22.3648 H   0  0  0  0  0  0
  -31.2915  -18.2601   21.4977 H   0  0  0  0  0  0
  -27.8834  -23.8507   19.7677 H   0  0  0  0  0  0
  -29.4727  -24.3148   19.2849 H   0  0  0  0  0  0
  -29.2151  -23.4232   22.1466 H   0  0  0  0  0  0
  -30.5783  -23.2685   21.0988 H   0  0  0  0  0  0
  -30.7355  -17.0513   19.5434 H   0  0  0  0  0  0
  -29.0381  -17.1633   19.8241 H   0  0  0  0  0  0
  -29.5434  -25.8089   21.4177 H   0  0  0  0  0  0
  -27.8385  -25.5098   21.6009 H   0  0  0  0  0  0
  -29.0094  -15.3370   21.2804 H   0  0  0  0  0  0
  1 25  1  0  0  0
  1 30  2  0  0  0
  1 83  1  0  0  0
  2  3  1  0  0  0
  2 25  1  0  0  0
  2 84  1  0  0  0
  2 85  1  0  0  0
  3  4  1  0  0  0
  3 86  1  0  0  0
  3 87  1  0  0  0
  4  5  1  0  0  0
  4 88  1  0  0  0
  4 89  1  0  0  0
  5  6  1  0  0  0
  5 26  1  0  0  0
  5 90  1  0  0  0
  6 25  1  0  0  0
  6 91  1  0  0  0
  6 92  1  0  0  0
  7  8  2  0  0  0
  7 26  1  0  0  0
  7 29  1  0  0  0
  8  9  1  0  0  0
  8 22  1  0  0  0
  9 10  1  0  0  0
  9 27  2  0  0  0
 10 11  2  0  0  0
 10 15  1  0  0  0
 11 12  1  0  0  0
 11 93  1  0  0  0
 12 13  2  0  0  0
 12 94  1  0  0  0
 13 14  1  0  0  0
 13 31  1  0  0  0
 14 15  2  0  0  0
 14 95  1  0  0  0
 15 96  1  0  0  0
 16 17  2  0  0  0
 16 21  1  0  0  0
 16 31  1  0  0  0
 17 18  1  0  0  0
 17 97  1  0  0  0
 18 19  2  0  0  0
 18 98  1  0  0  0
 19 20  1  0  0  0
 19 24  1  0  0  0
 20 21  2  0  0  0
 20 99  1  0  0  0
 21 23  1  0  0  0
 22 28  1  0  0  0
 22 32  2  0  0  0
 26 27  1  0  0  0
 28100  1  0  0  0
 28101  1  0  0  0
 29102  1  0  0  0
 29103  1  0  0  0
 33 34  1  0  0  0
 33 66  1  0  0  0
 33 70  2  0  0  0
 34 36  1  0  0  0
 34 59  1  0  0  0
 34104  1  0  0  0
 35 44  2  0  0  0
 35 45  1  0  0  0
 35 68  1  0  0  0
 36 56  1  0  0  0
 36105  1  0  0  0
 37 39  1  0  0  0
 37 47  1  0  0  0
 37 66  1  0  0  0
 37106  1  0  0  0
 38 43  2  0  0  0
 38 46  1  0  0  0
 38 47  1  0  0  0
 39 64  1  0  0  0
 39 67  2  0  0  0
 40 52  1  0  0  0
 40 53  2  0  0  0
 40 58  1  0  0  0
 41107  1  0  0  0
 41108  1  0  0  0
 41109  1  0  0  0
 41 48  1  0  0  0
 42 43  1  0  0  0
 42 66  1  0  0  0
 42110  1  0  0  0
 42111  1  0  0  0
 43 44  1  0  0  0
 44112  1  0  0  0
 45 46  2  0  0  0
 45113  1  0  0  0
 46114  1  0  0  0
 47115  1  0  0  0
 47116  1  0  0  0
 48 56  1  0  0  0
 48 65  1  0  0  0
 48117  1  0  0  0
 49 50  1  0  0  0
 49 53  1  0  0  0
 49 64  1  0  0  0
 49118  1  0  0  0
 50 51  1  0  0  0
 50119  1  0  0  0
 50120  1  0  0  0
 51 52  1  0  0  0
 51121  1  0  0  0
 51122  1  0  0  0
 52123  1  0  0  0
 52124  1  0  0  0
 53 54  1  0  0  0
 54 55  2  0  0  0
 54125  1  0  0  0
 55 57  1  0  0  0
 55126  1  0  0  0
 56 69  2  0  0  0
 57 58  2  0  0  0
 57127  1  0  0  0
 58128  1  0  0  0
 59 60  1  0  0  0
 59 61  1  0  0  0
 59 62  1  0  0  0
 60129  1  0  0  0
 60130  1  0  0  0
 60131  1  0  0  0
 61132  1  0  0  0
 61133  1  0  0  0
 61134  1  0  0  0
 62135  1  0  0  0
 62136  1  0  0  0
 62137  1  0  0  0
 63 65  1  0  0  0
 63138  1  0  0  0
 63139  1  0  0  0
 63140  1  0  0  0
 64141  1  0  0  0
 65142  1  0  0  0
 68 81  1  0  0  0
 71 72  2  0  0  0
 71 82  1  0  0  0
 71143  1  0  0  0
 72 73  1  0  0  0
 72 77  1  0  0  0
 73 74  2  0  0  0
 73 75  1  0  0  0
 74 76  1  0  0  0
 74 82  1  0  0  0
 75144  1  0  0  0
 75145  1  0  0  0
 75146  1  0  0  0
 76147  1  0  0  0
 76148  1  0  0  0
 76149  1  0  0  0
 77 80  1  0  0  0
 77150  1  0  0  0
 77151  1  0  0  0
 78 79  1  0  0  0
 78 81  1  0  0  0
 78152  1  0  0  0
 78153  1  0  0  0
 79 82  1  0  0  0
 79154  1  0  0  0
 79155  1  0  0  0
 80 83  1  0  0  0
 80156  1  0  0  0
 80157  1  0  0  0
 81158  1  0  0  0
 81159  1  0  0  0
 83160  1  0  0  0
M  ISO  4   1 100  68 101  81 101  83 100
M  END
> <chiral flag>
0

> <version>
0

> <s_m_source_file>
/data/baiqing/PycharmProjects/Reinvent-master-3.2/result/LINK_invent/BTK/process_docking_weight1_custom_sum_contain_oxygen_bond_distance_aromatic_linkinvent_7_9_3/rearranged_h_0092.sdf

> <i_m_source_file_index>
15

> <r_mmod_Potential_Energy-OPLS-2005>
-59.1035079956055

> <r_mmod_Stretch_Energy-OPLS-2005>
45.4983901977539

> <r_mmod_Bend_Energy-OPLS-2005>
116.930809020996

> <r_mmod_Torsional_Energy-OPLS-2005>
271.5966796875

> <r_mmod_Improper_Torsional_Energy-OPLS-2005>
10.2172021865845

> <r_mmod_Van_der_Waal_Energy-OPLS-2005>
115.926399230957

> <r_mmod_Electrostatic_Energy-OPLS-2005>
-424.974395751953

> <r_mmod_Solvation_Energy-OPLS-2005>
-213.724349975586

> <b_mmod_Minimization_Converged-OPLS-2005>
0

> <r_mmod_RMS_Derivative-OPLS-2005>
4.31185531616211

$$$$
15
                    3D
 Structure written by MMmdl.
170178  0  0  1  0            999 V2000
  -30.6502  -14.6550   20.5104 C   0  0  0  0  0  0
  -30.4284  -12.4233   19.4304 C   0  0  0  0  0  0
  -29.4947  -12.5208   18.2049 C   0  0  0  0  0  0
  -28.0182  -12.3552   18.6198 C   0  0  0  0  0  0
  -27.6415  -13.2267   19.8481 C   0  0  2  0  0  0
  -28.6931  -13.1113   20.9732 C   0  0  0  0  0  0
  -25.2529  -13.8176   20.5694 C   0  0  0  0  0  0
  -24.1798  -13.0431   20.9193 C   0  0  0  0  0  0
  -24.6366  -11.6908   20.8705 C   0  0  0  0  0  0
  -23.9026  -10.4293   21.0381 C   0  0  0  0  0  0
  -24.3577   -9.4217   21.9171 C   0  0  0  0  0  0
  -23.6257   -8.2245   22.0757 C   0  0  0  0  0  0
  -22.4249   -8.0267   21.3548 C   0  0  0  0  0  0
  -21.9871   -9.0222   20.4649 C   0  0  0  0  0  0
  -22.7183  -10.2117   20.3047 C   0  0  0  0  0  0
  -21.6856   -6.0718   22.5267 C   0  0  0  0  0  0
  -21.4012   -6.5626   23.8202 C   0  0  0  0  0  0
  -21.3671   -5.6793   24.9174 C   0  0  0  0  0  0
  -21.6053   -4.3051   24.7235 C   0  0  0  0  0  0
  -21.8813   -3.8140   23.4352 C   0  0  0  0  0  0
  -21.9189   -4.6945   22.3409 C   0  0  0  0  0  0
  -22.7836  -13.5244   21.1865 C   0  0  0  0  0  0
  -22.1654   -4.2125   21.0987 F   0  0  0  0  0  0
  -21.5634   -3.4536   25.7752 F   0  0  0  0  0  0
  -29.9974  -13.4561   20.3916 N   0  0  0  0  0  0
  -26.2939  -12.9371   20.3260 N   0  0  0  0  0  0
  -25.9302  -11.6517   20.5711 N   0  0  0  0  0  0
  -22.0466  -12.8229   22.0416 N   0  0  0  0  0  0
  -25.4235  -15.1887   20.4132 N   0  0  0  0  0  0
  -31.8425  -14.7622   20.2119 O   0  0  0  0  0  0
  -21.6640   -6.8841   21.4230 O   0  0  0  0  0  0
  -22.3516  -14.5550   20.6718 O   0  0  0  0  0  0
  -24.6300  -31.8617   23.2033 C   0  0  0  0  0  0
  -25.9152  -32.4785   23.8392 C   0  0  1  0  0  0
  -27.2280  -27.3219   20.1129 C   0  0  0  0  0  0
  -25.6000  -33.8592   24.2333 N   0  0  0  0  0  0
  -23.4196  -30.4854   21.5468 C   0  0  2  0  0  0
  -24.8631  -28.9396   20.1115 C   0  0  0  0  0  0
  -22.7483  -29.4652   22.4965 C   0  0  0  0  0  0
  -18.0283  -28.1380   22.8462 C   0  0  0  0  0  0
  -24.1499  -36.7207   23.2635 C   0  0  0  0  0  0
  -25.9602  -30.7950   21.3680 C   0  0  0  0  0  0
  -26.0328  -29.4225   20.7102 C   0  0  0  0  0  0
  -27.2130  -28.6221   20.7067 C   0  0  0  0  0  0
  -26.0219  -26.8808   19.5170 C   0  0  0  0  0  0
  -24.8576  -27.6709   19.5132 C   0  0  0  0  0  0
  -23.6286  -29.8154   20.1628 C   0  0  0  0  0  0
  -25.4152  -36.3098   24.0339 C   0  0  1  0  0  0
  -20.5890  -28.3687   23.1265 C   0  0  2  0  0  0
  -20.6798  -26.9416   22.5397 C   0  0  0  0  0  0
  -19.5790  -26.6378   21.5187 C   0  0  0  0  0  0
  -18.1952  -26.7933   22.1582 C   0  0  0  0  0  0
  -19.1537  -28.8846   23.2849 C   0  0  0  0  0  0
  -18.9478  -30.1447   23.8880 C   0  0  0  0  0  0
  -17.6487  -30.6591   24.0556 C   0  0  0  0  0  0
  -25.9079  -34.9456   23.5138 C   0  0  0  0  0  0
  -16.5370  -29.9095   23.6352 C   0  0  0  0  0  0
  -16.7270  -28.6509   23.0365 C   0  0  0  0  0  0
  -26.4516  -31.6596   25.0773 C   0  0  0  0  0  0
  -25.3721  -31.3765   26.1468 C   0  0  0  0  0  0
  -27.0363  -30.3039   24.6194 C   0  0  0  0  0  0
  -27.6085  -32.4324   25.7566 C   0  0  0  0  0  0
  -27.5609  -37.1753   24.8489 C   0  0  0  0  0  0
  -21.4203  -29.3034   22.3666 N   0  0  0  0  0  0
  -26.4348  -37.3783   23.9403 N   0  0  0  0  0  0
  -24.6894  -31.0630   22.0972 N   0  0  0  0  0  0
  -23.4198  -28.8204   23.3053 O   0  0  0  0  0  0
  -28.3624  -26.4938   20.1983 O   0  0  0  0  0  0
  -26.5593  -34.8909   22.4664 O   0  0  0  0  0  0
  -23.5462  -32.1406   23.7360 O   0  0  0  0  0  0
  -28.2305  -21.7121   21.0250 C   0  0  0  0  0  0
  -28.0699  -23.1390   20.8765 C   0  0  0  0  0  0
  -29.0956  -20.9573   20.1528 C   0  0  0  0  0  0
  -28.8047  -23.8395   19.8798 C   0  0  0  0  0  0
  -29.8074  -21.7771   19.2246 C   0  0  0  0  0  0
  -27.3986  -20.9701   22.0711 C   0  0  0  0  0  0
  -27.0662  -23.9030   21.7393 C   0  0  0  0  0  0
  -32.1917  -21.1549   18.5537 C   0  0  0  0  0  0
  -28.0270  -18.8840   19.0650 C   0  0  0  0  0  0
  -30.8514  -17.7840   18.8278 C   0  0  0  0  0  0
  -30.7115  -21.2197   18.1440 C   0  0  0  0  0  0
  -28.5290  -25.3074   19.3345 C   0  0  0  0  0  0
  -30.3391  -17.1541   21.2008 C   0  0  0  0  0  0
  -29.0504  -19.3446   20.1179 C   0  0  1  0  0  0
  -30.3475  -18.3772   20.1642 C   0  0  2  0  0  0
  -29.6846  -23.1317   19.1327 N   0  0  0  0  0  0
  -29.8953  -15.7624   20.8016 N   0  0  0  0  0  0
  -31.4671  -12.5536   19.1201 H   0  0  0  0  0  0
  -30.3721  -11.4330   19.8830 H   0  0  0  0  0  0
  -29.6293  -13.4871   17.7152 H   0  0  0  0  0  0
  -29.7586  -11.7621   17.4668 H   0  0  0  0  0  0
  -27.8531  -11.3007   18.8430 H   0  0  0  0  0  0
  -27.3642  -12.5906   17.7783 H   0  0  0  0  0  0
  -27.6507  -14.2590   19.4979 H   0  0  0  0  0  0
  -28.7190  -12.0976   21.3735 H   0  0  0  0  0  0
  -28.4436  -13.7641   21.8121 H   0  0  0  0  0  0
  -25.2713   -9.5722   22.4750 H   0  0  0  0  0  0
  -23.9986   -7.4654   22.7477 H   0  0  0  0  0  0
  -21.0804   -8.8688   19.8945 H   0  0  0  0  0  0
  -22.3589  -10.9636   19.6152 H   0  0  0  0  0  0
  -21.1992   -7.6133   23.9687 H   0  0  0  0  0  0
  -21.1502   -6.0542   25.9071 H   0  0  0  0  0  0
  -22.0581   -2.7595   23.2868 H   0  0  0  0  0  0
  -22.4057  -11.9905   22.4841 H   0  0  0  0  0  0
  -21.1059  -13.1238   22.2562 H   0  0  0  0  0  0
  -24.6554  -15.8428   20.5212 H   0  0  0  0  0  0
  -26.2695  -15.6257   20.0694 H   0  0  0  0  0  0
  -26.7242  -32.5436   23.1162 H   0  0  0  0  0  0
  -25.0409  -33.9765   25.0651 H   0  0  0  0  0  0
  -22.7126  -31.3054   21.4022 H   0  0  0  0  0  0
  -23.3841  -35.9462   23.3366 H   0  0  0  0  0  0
  -24.3582  -36.8727   22.2034 H   0  0  0  0  0  0
  -23.7135  -37.6383   23.6594 H   0  0  0  0  0  0
  -26.0843  -31.5585   20.5988 H   0  0  0  0  0  0
  -26.8455  -30.8492   21.9908 H   0  0  0  0  0  0
  -28.1092  -28.9916   21.1854 H   0  0  0  0  0  0
  -25.9212  -25.8941   19.0932 H   0  0  0  0  0  0
  -23.9501  -27.2819   19.0715 H   0  0  0  0  0  0
  -23.7285  -30.5855   19.3968 H   0  0  0  0  0  0
  -22.7511  -29.2319   19.8789 H   0  0  0  0  0  0
  -25.1325  -36.2012   25.0840 H   0  0  0  0  0  0
  -20.9959  -28.3253   24.1390 H   0  0  0  0  0  0
  -20.5678  -26.2299   23.3590 H   0  0  0  0  0  0
  -21.6674  -26.7445   22.1195 H   0  0  0  0  0  0
  -19.6964  -25.6275   21.1249 H   0  0  0  0  0  0
  -19.6756  -27.3160   20.6695 H   0  0  0  0  0  0
  -17.4224  -26.6658   21.3981 H   0  0  0  0  0  0
  -18.0354  -26.0075   22.8982 H   0  0  0  0  0  0
  -19.7960  -30.7251   24.2255 H   0  0  0  0  0  0
  -17.5055  -31.6283   24.5147 H   0  0  0  0  0  0
  -15.5376  -30.2997   23.7707 H   0  0  0  0  0  0
  -15.8660  -28.0825   22.7114 H   0  0  0  0  0  0
  -24.5897  -30.7125   25.7775 H   0  0  0  0  0  0
  -24.8917  -32.2950   26.4870 H   0  0  0  0  0  0
  -25.7984  -30.8954   27.0277 H   0  0  0  0  0  0
  -26.2961  -29.6819   24.1153 H   0  0  0  0  0  0
  -27.4025  -29.7277   25.4693 H   0  0  0  0  0  0
  -27.8821  -30.4349   23.9438 H   0  0  0  0  0  0
  -27.2709  -33.3620   26.2160 H   0  0  0  0  0  0
  -28.3900  -32.6875   25.0402 H   0  0  0  0  0  0
  -28.0749  -31.8446   26.5478 H   0  0  0  0  0  0
  -28.2663  -38.0022   24.7601 H   0  0  0  0  0  0
  -28.1080  -36.2568   24.6316 H   0  0  0  0  0  0
  -27.2292  -37.1361   25.8876 H   0  0  0  0  0  0
  -20.9410  -29.8742   21.6844 H   0  0  0  0  0  0
  -26.0268  -38.2884   24.1393 H   0  0  0  0  0  0
  -26.7959  -21.6048   22.7149 H   0  0  0  0  0  0
  -28.0442  -20.4002   22.7401 H   0  0  0  0  0  0
  -26.7112  -20.2815   21.5786 H   0  0  0  0  0  0
  -27.3836  -23.9218   22.7839 H   0  0  0  0  0  0
  -26.0754  -23.4529   21.6812 H   0  0  0  0  0  0
  -26.9374  -24.9349   21.4319 H   0  0  0  0  0  0
  -32.3270  -20.6482   19.5079 H   0  0  0  0  0  0
  -32.6104  -22.1576   18.6481 H   0  0  0  0  0  0
  -32.7741  -20.6158   17.8065 H   0  0  0  0  0  0
  -27.0641  -19.3712   19.2180 H   0  0  0  0  0  0
  -27.8486  -17.8106   19.1272 H   0  0  0  0  0  0
  -28.3480  -19.1114   18.0486 H   0  0  0  0  0  0
  -31.7337  -17.1705   19.0147 H   0  0  0  0  0  0
  -31.1896  -18.5035   18.0962 H   0  0  0  0  0  0
  -30.1065  -17.1452   18.3527 H   0  0  0  0  0  0
  -30.6324  -21.8526   17.2601 H   0  0  0  0  0  0
  -30.3131  -20.2782   17.7982 H   0  0  0  0  0  0
  -27.7648  -25.2286   18.5664 H   0  0  0  0  0  0
  -29.4138  -25.5713   18.7546 H   0  0  0  0  0  0
  -29.7824  -17.4413   22.0926 H   0  0  0  0  0  0
  -31.3653  -17.0519   21.5581 H   0  0  0  0  0  0
  -28.5803  -19.0679   21.0551 H   0  0  0  0  0  0
  -31.1479  -19.0201   20.5334 H   0  0  0  0  0  0
  -28.9072  -15.5839   20.8994 H   0  0  0  0  0  0
  1 25  1  0  0  0
  1 30  2  0  0  0
  1 87  1  0  0  0
  2  3  1  0  0  0
  2 25  1  0  0  0
  2 88  1  0  0  0
  2 89  1  0  0  0
  3  4  1  0  0  0
  3 90  1  0  0  0
  3 91  1  0  0  0
  4  5  1  0  0  0
  4 92  1  0  0  0
  4 93  1  0  0  0
  5  6  1  0  0  0
  5 26  1  0  0  0
  5 94  1  0  0  0
  6 25  1  0  0  0
  6 95  1  0  0  0
  6 96  1  0  0  0
  7  8  2  0  0  0
  7 26  1  0  0  0
  7 29  1  0  0  0
  8  9  1  0  0  0
  8 22  1  0  0  0
  9 10  1  0  0  0
  9 27  2  0  0  0
 10 11  2  0  0  0
 10 15  1  0  0  0
 11 12  1  0  0  0
 11 97  1  0  0  0
 12 13  2  0  0  0
 12 98  1  0  0  0
 13 14  1  0  0  0
 13 31  1  0  0  0
 14 15  2  0  0  0
 14 99  1  0  0  0
 15100  1  0  0  0
 16 17  2  0  0  0
 16 21  1  0  0  0
 16 31  1  0  0  0
 17 18  1  0  0  0
 17101  1  0  0  0
 18 19  2  0  0  0
 18102  1  0  0  0
 19 20  1  0  0  0
 19 24  1  0  0  0
 20 21  2  0  0  0
 20103  1  0  0  0
 21 23  1  0  0  0
 22 28  1  0  0  0
 22 32  2  0  0  0
 26 27  1  0  0  0
 28104  1  0  0  0
 28105  1  0  0  0
 29106  1  0  0  0
 29107  1  0  0  0
 33 34  1  0  0  0
 33 66  1  0  0  0
 33 70  2  0  0  0
 34 36  1  0  0  0
 34 59  1  0  0  0
 34108  1  0  0  0
 35 44  2  0  0  0
 35 45  1  0  0  0
 35 68  1  0  0  0
 36 56  1  0  0  0
 36109  1  0  0  0
 37 39  1  0  0  0
 37 47  1  0  0  0
 37 66  1  0  0  0
 37110  1  0  0  0
 38 43  2  0  0  0
 38 46  1  0  0  0
 38 47  1  0  0  0
 39 64  1  0  0  0
 39 67  2  0  0  0
 40 52  1  0  0  0
 40 53  2  0  0  0
 40 58  1  0  0  0
 41111  1  0  0  0
 41112  1  0  0  0
 41113  1  0  0  0
 41 48  1  0  0  0
 42 43  1  0  0  0
 42 66  1  0  0  0
 42114  1  0  0  0
 42115  1  0  0  0
 43 44  1  0  0  0
 44116  1  0  0  0
 45 46  2  0  0  0
 45117  1  0  0  0
 46118  1  0  0  0
 47119  1  0  0  0
 47120  1  0  0  0
 48 56  1  0  0  0
 48 65  1  0  0  0
 48121  1  0  0  0
 49 50  1  0  0  0
 49 53  1  0  0  0
 49 64  1  0  0  0
 49122  1  0  0  0
 50 51  1  0  0  0
 50123  1  0  0  0
 50124  1  0  0  0
 51 52  1  0  0  0
 51125  1  0  0  0
 51126  1  0  0  0
 52127  1  0  0  0
 52128  1  0  0  0
 53 54  1  0  0  0
 54 55  2  0  0  0
 54129  1  0  0  0
 55 57  1  0  0  0
 55130  1  0  0  0
 56 69  2  0  0  0
 57 58  2  0  0  0
 57131  1  0  0  0
 58132  1  0  0  0
 59 60  1  0  0  0
 59 61  1  0  0  0
 59 62  1  0  0  0
 60133  1  0  0  0
 60134  1  0  0  0
 60135  1  0  0  0
 61136  1  0  0  0
 61137  1  0  0  0
 61138  1  0  0  0
 62139  1  0  0  0
 62140  1  0  0  0
 62141  1  0  0  0
 63 65  1  0  0  0
 63142  1  0  0  0
 63143  1  0  0  0
 63144  1  0  0  0
 64145  1  0  0  0
 65146  1  0  0  0
 68 82  1  0  0  0
 71 72  2  0  0  0
 71 73  1  0  0  0
 71 76  1  0  0  0
 72 74  1  0  0  0
 72 77  1  0  0  0
 73 75  2  0  0  0
 73 84  1  0  0  0
 74 82  1  0  0  0
 74 86  2  0  0  0
 75 81  1  0  0  0
 75 86  1  0  0  0
 76147  1  0  0  0
 76148  1  0  0  0
 76149  1  0  0  0
 77150  1  0  0  0
 77151  1  0  0  0
 77152  1  0  0  0
 78 81  1  0  0  0
 78153  1  0  0  0
 78154  1  0  0  0
 78155  1  0  0  0
 79156  1  0  0  0
 79157  1  0  0  0
 79158  1  0  0  0
 79 84  1  0  0  0
 80159  1  0  0  0
 80160  1  0  0  0
 80161  1  0  0  0
 80 85  1  0  0  0
 81162  1  0  0  0
 81163  1  0  0  0
 82164  1  0  0  0
 82165  1  0  0  0
 83 85  1  0  0  0
 83 87  1  0  0  0
 83166  1  0  0  0
 83167  1  0  0  0
 84 85  1  0  0  0
 84168  1  0  0  0
 85169  1  0  0  0
 87170  1  0  0  0
M  ISO  4   1 100  68 101  82 101  87 100
M  END
> <chiral flag>
0

> <version>
0

> <s_m_source_file>
/data/baiqing/PycharmProjects/Reinvent-master-3.2/result/LINK_invent/BTK/process_docking_weight1_custom_sum_contain_oxygen_bond_distance_aromatic_linkinvent_7_9_3/rearranged_h_0092.sdf

> <i_m_source_file_index>
16

> <r_mmod_Potential_Energy-OPLS-2005>
23.1219387054443

> <r_mmod_Stretch_Energy-OPLS-2005>
103.90795135498

> <r_mmod_Bend_Energy-OPLS-2005>
200.766708374023

> <r_mmod_Torsional_Energy-OPLS-2005>
242.493423461914

> <r_mmod_Improper_Torsional_Energy-OPLS-2005>
6.63821458816528

> <r_mmod_Van_der_Waal_Energy-OPLS-2005>
156.527755737305

> <r_mmod_Electrostatic_Energy-OPLS-2005>
-525.492980957031

> <r_mmod_Solvation_Energy-OPLS-2005>
-215.567565917969

> <b_mmod_Minimization_Converged-OPLS-2005>
0

> <r_mmod_RMS_Derivative-OPLS-2005>
3.64992547035217

$$$$
16
                    3D
 Structure written by MMmdl.
169177  0  0  1  0            999 V2000
  -30.7154  -14.4260   20.6058 C   0  0  0  0  0  0
  -30.4235  -12.2849   19.4231 C   0  0  0  0  0  0
  -29.4985  -12.5083   18.2098 C   0  0  0  0  0  0
  -28.0191  -12.3703   18.6198 C   0  0  0  0  0  0
  -27.6678  -13.2021   19.8821 C   0  0  2  0  0  0
  -28.7039  -12.9597   21.0035 C   0  0  0  0  0  0
  -25.2625  -13.8153   20.5684 C   0  0  0  0  0  0
  -24.1871  -13.0436   20.9168 C   0  0  0  0  0  0
  -24.6413  -11.6892   20.8724 C   0  0  0  0  0  0
  -23.9080  -10.4284   21.0399 C   0  0  0  0  0  0
  -24.3628   -9.4201   21.9182 C   0  0  0  0  0  0
  -23.6296   -8.2238   22.0757 C   0  0  0  0  0  0
  -22.4283   -8.0281   21.3540 C   0  0  0  0  0  0
  -21.9917   -9.0259   20.4644 C   0  0  0  0  0  0
  -22.7248  -10.2134   20.3047 C   0  0  0  0  0  0
  -21.6851   -6.0741   22.5281 C   0  0  0  0  0  0
  -21.4022   -6.5648   23.8216 C   0  0  0  0  0  0
  -21.3657   -5.6798   24.9181 C   0  0  0  0  0  0
  -21.6039   -4.3057   24.7225 C   0  0  0  0  0  0
  -21.8817   -3.8154   23.4346 C   0  0  0  0  0  0
  -21.9197   -4.6972   22.3407 C   0  0  0  0  0  0
  -22.7891  -13.5229   21.1839 C   0  0  0  0  0  0
  -22.1661   -4.2161   21.0976 F   0  0  0  0  0  0
  -21.5625   -3.4539   25.7735 F   0  0  0  0  0  0
  -30.0438  -13.2538   20.4637 N   0  0  0  0  0  0
  -26.3053  -12.9315   20.3372 N   0  0  0  0  0  0
  -25.9340  -11.6476   20.5757 N   0  0  0  0  0  0
  -22.0540  -12.8209   22.0387 N   0  0  0  0  0  0
  -25.4349  -15.1867   20.4090 N   0  0  0  0  0  0
  -31.8071  -14.6464   20.0738 O   0  0  0  0  0  0
  -21.6632   -6.8889   21.4241 O   0  0  0  0  0  0
  -22.3577  -14.5542   20.6704 O   0  0  0  0  0  0
  -24.6133  -31.8724   23.2138 C   0  0  0  0  0  0
  -25.9045  -32.4851   23.8419 C   0  0  1  0  0  0
  -27.2341  -27.4410   20.0930 C   0  0  0  0  0  0
  -25.5935  -33.8653   24.2342 N   0  0  0  0  0  0
  -23.4008  -30.4968   21.5532 C   0  0  2  0  0  0
  -24.8448  -28.9627   20.1204 C   0  0  0  0  0  0
  -22.7392  -29.4679   22.4991 C   0  0  0  0  0  0
  -18.0266  -28.1353   22.8488 C   0  0  0  0  0  0
  -24.1468  -36.7288   23.2638 C   0  0  0  0  0  0
  -25.9302  -30.8379   21.3679 C   0  0  0  0  0  0
  -26.0049  -29.4738   20.7105 C   0  0  0  0  0  0
  -27.2000  -28.7229   20.6893 C   0  0  0  0  0  0
  -26.0437  -26.9350   19.5221 C   0  0  0  0  0  0
  -24.8566  -27.6896   19.5279 C   0  0  0  0  0  0
  -23.6112  -29.8339   20.1665 C   0  0  0  0  0  0
  -25.4105  -36.3110   24.0330 C   0  0  1  0  0  0
  -20.5854  -28.3654   23.1304 C   0  0  2  0  0  0
  -20.6778  -26.9395   22.5396 C   0  0  0  0  0  0
  -19.5753  -26.6357   21.5202 C   0  0  0  0  0  0
  -18.1929  -26.7900   22.1607 C   0  0  0  0  0  0
  -19.1524  -28.8813   23.2897 C   0  0  0  0  0  0
  -18.9477  -30.1414   23.8906 C   0  0  0  0  0  0
  -17.6487  -30.6587   24.0540 C   0  0  0  0  0  0
  -25.9036  -34.9482   23.5115 C   0  0  0  0  0  0
  -16.5363  -29.9099   23.6317 C   0  0  0  0  0  0
  -16.7263  -28.6498   23.0366 C   0  0  0  0  0  0
  -26.4477  -31.6661   25.0760 C   0  0  0  0  0  0
  -25.3742  -31.3816   26.1519 C   0  0  0  0  0  0
  -27.0361  -30.3118   24.6166 C   0  0  0  0  0  0
  -27.6021  -32.4453   25.7511 C   0  0  0  0  0  0
  -27.5566  -37.1792   24.8468 C   0  0  0  0  0  0
  -21.4126  -29.3037   22.3719 N   0  0  0  0  0  0
  -26.4292  -37.3798   23.9407 N   0  0  0  0  0  0
  -24.6664  -31.0820   22.1037 N   0  0  0  0  0  0
  -23.4165  -28.8209   23.3029 O   0  0  0  0  0  0
  -28.4409  -26.7709   20.0987 O   0  0  0  0  0  0
  -26.5561  -34.8915   22.4655 O   0  0  0  0  0  0
  -23.5332  -32.1498   23.7521 O   0  0  0  0  0  0
  -27.6923  -18.5720   21.4068 C   0  0  0  0  0  0
  -29.0441  -20.1283   22.2521 C   0  0  0  0  0  0
  -28.9596  -18.7757   22.0302 C   0  0  0  0  0  0
  -27.0429  -19.7699   21.2954 C   0  0  0  0  0  0
  -25.6820  -20.0774   20.7552 C   0  0  0  0  0  0
  -28.4246  -24.9980   18.3453 C   0  0  0  0  0  0
  -29.3510  -16.8401   23.5407 C   0  0  0  0  0  0
  -31.2686  -18.3219   22.9305 C   0  0  0  0  0  0
  -28.1324  -22.9702   20.7287 C   0  0  0  0  0  0
  -27.7911  -24.4722   20.8290 C   0  0  0  0  0  0
  -27.5984  -22.1699   21.9283 C   0  0  0  0  0  0
  -30.3266  -16.8307   21.1373 C   0  0  0  0  0  0
  -28.5706  -25.3648   19.8340 C   0  0  1  0  0  0
  -29.9656  -17.6834   22.3993 C   0  0  0  0  0  0
  -27.8810  -20.7428   21.8192 N   0  0  0  0  0  0
  -30.0460  -15.3936   21.2483 N   0  0  0  0  0  0
  -31.4694  -12.3783   19.1255 H   0  0  0  0  0  0
  -30.3158  -11.2680   19.8035 H   0  0  0  0  0  0
  -29.7335  -11.7953   17.4187 H   0  0  0  0  0  0
  -29.6738  -13.5000   17.7896 H   0  0  0  0  0  0
  -27.8274  -11.3131   18.8100 H   0  0  0  0  0  0
  -27.3687  -12.6515   17.7901 H   0  0  0  0  0  0
  -27.7225  -14.2523   19.5966 H   0  0  0  0  0  0
  -28.6694  -11.9208   21.3347 H   0  0  0  0  0  0
  -28.4637  -13.5486   21.8887 H   0  0  0  0  0  0
  -25.2784   -9.5669   22.4746 H   0  0  0  0  0  0
  -24.0009   -7.4631   22.7475 H   0  0  0  0  0  0
  -21.0852   -8.8773   19.8951 H   0  0  0  0  0  0
  -22.3719  -10.9668   19.6148 H   0  0  0  0  0  0
  -21.2017   -7.6152   23.9727 H   0  0  0  0  0  0
  -21.1480   -6.0523   25.9083 H   0  0  0  0  0  0
  -22.0599   -2.7614   23.2838 H   0  0  0  0  0  0
  -22.4162  -11.9850   22.4728 H   0  0  0  0  0  0
  -21.1159  -13.1228   22.2613 H   0  0  0  0  0  0
  -24.6722  -15.8425   20.5327 H   0  0  0  0  0  0
  -26.2844  -15.6223   20.0738 H   0  0  0  0  0  0
  -26.7103  -32.5547   23.1170 H   0  0  0  0  0  0
  -25.0246  -33.9848   25.0584 H   0  0  0  0  0  0
  -22.6896  -31.3138   21.4150 H   0  0  0  0  0  0
  -23.3755  -35.9597   23.3349 H   0  0  0  0  0  0
  -24.3545  -36.8882   22.2045 H   0  0  0  0  0  0
  -23.7215  -37.6493   23.6642 H   0  0  0  0  0  0
  -26.0472  -31.6057   20.6023 H   0  0  0  0  0  0
  -26.8167  -30.8834   21.9900 H   0  0  0  0  0  0
  -28.1001  -29.1192   21.1386 H   0  0  0  0  0  0
  -25.9966  -25.9577   19.0770 H   0  0  0  0  0  0
  -23.9591  -27.2815   19.0831 H   0  0  0  0  0  0
  -23.7287  -30.6148   19.4133 H   0  0  0  0  0  0
  -22.7329  -29.2613   19.8626 H   0  0  0  0  0  0
  -25.1279  -36.1974   25.0831 H   0  0  0  0  0  0
  -20.9949  -28.3224   24.1423 H   0  0  0  0  0  0
  -20.5714  -26.2256   23.3581 H   0  0  0  0  0  0
  -21.6661  -26.7466   22.1167 H   0  0  0  0  0  0
  -19.6932  -25.6268   21.1254 H   0  0  0  0  0  0
  -19.6704  -27.3150   20.6718 H   0  0  0  0  0  0
  -17.4201  -26.6642   21.3999 H   0  0  0  0  0  0
  -18.0334  -26.0009   22.8970 H   0  0  0  0  0  0
  -19.7962  -30.7203   24.2303 H   0  0  0  0  0  0
  -17.5070  -31.6292   24.5123 H   0  0  0  0  0  0
  -15.5382  -30.3035   23.7646 H   0  0  0  0  0  0
  -15.8639  -28.0840   22.7106 H   0  0  0  0  0  0
  -24.5838  -30.7244   25.7897 H   0  0  0  0  0  0
  -24.8995  -32.3002   26.4976 H   0  0  0  0  0  0
  -25.8066  -30.8976   27.0290 H   0  0  0  0  0  0
  -26.2930  -29.6821   24.1267 H   0  0  0  0  0  0
  -27.4218  -29.7423   25.4638 H   0  0  0  0  0  0
  -27.8702  -30.4483   23.9274 H   0  0  0  0  0  0
  -27.2588  -33.3746   26.2089 H   0  0  0  0  0  0
  -28.3797  -32.7108   25.0326 H   0  0  0  0  0  0
  -28.0726  -31.8628   26.5433 H   0  0  0  0  0  0
  -28.2611  -38.0065   24.7543 H   0  0  0  0  0  0
  -28.1035  -36.2604   24.6292 H   0  0  0  0  0  0
  -27.2271  -37.1466   25.8867 H   0  0  0  0  0  0
  -20.9279  -29.8787   21.6969 H   0  0  0  0  0  0
  -26.0172  -38.2863   24.1464 H   0  0  0  0  0  0
  -27.2786  -17.6242   21.0920 H   0  0  0  0  0  0
  -29.8268  -20.7212   22.7083 H   0  0  0  0  0  0
  -25.2078  -19.1803   20.3540 H   0  0  0  0  0  0
  -25.7293  -20.8172   19.9562 H   0  0  0  0  0  0
  -25.0298  -20.4657   21.5370 H   0  0  0  0  0  0
  -27.3967  -24.8710   18.0184 H   0  0  0  0  0  0
  -28.9315  -24.0544   18.1387 H   0  0  0  0  0  0
  -28.8868  -25.7585   17.7144 H   0  0  0  0  0  0
  -29.1434  -17.4585   24.4158 H   0  0  0  0  0  0
  -30.0193  -16.0413   23.8654 H   0  0  0  0  0  0
  -28.4052  -16.3849   23.2442 H   0  0  0  0  0  0
  -31.1006  -18.9031   23.8380 H   0  0  0  0  0  0
  -31.7166  -18.9906   22.1941 H   0  0  0  0  0  0
  -32.0151  -17.5628   23.1682 H   0  0  0  0  0  0
  -29.2134  -22.8379   20.6631 H   0  0  0  0  0  0
  -27.7171  -22.5657   19.8043 H   0  0  0  0  0  0
  -28.0192  -24.8173   21.8381 H   0  0  0  0  0  0
  -26.7154  -24.5953   20.7142 H   0  0  0  0  0  0
  -26.5234  -22.3172   22.0302 H   0  0  0  0  0  0
  -28.0458  -22.5363   22.8529 H   0  0  0  0  0  0
  -31.3748  -16.9840   20.8721 H   0  0  0  0  0  0
  -29.7771  -17.1854   20.2638 H   0  0  0  0  0  0
  -29.6234  -25.1877   20.0581 H   0  0  0  0  0  0
  -29.1727  -15.1318   21.6781 H   0  0  0  0  0  0
  1 25  1  0  0  0
  1 30  2  0  0  0
  1 86  1  0  0  0
  2  3  1  0  0  0
  2 25  1  0  0  0
  2 87  1  0  0  0
  2 88  1  0  0  0
  3  4  1  0  0  0
  3 89  1  0  0  0
  3 90  1  0  0  0
  4  5  1  0  0  0
  4 91  1  0  0  0
  4 92  1  0  0  0
  5  6  1  0  0  0
  5 26  1  0  0  0
  5 93  1  0  0  0
  6 25  1  0  0  0
  6 94  1  0  0  0
  6 95  1  0  0  0
  7  8  2  0  0  0
  7 26  1  0  0  0
  7 29  1  0  0  0
  8  9  1  0  0  0
  8 22  1  0  0  0
  9 10  1  0  0  0
  9 27  2  0  0  0
 10 11  2  0  0  0
 10 15  1  0  0  0
 11 12  1  0  0  0
 11 96  1  0  0  0
 12 13  2  0  0  0
 12 97  1  0  0  0
 13 14  1  0  0  0
 13 31  1  0  0  0
 14 15  2  0  0  0
 14 98  1  0  0  0
 15 99  1  0  0  0
 16 17  2  0  0  0
 16 21  1  0  0  0
 16 31  1  0  0  0
 17 18  1  0  0  0
 17100  1  0  0  0
 18 19  2  0  0  0
 18101  1  0  0  0
 19 20  1  0  0  0
 19 24  1  0  0  0
 20 21  2  0  0  0
 20102  1  0  0  0
 21 23  1  0  0  0
 22 28  1  0  0  0
 22 32  2  0  0  0
 26 27  1  0  0  0
 28103  1  0  0  0
 28104  1  0  0  0
 29105  1  0  0  0
 29106  1  0  0  0
 33 34  1  0  0  0
 33 66  1  0  0  0
 33 70  2  0  0  0
 34 36  1  0  0  0
 34 59  1  0  0  0
 34107  1  0  0  0
 35 44  2  0  0  0
 35 45  1  0  0  0
 35 68  1  0  0  0
 36 56  1  0  0  0
 36108  1  0  0  0
 37 39  1  0  0  0
 37 47  1  0  0  0
 37 66  1  0  0  0
 37109  1  0  0  0
 38 43  2  0  0  0
 38 46  1  0  0  0
 38 47  1  0  0  0
 39 64  1  0  0  0
 39 67  2  0  0  0
 40 52  1  0  0  0
 40 53  2  0  0  0
 40 58  1  0  0  0
 41110  1  0  0  0
 41111  1  0  0  0
 41112  1  0  0  0
 41 48  1  0  0  0
 42 43  1  0  0  0
 42 66  1  0  0  0
 42113  1  0  0  0
 42114  1  0  0  0
 43 44  1  0  0  0
 44115  1  0  0  0
 45 46  2  0  0  0
 45116  1  0  0  0
 46117  1  0  0  0
 47118  1  0  0  0
 47119  1  0  0  0
 48 56  1  0  0  0
 48 65  1  0  0  0
 48120  1  0  0  0
 49 50  1  0  0  0
 49 53  1  0  0  0
 49 64  1  0  0  0
 49121  1  0  0  0
 50 51  1  0  0  0
 50122  1  0  0  0
 50123  1  0  0  0
 51 52  1  0  0  0
 51124  1  0  0  0
 51125  1  0  0  0
 52126  1  0  0  0
 52127  1  0  0  0
 53 54  1  0  0  0
 54 55  2  0  0  0
 54128  1  0  0  0
 55 57  1  0  0  0
 55129  1  0  0  0
 56 69  2  0  0  0
 57 58  2  0  0  0
 57130  1  0  0  0
 58131  1  0  0  0
 59 60  1  0  0  0
 59 61  1  0  0  0
 59 62  1  0  0  0
 60132  1  0  0  0
 60133  1  0  0  0
 60134  1  0  0  0
 61135  1  0  0  0
 61136  1  0  0  0
 61137  1  0  0  0
 62138  1  0  0  0
 62139  1  0  0  0
 62140  1  0  0  0
 63 65  1  0  0  0
 63141  1  0  0  0
 63142  1  0  0  0
 63143  1  0  0  0
 64144  1  0  0  0
 65145  1  0  0  0
 68 83  1  0  0  0
 71 73  1  0  0  0
 71 74  2  0  0  0
 71146  1  0  0  0
 72 73  2  0  0  0
 72 85  1  0  0  0
 72147  1  0  0  0
 73 84  1  0  0  0
 74 75  1  0  0  0
 74 85  1  0  0  0
 75148  1  0  0  0
 75149  1  0  0  0
 75150  1  0  0  0
 76151  1  0  0  0
 76152  1  0  0  0
 76153  1  0  0  0
 76 83  1  0  0  0
 77154  1  0  0  0
 77155  1  0  0  0
 77156  1  0  0  0
 77 84  1  0  0  0
 78 84  1  0  0  0
 78157  1  0  0  0
 78158  1  0  0  0
 78159  1  0  0  0
 79 80  1  0  0  0
 79 81  1  0  0  0
 79160  1  0  0  0
 79161  1  0  0  0
 80 83  1  0  0  0
 80162  1  0  0  0
 80163  1  0  0  0
 81 85  1  0  0  0
 81164  1  0  0  0
 81165  1  0  0  0
 82 84  1  0  0  0
 82 86  1  0  0  0
 82166  1  0  0  0
 82167  1  0  0  0
 83168  1  0  0  0
 86169  1  0  0  0
M  ISO  4   1 100  68 101  83 101  86 100
M  END
> <chiral flag>
0

> <version>
0

> <s_m_source_file>
/data/baiqing/PycharmProjects/Reinvent-master-3.2/result/LINK_invent/BTK/process_docking_weight1_custom_sum_contain_oxygen_bond_distance_aromatic_linkinvent_7_9_3/rearranged_h_0092.sdf

> <i_m_source_file_index>
17

> <r_mmod_Potential_Energy-OPLS-2005>
-132.064147949219

> <r_mmod_Stretch_Energy-OPLS-2005>
35.5857543945312

> <r_mmod_Bend_Energy-OPLS-2005>
119.54354095459

> <r_mmod_Torsional_Energy-OPLS-2005>
232.923980712891

> <r_mmod_Improper_Torsional_Energy-OPLS-2005>
3.75864768028259

> <r_mmod_Van_der_Waal_Energy-OPLS-2005>
136.051391601562

> <r_mmod_Electrostatic_Energy-OPLS-2005>
-477.468200683594

> <r_mmod_Solvation_Energy-OPLS-2005>
-192.621429443359

> <b_mmod_Minimization_Converged-OPLS-2005>
0

> <r_mmod_RMS_Derivative-OPLS-2005>
2.66594195365906

$$$$
17
                    3D
 Structure written by MMmdl.
163171  0  0  1  0            999 V2000
  -30.6191  -14.6730   20.4843 C   0  0  0  0  0  0
  -30.4305  -12.4151   19.4395 C   0  0  0  0  0  0
  -29.4963  -12.4962   18.2127 C   0  0  0  0  0  0
  -28.0225  -12.3356   18.6354 C   0  0  0  0  0  0
  -27.6456  -13.2199   19.8548 C   0  0  2  0  0  0
  -28.6951  -13.1046   20.9801 C   0  0  0  0  0  0
  -25.2541  -13.8181   20.5689 C   0  0  0  0  0  0
  -24.1816  -13.0442   20.9206 C   0  0  0  0  0  0
  -24.6395  -11.6922   20.8767 C   0  0  0  0  0  0
  -23.9079  -10.4298   21.0421 C   0  0  0  0  0  0
  -24.3627   -9.4208   21.9193 C   0  0  0  0  0  0
  -23.6296   -8.2246   22.0762 C   0  0  0  0  0  0
  -22.4282   -8.0286   21.3549 C   0  0  0  0  0  0
  -21.9927   -9.0263   20.4651 C   0  0  0  0  0  0
  -22.7261  -10.2135   20.3062 C   0  0  0  0  0  0
  -21.6854   -6.0740   22.5279 C   0  0  0  0  0  0
  -21.4009   -6.5640   23.8213 C   0  0  0  0  0  0
  -21.3659   -5.6788   24.9173 C   0  0  0  0  0  0
  -21.6041   -4.3052   24.7223 C   0  0  0  0  0  0
  -21.8824   -3.8150   23.4344 C   0  0  0  0  0  0
  -21.9193   -4.6966   22.3399 C   0  0  0  0  0  0
  -22.7838  -13.5232   21.1862 C   0  0  0  0  0  0
  -22.1661   -4.2154   21.0973 F   0  0  0  0  0  0
  -21.5632   -3.4534   25.7738 F   0  0  0  0  0  0
  -29.9942  -13.4554   20.3933 N   0  0  0  0  0  0
  -26.2962  -12.9366   20.3318 N   0  0  0  0  0  0
  -25.9327  -11.6527   20.5783 N   0  0  0  0  0  0
  -22.0484  -12.8203   22.0403 N   0  0  0  0  0  0
  -25.4239  -15.1896   20.4069 N   0  0  0  0  0  0
  -31.8073  -14.7977   20.1768 O   0  0  0  0  0  0
  -21.6639   -6.8886   21.4245 O   0  0  0  0  0  0
  -22.3530  -14.5549   20.6724 O   0  0  0  0  0  0
  -24.6265  -31.8558   23.2022 C   0  0  0  0  0  0
  -25.9091  -32.4778   23.8339 C   0  0  1  0  0  0
  -27.2176  -27.3143   20.0993 C   0  0  0  0  0  0
  -25.5904  -33.8576   24.2281 N   0  0  0  0  0  0
  -23.4227  -30.4776   21.5476 C   0  0  2  0  0  0
  -24.8698  -28.9314   20.1103 C   0  0  0  0  0  0
  -22.7481  -29.4580   22.4949 C   0  0  0  0  0  0
  -18.0276  -28.1377   22.8476 C   0  0  0  0  0  0
  -24.1484  -36.7272   23.2644 C   0  0  0  0  0  0
  -25.9647  -30.7840   21.3731 C   0  0  0  0  0  0
  -26.0434  -29.4094   20.7149 C   0  0  0  0  0  0
  -27.2252  -28.6090   20.7060 C   0  0  0  0  0  0
  -26.0288  -26.8872   19.4747 C   0  0  0  0  0  0
  -24.8628  -27.6737   19.4836 C   0  0  0  0  0  0
  -23.6384  -29.8126   20.1644 C   0  0  0  0  0  0
  -25.4112  -36.3086   24.0346 C   0  0  1  0  0  0
  -20.5876  -28.3660   23.1279 C   0  0  2  0  0  0
  -20.6765  -26.9382   22.5396 C   0  0  0  0  0  0
  -19.5756  -26.6371   21.5196 C   0  0  0  0  0  0
  -18.1918  -26.7922   22.1602 C   0  0  0  0  0  0
  -19.1529  -28.8836   23.2864 C   0  0  0  0  0  0
  -18.9469  -30.1437   23.8885 C   0  0  0  0  0  0
  -17.6467  -30.6587   24.0541 C   0  0  0  0  0  0
  -25.9050  -34.9446   23.5117 C   0  0  0  0  0  0
  -16.5354  -29.9079   23.6333 C   0  0  0  0  0  0
  -16.7262  -28.6494   23.0357 C   0  0  0  0  0  0
  -26.4487  -31.6595   25.0710 C   0  0  0  0  0  0
  -25.3712  -31.3679   26.1431 C   0  0  0  0  0  0
  -27.0352  -30.3048   24.6124 C   0  0  0  0  0  0
  -27.6048  -32.4315   25.7489 C   0  0  0  0  0  0
  -27.5579  -37.1774   24.8474 C   0  0  0  0  0  0
  -21.4191  -29.3016   22.3696 N   0  0  0  0  0  0
  -26.4292  -37.3784   23.9426 N   0  0  0  0  0  0
  -24.6909  -31.0539   22.0994 N   0  0  0  0  0  0
  -23.4192  -28.8102   23.3017 O   0  0  0  0  0  0
  -28.2659  -26.3860   20.1382 O   0  0  0  0  0  0
  -26.5618  -34.8926   22.4697 O   0  0  0  0  0  0
  -23.5416  -32.1356   23.7338 O   0  0  0  0  0  0
  -28.7826  -21.8924   19.6287 C   0  0  0  0  0  0
  -28.6901  -20.9806   20.7223 C   0  0  0  0  0  0
  -28.2947  -23.7772   20.9854 C   0  0  0  0  0  0
  -28.1489  -22.8511   22.0910 C   0  0  0  0  0  0
  -26.8868  -24.4502   23.7958 C   0  0  0  0  0  0
  -29.0808  -23.3821   24.3702 C   0  0  0  0  0  0
  -26.9479  -22.0616   24.2146 C   0  0  0  0  0  0
  -28.6564  -19.3946   20.6308 C   0  0  0  0  0  0
  -28.0707  -25.3409   21.1660 C   0  0  0  0  0  0
  -29.9590  -18.5071   20.3774 C   0  0  0  0  0  0
  -30.2475  -17.1560   21.2065 C   0  0  0  0  0  0
  -27.7799  -23.2040   23.5700 C   0  0  0  0  0  0
  -28.6158  -23.2565   19.7575 N   0  0  0  0  0  0
  -28.4093  -21.5084   21.9390 N   0  0  0  0  0  0
  -29.8333  -15.7716   20.7552 N   0  0  0  0  0  0
  -31.4701  -12.5436   19.1315 H   0  0  0  0  0  0
  -30.3727  -11.4278   19.8997 H   0  0  0  0  0  0
  -29.7590  -11.7254   17.4875 H   0  0  0  0  0  0
  -29.6318  -13.4518   17.7042 H   0  0  0  0  0  0
  -27.8663  -11.2836   18.8790 H   0  0  0  0  0  0
  -27.3611  -12.5501   17.7964 H   0  0  0  0  0  0
  -27.6558  -14.2497   19.4998 H   0  0  0  0  0  0
  -28.7231  -12.0906   21.3822 H   0  0  0  0  0  0
  -28.4473  -13.7553   21.8200 H   0  0  0  0  0  0
  -25.2779   -9.5664   22.4766 H   0  0  0  0  0  0
  -24.0000   -7.4632   22.7482 H   0  0  0  0  0  0
  -21.0866   -8.8793   19.8947 H   0  0  0  0  0  0
  -22.3745  -10.9677   19.6162 H   0  0  0  0  0  0
  -21.1998   -7.6149   23.9719 H   0  0  0  0  0  0
  -21.1472   -6.0516   25.9073 H   0  0  0  0  0  0
  -22.0605   -2.7616   23.2842 H   0  0  0  0  0  0
  -22.4101  -11.9839   22.4742 H   0  0  0  0  0  0
  -21.1103  -13.1221   22.2634 H   0  0  0  0  0  0
  -24.6554  -15.8434   20.5138 H   0  0  0  0  0  0
  -26.2652  -15.6293   20.0545 H   0  0  0  0  0  0
  -26.7137  -32.5467   23.1055 H   0  0  0  0  0  0
  -25.0075  -33.9698   25.0444 H   0  0  0  0  0  0
  -22.7180  -31.2994   21.4022 H   0  0  0  0  0  0
  -23.3775  -35.9578   23.3320 H   0  0  0  0  0  0
  -24.3563  -36.8888   22.2053 H   0  0  0  0  0  0
  -23.7185  -37.6456   23.6663 H   0  0  0  0  0  0
  -26.0848  -31.5447   20.6016 H   0  0  0  0  0  0
  -26.8482  -30.8401   21.9965 H   0  0  0  0  0  0
  -28.1242  -28.9554   21.1961 H   0  0  0  0  0  0
  -25.9921  -25.9134   19.0051 H   0  0  0  0  0  0
  -23.9625  -27.2985   19.0162 H   0  0  0  0  0  0
  -23.7558  -30.5896   19.4070 H   0  0  0  0  0  0
  -22.7592  -29.2405   19.8625 H   0  0  0  0  0  0
  -25.1270  -36.1953   25.0832 H   0  0  0  0  0  0
  -20.9934  -28.3229   24.1414 H   0  0  0  0  0  0
  -20.5676  -26.2249   23.3577 H   0  0  0  0  0  0
  -21.6636  -26.7426   22.1179 H   0  0  0  0  0  0
  -19.6922  -25.6288   21.1211 H   0  0  0  0  0  0
  -19.6724  -27.3197   20.6732 H   0  0  0  0  0  0
  -17.4182  -26.6649   21.4008 H   0  0  0  0  0  0
  -18.0333  -26.0082   22.9019 H   0  0  0  0  0  0
  -19.7965  -30.7217   24.2281 H   0  0  0  0  0  0
  -17.5053  -31.6287   24.5109 H   0  0  0  0  0  0
  -15.5360  -30.2965   23.7716 H   0  0  0  0  0  0
  -15.8655  -28.0808   22.7094 H   0  0  0  0  0  0
  -24.5922  -30.7011   25.7720 H   0  0  0  0  0  0
  -24.8850  -32.2812   26.4865 H   0  0  0  0  0  0
  -25.8021  -30.8837   27.0201 H   0  0  0  0  0  0
  -26.2937  -29.6782   24.1156 H   0  0  0  0  0  0
  -27.4118  -29.7299   25.4584 H   0  0  0  0  0  0
  -27.8771  -30.4406   23.9329 H   0  0  0  0  0  0
  -27.2715  -33.3661   26.2017 H   0  0  0  0  0  0
  -28.3893  -32.6788   25.0322 H   0  0  0  0  0  0
  -28.0687  -31.8451   26.5426 H   0  0  0  0  0  0
  -28.2560  -38.0103   24.7562 H   0  0  0  0  0  0
  -28.1098  -36.2614   24.6265 H   0  0  0  0  0  0
  -27.2279  -37.1388   25.8872 H   0  0  0  0  0  0
  -20.9371  -29.8786   21.6954 H   0  0  0  0  0  0
  -26.0181  -38.2862   24.1472 H   0  0  0  0  0  0
  -28.9550  -21.5175   18.6293 H   0  0  0  0  0  0
  -27.3983  -25.3969   23.6436 H   0  0  0  0  0  0
  -26.5400  -24.5113   24.8290 H   0  0  0  0  0  0
  -25.9870  -24.4160   23.1793 H   0  0  0  0  0  0
  -29.6948  -24.1811   23.9517 H   0  0  0  0  0  0
  -29.6825  -22.4718   24.3660 H   0  0  0  0  0  0
  -28.8786  -23.6345   25.4124 H   0  0  0  0  0  0
  -26.0550  -21.8469   23.6248 H   0  0  0  0  0  0
  -26.6180  -22.3173   25.2211 H   0  0  0  0  0  0
  -27.5130  -21.1360   24.3140 H   0  0  0  0  0  0
  -27.9227  -19.1349   19.8673 H   0  0  0  0  0  0
  -28.2025  -19.0461   21.5596 H   0  0  0  0  0  0
  -28.7176  -25.6503   21.9851 H   0  0  0  0  0  0
  -27.0418  -25.4326   21.4995 H   0  0  0  0  0  0
  -30.7874  -19.1663   20.6414 H   0  0  0  0  0  0
  -30.0944  -18.3357   19.3084 H   0  0  0  0  0  0
  -29.8428  -17.2843   22.2095 H   0  0  0  0  0  0
  -31.3270  -17.1117   21.3556 H   0  0  0  0  0  0
  -28.8558  -15.5555   20.8834 H   0  0  0  0  0  0
  1 25  1  0  0  0
  1 30  2  0  0  0
  1 85  1  0  0  0
  2  3  1  0  0  0
  2 25  1  0  0  0
  2 86  1  0  0  0
  2 87  1  0  0  0
  3  4  1  0  0  0
  3 88  1  0  0  0
  3 89  1  0  0  0
  4  5  1  0  0  0
  4 90  1  0  0  0
  4 91  1  0  0  0
  5  6  1  0  0  0
  5 26  1  0  0  0
  5 92  1  0  0  0
  6 25  1  0  0  0
  6 93  1  0  0  0
  6 94  1  0  0  0
  7  8  2  0  0  0
  7 26  1  0  0  0
  7 29  1  0  0  0
  8  9  1  0  0  0
  8 22  1  0  0  0
  9 10  1  0  0  0
  9 27  2  0  0  0
 10 11  2  0  0  0
 10 15  1  0  0  0
 11 12  1  0  0  0
 11 95  1  0  0  0
 12 13  2  0  0  0
 12 96  1  0  0  0
 13 14  1  0  0  0
 13 31  1  0  0  0
 14 15  2  0  0  0
 14 97  1  0  0  0
 15 98  1  0  0  0
 16 17  2  0  0  0
 16 21  1  0  0  0
 16 31  1  0  0  0
 17 18  1  0  0  0
 17 99  1  0  0  0
 18 19  2  0  0  0
 18100  1  0  0  0
 19 20  1  0  0  0
 19 24  1  0  0  0
 20 21  2  0  0  0
 20101  1  0  0  0
 21 23  1  0  0  0
 22 28  1  0  0  0
 22 32  2  0  0  0
 26 27  1  0  0  0
 28102  1  0  0  0
 28103  1  0  0  0
 29104  1  0  0  0
 29105  1  0  0  0
 33 34  1  0  0  0
 33 66  1  0  0  0
 33 70  2  0  0  0
 34 36  1  0  0  0
 34 59  1  0  0  0
 34106  1  0  0  0
 35 44  2  0  0  0
 35 45  1  0  0  0
 35 68  1  0  0  0
 36 56  1  0  0  0
 36107  1  0  0  0
 37 39  1  0  0  0
 37 47  1  0  0  0
 37 66  1  0  0  0
 37108  1  0  0  0
 38 43  2  0  0  0
 38 46  1  0  0  0
 38 47  1  0  0  0
 39 64  1  0  0  0
 39 67  2  0  0  0
 40 52  1  0  0  0
 40 53  2  0  0  0
 40 58  1  0  0  0
 41109  1  0  0  0
 41110  1  0  0  0
 41111  1  0  0  0
 41 48  1  0  0  0
 42 43  1  0  0  0
 42 66  1  0  0  0
 42112  1  0  0  0
 42113  1  0  0  0
 43 44  1  0  0  0
 44114  1  0  0  0
 45 46  2  0  0  0
 45115  1  0  0  0
 46116  1  0  0  0
 47117  1  0  0  0
 47118  1  0  0  0
 48 56  1  0  0  0
 48 65  1  0  0  0
 48119  1  0  0  0
 49 50  1  0  0  0
 49 53  1  0  0  0
 49 64  1  0  0  0
 49120  1  0  0  0
 50 51  1  0  0  0
 50121  1  0  0  0
 50122  1  0  0  0
 51 52  1  0  0  0
 51123  1  0  0  0
 51124  1  0  0  0
 52125  1  0  0  0
 52126  1  0  0  0
 53 54  1  0  0  0
 54 55  2  0  0  0
 54127  1  0  0  0
 55 57  1  0  0  0
 55128  1  0  0  0
 56 69  2  0  0  0
 57 58  2  0  0  0
 57129  1  0  0  0
 58130  1  0  0  0
 59 60  1  0  0  0
 59 61  1  0  0  0
 59 62  1  0  0  0
 60131  1  0  0  0
 60132  1  0  0  0
 60133  1  0  0  0
 61134  1  0  0  0
 61135  1  0  0  0
 61136  1  0  0  0
 62137  1  0  0  0
 62138  1  0  0  0
 62139  1  0  0  0
 63 65  1  0  0  0
 63140  1  0  0  0
 63141  1  0  0  0
 63142  1  0  0  0
 64143  1  0  0  0
 65144  1  0  0  0
 68 79  1  0  0  0
 71 72  2  0  0  0
 71 83  1  0  0  0
 71145  1  0  0  0
 72 78  1  0  0  0
 72 84  1  0  0  0
 73 74  1  0  0  0
 73 79  1  0  0  0
 73 83  2  0  0  0
 74 82  1  0  0  0
 74 84  2  0  0  0
 75146  1  0  0  0
 75147  1  0  0  0
 75148  1  0  0  0
 75 82  1  0  0  0
 76 82  1  0  0  0
 76149  1  0  0  0
 76150  1  0  0  0
 76151  1  0  0  0
 77 82  1  0  0  0
 77152  1  0  0  0
 77153  1  0  0  0
 77154  1  0  0  0
 78 80  1  0  0  0
 78155  1  0  0  0
 78156  1  0  0  0
 79157  1  0  0  0
 79158  1  0  0  0
 80 81  1  0  0  0
 80159  1  0  0  0
 80160  1  0  0  0
 81 85  1  0  0  0
 81161  1  0  0  0
 81162  1  0  0  0
 85163  1  0  0  0
M  ISO  4   1 100  68 101  79 101  85 100
M  END
> <chiral flag>
0

> <version>
0

> <s_m_source_file>
/data/baiqing/PycharmProjects/Reinvent-master-3.2/result/LINK_invent/BTK/process_docking_weight1_custom_sum_contain_oxygen_bond_distance_aromatic_linkinvent_7_9_3/rearranged_h_0092.sdf

> <i_m_source_file_index>
18

> <r_mmod_Potential_Energy-OPLS-2005>
250.890411376953

> <r_mmod_Stretch_Energy-OPLS-2005>
102.690811157227

> <r_mmod_Bend_Energy-OPLS-2005>
199.667510986328

> <r_mmod_Torsional_Energy-OPLS-2005>
248.348663330078

> <r_mmod_Improper_Torsional_Energy-OPLS-2005>
5.50070095062256

> <r_mmod_Van_der_Waal_Energy-OPLS-2005>
158.933410644531

> <r_mmod_Electrostatic_Energy-OPLS-2005>
-308.570709228516

> <r_mmod_Solvation_Energy-OPLS-2005>
-219.113922119141

> <b_mmod_Minimization_Converged-OPLS-2005>
0

> <r_mmod_RMS_Derivative-OPLS-2005>
3.26233911514282

$$$$
19
                    3D
 Structure written by MMmdl.
176184  0  0  1  0            999 V2000
  -30.6913  -14.4949   20.5322 C   0  0  0  0  0  0
  -30.4210  -12.3162   19.4186 C   0  0  0  0  0  0
  -29.4880  -12.4998   18.2038 C   0  0  0  0  0  0
  -28.0097  -12.3660   18.6197 C   0  0  0  0  0  0
  -27.6573  -13.2105   19.8730 C   0  0  2  0  0  0
  -28.7063  -13.0082   20.9902 C   0  0  0  0  0  0
  -25.2572  -13.8153   20.5706 C   0  0  0  0  0  0
  -24.1837  -13.0411   20.9193 C   0  0  0  0  0  0
  -24.6402  -11.6889   20.8738 C   0  0  0  0  0  0
  -23.9061  -10.4278   21.0408 C   0  0  0  0  0  0
  -24.3625   -9.4193   21.9183 C   0  0  0  0  0  0
  -23.6304   -8.2235   22.0738 C   0  0  0  0  0  0
  -22.4279   -8.0281   21.3544 C   0  0  0  0  0  0
  -21.9917   -9.0245   20.4630 C   0  0  0  0  0  0
  -22.7232  -10.2132   20.3041 C   0  0  0  0  0  0
  -21.6846   -6.0743   22.5279 C   0  0  0  0  0  0
  -21.4022   -6.5638   23.8220 C   0  0  0  0  0  0
  -21.3659   -5.6787   24.9179 C   0  0  0  0  0  0
  -21.6046   -4.3053   24.7216 C   0  0  0  0  0  0
  -21.8822   -3.8157   23.4336 C   0  0  0  0  0  0
  -21.9202   -4.6978   22.3401 C   0  0  0  0  0  0
  -22.7854  -13.5183   21.1860 C   0  0  0  0  0  0
  -22.1651   -4.2181   21.0973 F   0  0  0  0  0  0
  -21.5637   -3.4520   25.7722 F   0  0  0  0  0  0
  -30.0299  -13.3124   20.4270 N   0  0  0  0  0  0
  -26.3019  -12.9343   20.3409 N   0  0  0  0  0  0
  -25.9330  -11.6489   20.5787 N   0  0  0  0  0  0
  -22.0536  -12.8164   22.0441 N   0  0  0  0  0  0
  -25.4245  -15.1876   20.4065 N   0  0  0  0  0  0
  -31.8442  -14.6538   20.1189 O   0  0  0  0  0  0
  -21.6640   -6.8879   21.4239 O   0  0  0  0  0  0
  -22.3509  -14.5485   20.6718 O   0  0  0  0  0  0
  -24.6150  -31.8701   23.2124 C   0  0  0  0  0  0
  -25.9063  -32.4847   23.8396 C   0  0  1  0  0  0
  -27.2265  -27.4401   20.0998 C   0  0  0  0  0  0
  -25.5918  -33.8641   24.2342 N   0  0  0  0  0  0
  -23.4003  -30.4942   21.5545 C   0  0  2  0  0  0
  -24.8473  -28.9652   20.1133 C   0  0  0  0  0  0
  -22.7404  -29.4669   22.5026 C   0  0  0  0  0  0
  -18.0274  -28.1357   22.8498 C   0  0  0  0  0  0
  -24.1494  -36.7310   23.2635 C   0  0  0  0  0  0
  -25.9298  -30.8356   21.3671 C   0  0  0  0  0  0
  -26.0079  -29.4737   20.7106 C   0  0  0  0  0  0
  -27.2029  -28.7198   20.6994 C   0  0  0  0  0  0
  -26.0517  -26.9490   19.4884 C   0  0  0  0  0  0
  -24.8650  -27.7022   19.4957 C   0  0  0  0  0  0
  -23.6070  -29.8285   20.1678 C   0  0  0  0  0  0
  -25.4113  -36.3127   24.0340 C   0  0  1  0  0  0
  -20.5867  -28.3645   23.1336 C   0  0  2  0  0  0
  -20.6798  -26.9396   22.5415 C   0  0  0  0  0  0
  -19.5777  -26.6376   21.5211 C   0  0  0  0  0  0
  -18.1942  -26.7909   22.1607 C   0  0  0  0  0  0
  -19.1525  -28.8815   23.2921 C   0  0  0  0  0  0
  -18.9452  -30.1413   23.8932 C   0  0  0  0  0  0
  -17.6466  -30.6587   24.0537 C   0  0  0  0  0  0
  -25.9033  -34.9492   23.5125 C   0  0  0  0  0  0
  -16.5347  -29.9077   23.6327 C   0  0  0  0  0  0
  -16.7265  -28.6477   23.0379 C   0  0  0  0  0  0
  -26.4472  -31.6627   25.0729 C   0  0  0  0  0  0
  -25.3709  -31.3752   26.1456 C   0  0  0  0  0  0
  -27.0293  -30.3065   24.6104 C   0  0  0  0  0  0
  -27.6067  -32.4310   25.7485 C   0  0  0  0  0  0
  -27.5590  -37.1816   24.8463 C   0  0  0  0  0  0
  -21.4144  -29.3013   22.3743 N   0  0  0  0  0  0
  -26.4309  -37.3804   23.9403 N   0  0  0  0  0  0
  -24.6661  -31.0797   22.1033 N   0  0  0  0  0  0
  -23.4176  -28.8229   23.3087 O   0  0  0  0  0  0
  -28.3725  -26.6769   20.1119 O   0  0  0  0  0  0
  -26.5590  -34.8930   22.4684 O   0  0  0  0  0  0
  -23.5334  -32.1465   23.7514 O   0  0  0  0  0  0
  -30.8576  -21.9529   19.6047 C   0  0  0  0  0  0
  -29.0589  -20.4286   20.1191 C   0  0  0  0  0  0
  -29.5068  -21.7636   19.9493 C   0  0  0  0  0  0
  -31.6872  -20.8320   19.4342 C   0  0  0  0  0  0
  -29.9580  -19.3523   19.9275 C   0  0  0  0  0  0
  -27.6330  -23.0034   18.8130 C   0  0  0  0  0  0
  -29.3538  -17.3248   18.5464 C   0  0  0  0  0  0
  -32.4656  -21.6972   15.1746 C   0  0  0  0  0  0
  -33.0550  -19.4519   16.2034 C   0  0  0  0  0  0
  -33.1288  -21.0110   18.9886 C   0  0  0  0  0  0
  -33.2574  -21.6049   17.5696 C   0  0  0  0  0  0
  -29.2074  -24.3317   20.3199 C   0  0  0  0  0  0
  -30.3515  -16.9725   20.9035 C   0  0  0  0  0  0
  -28.2430  -25.4348   20.8272 C   0  0  0  0  0  0
  -28.5323  -22.9456   20.0648 C   0  0  2  0  0  0
  -29.4863  -17.8839   19.9714 C   0  0  1  0  0  0
  -32.4841  -20.8576   16.4598 C   0  0  0  0  0  0
  -31.2476  -19.5622   19.5767 N   0  0  0  0  0  0
  -29.9491  -15.5448   20.9387 N   0  0  0  0  0  0
  -31.4600  -12.4169   19.1043 H   0  0  0  0  0  0
  -30.3221  -11.3094   19.8291 H   0  0  0  0  0  0
  -29.7269  -11.7697   17.4296 H   0  0  0  0  0  0
  -29.6564  -13.4804   17.7554 H   0  0  0  0  0  0
  -27.8158  -11.3094   18.8165 H   0  0  0  0  0  0
  -27.3589  -12.6388   17.7885 H   0  0  0  0  0  0
  -27.6911  -14.2550   19.5667 H   0  0  0  0  0  0
  -28.6868  -11.9772   21.3412 H   0  0  0  0  0  0
  -28.4745  -13.6236   21.8619 H   0  0  0  0  0  0
  -25.2777   -9.5685   22.4744 H   0  0  0  0  0  0
  -24.0050   -7.4608   22.7420 H   0  0  0  0  0  0
  -21.0859   -8.8705   19.8923 H   0  0  0  0  0  0
  -22.3649  -10.9666   19.6152 H   0  0  0  0  0  0
  -21.2001   -7.6142   23.9721 H   0  0  0  0  0  0
  -21.1484   -6.0523   25.9084 H   0  0  0  0  0  0
  -22.0614   -2.7629   23.2808 H   0  0  0  0  0  0
  -22.4148  -11.9813   22.4810 H   0  0  0  0  0  0
  -21.1147  -13.1187   22.2662 H   0  0  0  0  0  0
  -24.6565  -15.8420   20.5127 H   0  0  0  0  0  0
  -26.2658  -15.6278   20.0593 H   0  0  0  0  0  0
  -26.7137  -32.5550   23.1154 H   0  0  0  0  0  0
  -25.0111  -33.9804   25.0509 H   0  0  0  0  0  0
  -22.6885  -31.3103   21.4185 H   0  0  0  0  0  0
  -23.3768  -35.9635   23.3298 H   0  0  0  0  0  0
  -24.3589  -36.8910   22.2053 H   0  0  0  0  0  0
  -23.7238  -37.6508   23.6630 H   0  0  0  0  0  0
  -26.0434  -31.6055   20.6025 H   0  0  0  0  0  0
  -26.8166  -30.8840   21.9868 H   0  0  0  0  0  0
  -28.0986  -29.1053   21.1643 H   0  0  0  0  0  0
  -26.0511  -25.9808   19.0095 H   0  0  0  0  0  0
  -23.9764  -27.3097   19.0237 H   0  0  0  0  0  0
  -23.7059  -30.6040   19.4082 H   0  0  0  0  0  0
  -22.7305  -29.2462   19.8792 H   0  0  0  0  0  0
  -25.1298  -36.1983   25.0836 H   0  0  0  0  0  0
  -20.9925  -28.3199   24.1470 H   0  0  0  0  0  0
  -20.5734  -26.2245   23.3593 H   0  0  0  0  0  0
  -21.6671  -26.7494   22.1177 H   0  0  0  0  0  0
  -19.6958  -25.6283   21.1250 H   0  0  0  0  0  0
  -19.6732  -27.3188   20.6743 H   0  0  0  0  0  0
  -17.4230  -26.6678   21.3984 H   0  0  0  0  0  0
  -18.0318  -26.0021   22.8970 H   0  0  0  0  0  0
  -19.7926  -30.7209   24.2342 H   0  0  0  0  0  0
  -17.5020  -31.6280   24.5100 H   0  0  0  0  0  0
  -15.5348  -30.2995   23.7632 H   0  0  0  0  0  0
  -15.8655  -28.0777   22.7141 H   0  0  0  0  0  0
  -24.5858  -30.7148   25.7756 H   0  0  0  0  0  0
  -24.8926  -32.2925   26.4893 H   0  0  0  0  0  0
  -25.8009  -30.8889   27.0217 H   0  0  0  0  0  0
  -26.2850  -29.6849   24.1116 H   0  0  0  0  0  0
  -27.4025  -29.7286   25.4566 H   0  0  0  0  0  0
  -27.8695  -30.4392   23.9287 H   0  0  0  0  0  0
  -27.2723  -33.3580   26.2137 H   0  0  0  0  0  0
  -28.3840  -32.6910   25.0296 H   0  0  0  0  0  0
  -28.0774  -31.8383   26.5331 H   0  0  0  0  0  0
  -28.2618  -38.0106   24.7508 H   0  0  0  0  0  0
  -28.1081  -36.2640   24.6285 H   0  0  0  0  0  0
  -27.2307  -37.1455   25.8867 H   0  0  0  0  0  0
  -20.9312  -29.8655   21.6897 H   0  0  0  0  0  0
  -26.0198  -38.2881   24.1394 H   0  0  0  0  0  0
  -31.2565  -22.9418   19.4286 H   0  0  0  0  0  0
  -28.0232  -20.2265   20.3541 H   0  0  0  0  0  0
  -27.1370  -22.0502   18.6305 H   0  0  0  0  0  0
  -28.2218  -23.2429   17.9269 H   0  0  0  0  0  0
  -26.8571  -23.7629   18.9005 H   0  0  0  0  0  0
  -28.7619  -17.9975   17.9258 H   0  0  0  0  0  0
  -28.8589  -16.3547   18.5419 H   0  0  0  0  0  0
  -30.3294  -17.2204   18.0700 H   0  0  0  0  0  0
  -31.9008  -21.2056   14.3820 H   0  0  0  0  0  0
  -33.4745  -21.8849   14.8066 H   0  0  0  0  0  0
  -31.9964  -22.6669   15.3500 H   0  0  0  0  0  0
  -32.4525  -18.9017   15.4795 H   0  0  0  0  0  0
  -33.0715  -18.8537   17.1143 H   0  0  0  0  0  0
  -34.0767  -19.5002   15.8220 H   0  0  0  0  0  0
  -33.6564  -20.0585   19.0446 H   0  0  0  0  0  0
  -33.6251  -21.6694   19.7017 H   0  0  0  0  0  0
  -34.3132  -21.6771   17.3061 H   0  0  0  0  0  0
  -32.8961  -22.6339   17.6076 H   0  0  0  0  0  0
  -29.9851  -24.2157   21.0767 H   0  0  0  0  0  0
  -29.7155  -24.6765   19.4168 H   0  0  0  0  0  0
  -30.3088  -17.3603   21.9188 H   0  0  0  0  0  0
  -31.3952  -17.0638   20.6039 H   0  0  0  0  0  0
  -28.4554  -25.6421   21.8784 H   0  0  0  0  0  0
  -27.2207  -25.0547   20.8206 H   0  0  0  0  0  0
  -27.9090  -22.7203   20.9301 H   0  0  0  0  0  0
  -28.4786  -17.9034   20.3871 H   0  0  0  0  0  0
  -31.4439  -20.7466   16.7693 H   0  0  0  0  0  0
  -29.0105  -15.3383   21.2443 H   0  0  0  0  0  0
  1 25  1  0  0  0
  1 30  2  0  0  0
  1 89  1  0  0  0
  2  3  1  0  0  0
  2 25  1  0  0  0
  2 90  1  0  0  0
  2 91  1  0  0  0
  3  4  1  0  0  0
  3 92  1  0  0  0
  3 93  1  0  0  0
  4  5  1  0  0  0
  4 94  1  0  0  0
  4 95  1  0  0  0
  5  6  1  0  0  0
  5 26  1  0  0  0
  5 96  1  0  0  0
  6 25  1  0  0  0
  6 97  1  0  0  0
  6 98  1  0  0  0
  7  8  2  0  0  0
  7 26  1  0  0  0
  7 29  1  0  0  0
  8  9  1  0  0  0
  8 22  1  0  0  0
  9 10  1  0  0  0
  9 27  2  0  0  0
 10 11  2  0  0  0
 10 15  1  0  0  0
 11 12  1  0  0  0
 11 99  1  0  0  0
 12 13  2  0  0  0
 12100  1  0  0  0
 13 14  1  0  0  0
 13 31  1  0  0  0
 14 15  2  0  0  0
 14101  1  0  0  0
 15102  1  0  0  0
 16 17  2  0  0  0
 16 21  1  0  0  0
 16 31  1  0  0  0
 17 18  1  0  0  0
 17103  1  0  0  0
 18 19  2  0  0  0
 18104  1  0  0  0
 19 20  1  0  0  0
 19 24  1  0  0  0
 20 21  2  0  0  0
 20105  1  0  0  0
 21 23  1  0  0  0
 22 28  1  0  0  0
 22 32  2  0  0  0
 26 27  1  0  0  0
 28106  1  0  0  0
 28107  1  0  0  0
 29108  1  0  0  0
 29109  1  0  0  0
 33 34  1  0  0  0
 33 66  1  0  0  0
 33 70  2  0  0  0
 34 36  1  0  0  0
 34 59  1  0  0  0
 34110  1  0  0  0
 35 44  2  0  0  0
 35 45  1  0  0  0
 35 68  1  0  0  0
 36 56  1  0  0  0
 36111  1  0  0  0
 37 39  1  0  0  0
 37 47  1  0  0  0
 37 66  1  0  0  0
 37112  1  0  0  0
 38 43  2  0  0  0
 38 46  1  0  0  0
 38 47  1  0  0  0
 39 64  1  0  0  0
 39 67  2  0  0  0
 40 52  1  0  0  0
 40 53  2  0  0  0
 40 58  1  0  0  0
 41113  1  0  0  0
 41114  1  0  0  0
 41115  1  0  0  0
 41 48  1  0  0  0
 42 43  1  0  0  0
 42 66  1  0  0  0
 42116  1  0  0  0
 42117  1  0  0  0
 43 44  1  0  0  0
 44118  1  0  0  0
 45 46  2  0  0  0
 45119  1  0  0  0
 46120  1  0  0  0
 47121  1  0  0  0
 47122  1  0  0  0
 48 56  1  0  0  0
 48 65  1  0  0  0
 48123  1  0  0  0
 49 50  1  0  0  0
 49 53  1  0  0  0
 49 64  1  0  0  0
 49124  1  0  0  0
 50 51  1  0  0  0
 50125  1  0  0  0
 50126  1  0  0  0
 51 52  1  0  0  0
 51127  1  0  0  0
 51128  1  0  0  0
 52129  1  0  0  0
 52130  1  0  0  0
 53 54  1  0  0  0
 54 55  2  0  0  0
 54131  1  0  0  0
 55 57  1  0  0  0
 55132  1  0  0  0
 56 69  2  0  0  0
 57 58  2  0  0  0
 57133  1  0  0  0
 58134  1  0  0  0
 59 60  1  0  0  0
 59 61  1  0  0  0
 59 62  1  0  0  0
 60135  1  0  0  0
 60136  1  0  0  0
 60137  1  0  0  0
 61138  1  0  0  0
 61139  1  0  0  0
 61140  1  0  0  0
 62141  1  0  0  0
 62142  1  0  0  0
 62143  1  0  0  0
 63 65  1  0  0  0
 63144  1  0  0  0
 63145  1  0  0  0
 63146  1  0  0  0
 64147  1  0  0  0
 65148  1  0  0  0
 68 84  1  0  0  0
 71 73  2  0  0  0
 71 74  1  0  0  0
 71149  1  0  0  0
 72 73  1  0  0  0
 72 75  2  0  0  0
 72150  1  0  0  0
 73 85  1  0  0  0
 74 80  1  0  0  0
 74 88  2  0  0  0
 75 86  1  0  0  0
 75 88  1  0  0  0
 76151  1  0  0  0
 76152  1  0  0  0
 76153  1  0  0  0
 76 85  1  0  0  0
 77154  1  0  0  0
 77155  1  0  0  0
 77156  1  0  0  0
 77 86  1  0  0  0
 78157  1  0  0  0
 78158  1  0  0  0
 78159  1  0  0  0
 78 87  1  0  0  0
 79 87  1  0  0  0
 79160  1  0  0  0
 79161  1  0  0  0
 79162  1  0  0  0
 80 81  1  0  0  0
 80163  1  0  0  0
 80164  1  0  0  0
 81 87  1  0  0  0
 81165  1  0  0  0
 81166  1  0  0  0
 82 84  1  0  0  0
 82 85  1  0  0  0
 82167  1  0  0  0
 82168  1  0  0  0
 83 86  1  0  0  0
 83 89  1  0  0  0
 83169  1  0  0  0
 83170  1  0  0  0
 84171  1  0  0  0
 84172  1  0  0  0
 85173  1  0  0  0
 86174  1  0  0  0
 87175  1  0  0  0
 89176  1  0  0  0
M  ISO  4   1 100  68 101  84 101  89 100
M  END
> <chiral flag>
0

> <version>
0

> <s_m_source_file>
/data/baiqing/PycharmProjects/Reinvent-master-3.2/result/LINK_invent/BTK/process_docking_weight1_custom_sum_contain_oxygen_bond_distance_aromatic_linkinvent_7_9_3/rearranged_h_0092.sdf

> <i_m_source_file_index>
19

> <r_mmod_Potential_Energy-OPLS-2005>
-235.71435546875

> <r_mmod_Stretch_Energy-OPLS-2005>
40.6438369750977

> <r_mmod_Bend_Energy-OPLS-2005>
97.2256088256836

> <r_mmod_Torsional_Energy-OPLS-2005>
230.182815551758

> <r_mmod_Improper_Torsional_Energy-OPLS-2005>
4.88361978530884

> <r_mmod_Van_der_Waal_Energy-OPLS-2005>
147.667587280273

> <r_mmod_Electrostatic_Energy-OPLS-2005>
-561.572326660156

> <r_mmod_Solvation_Energy-OPLS-2005>
-210.362655639648

> <b_mmod_Minimization_Converged-OPLS-2005>
0

> <r_mmod_RMS_Derivative-OPLS-2005>
4.16024780273438

$$$$
20
                    3D
 Structure written by MMmdl.
157164  0  0  1  0            999 V2000
  -30.1941  -16.0114   20.2916 C   0  0  0  0  0  0
  -30.3988  -13.3605   19.5422 C   0  0  0  0  0  0
  -29.5635  -12.7696   18.3594 C   0  0  0  0  0  0
  -28.1754  -12.3214   18.8259 C   0  0  0  0  0  0
  -27.5896  -13.3527   19.8104 C   0  0  2  0  0  0
  -28.5833  -13.8484   20.9042 C   0  0  0  0  0  0
  -25.2291  -13.8354   20.5836 C   0  0  0  0  0  0
  -24.1710  -13.0459   20.9308 C   0  0  0  0  0  0
  -24.6461  -11.6989   20.8756 C   0  0  0  0  0  0
  -23.9154  -10.4312   21.0386 C   0  0  0  0  0  0
  -24.3676   -9.4221   21.9171 C   0  0  0  0  0  0
  -23.6327   -8.2270   22.0737 C   0  0  0  0  0  0
  -22.4299   -8.0291   21.3532 C   0  0  0  0  0  0
  -21.9968   -9.0266   20.4640 C   0  0  0  0  0  0
  -22.7315  -10.2141   20.3043 C   0  0  0  0  0  0
  -21.6872   -6.0733   22.5283 C   0  0  0  0  0  0
  -21.4018   -6.5632   23.8207 C   0  0  0  0  0  0
  -21.3671   -5.6775   24.9182 C   0  0  0  0  0  0
  -21.6071   -4.3044   24.7210 C   0  0  0  0  0  0
  -21.8825   -3.8132   23.4340 C   0  0  0  0  0  0
  -21.9196   -4.6954   22.3397 C   0  0  0  0  0  0
  -22.7709  -13.5148   21.1928 C   0  0  0  0  0  0
  -22.1660   -4.2142   21.0975 F   0  0  0  0  0  0
  -21.5640   -3.4521   25.7723 F   0  0  0  0  0  0
  -29.7029  -14.5820   20.2250 N   0  0  0  0  0  0
  -26.2793  -12.9768   20.3292 N   0  0  0  0  0  0
  -25.9421  -11.6799   20.5698 N   0  0  0  0  0  0
  -22.0358  -12.8124   22.0483 N   0  0  0  0  0  0
  -25.3899  -15.2096   20.4240 N   0  0  0  0  0  0
  -31.4357  -15.8769   20.1640 O   0  0  0  0  0  0
  -21.6670   -6.8876   21.4234 O   0  0  0  0  0  0
  -22.3381  -14.5438   20.6754 O   0  0  0  0  0  0
  -24.7086  -31.7716   23.1295 C   0  0  0  0  0  0
  -25.9544  -32.4323   23.7943 C   0  0  1  0  0  0
  -27.2542  -26.4510   20.2515 C   0  0  0  0  0  0
  -25.6024  -33.8161   24.1817 N   0  0  0  0  0  0
  -23.5470  -30.3603   21.4905 C   0  0  2  0  0  0
  -25.0107  -28.6432   20.1370 C   0  0  0  0  0  0
  -22.7899  -29.4169   22.4651 C   0  0  0  0  0  0
  -18.0370  -28.1428   22.8471 C   0  0  0  0  0  0
  -24.1500  -36.7090   23.2652 C   0  0  0  0  0  0
  -26.1395  -30.4216   21.4313 C   0  0  0  0  0  0
  -26.2068  -28.9561   20.7929 C   0  0  0  0  0  0
  -27.3038  -27.9013   20.8015 C   0  0  0  0  0  0
  -26.0153  -26.4082   19.5424 C   0  0  0  0  0  0
  -24.9701  -27.3968   19.4851 C   0  0  0  0  0  0
  -23.8178  -29.6289   20.1400 C   0  0  0  0  0  0
  -25.4163  -36.2815   24.0255 C   0  0  1  0  0  0
  -20.6020  -28.3792   23.1108 C   0  0  2  0  0  0
  -20.6816  -26.9415   22.5417 C   0  0  0  0  0  0
  -19.5785  -26.6353   21.5238 C   0  0  0  0  0  0
  -18.1975  -26.7959   22.1630 C   0  0  0  0  0  0
  -19.1645  -28.8941   23.2770 C   0  0  0  0  0  0
  -18.9534  -30.1524   23.8805 C   0  0  0  0  0  0
  -17.6511  -30.6602   24.0547 C   0  0  0  0  0  0
  -25.9158  -34.9207   23.4900 C   0  0  0  0  0  0
  -16.5408  -29.9067   23.6361 C   0  0  0  0  0  0
  -16.7350  -28.6495   23.0384 C   0  0  0  0  0  0
  -26.4636  -31.6443   25.0656 C   0  0  0  0  0  0
  -25.3643  -31.3829   26.1223 C   0  0  0  0  0  0
  -27.0598  -30.2745   24.6736 C   0  0  0  0  0  0
  -27.6041  -32.4374   25.7469 C   0  0  0  0  0  0
  -27.5574  -37.1705   24.8460 C   0  0  0  0  0  0
  -21.4518  -29.2992   22.3394 N   0  0  0  0  0  0
  -26.4276  -37.3608   23.9407 N   0  0  0  0  0  0
  -24.8250  -30.8919   22.0681 N   0  0  0  0  0  0
  -23.4246  -28.7792   23.3082 O   0  0  0  0  0  0
  -28.2208  -25.1403   20.2136 O   0  0  0  0  0  0
  -26.5828  -34.8836   22.4534 O   0  0  0  0  0  0
  -23.6043  -32.0896   23.6078 O   0  0  0  0  0  0
  -28.4875  -23.3394   22.0669 C   0  0  0  0  0  0
  -32.5837  -21.5763   20.7581 C   0  0  0  0  0  0
  -28.5905  -21.2490   20.0715 C   0  0  0  0  0  0
  -31.0283  -19.7423   20.7039 C   0  0  0  0  0  0
  -32.1347  -20.4623   18.6655 C   0  0  0  0  0  0
  -29.5903  -19.3949   20.2465 C   0  0  1  0  0  0
  -28.2343  -23.2771   20.5541 C   0  0  2  0  0  0
  -32.3886  -21.6010   17.6461 C   0  0  0  0  0  0
  -29.4639  -17.4891   20.3240 N   0  0  0  0  0  0
  -31.5680  -20.8904   19.9614 N   0  0  0  0  0  0
  -32.5531  -21.0630   16.4377 F   0  0  0  0  0  0
  -31.3482  -22.4335   17.5936 F   0  0  0  0  0  0
  -33.4889  -22.2904   17.9456 F   0  0  0  0  0  0
  -31.3675  -13.6638   19.1406 H   0  0  0  0  0  0
  -30.6324  -12.5807   20.2673 H   0  0  0  0  0  0
  -30.0956  -11.9420   17.8893 H   0  0  0  0  0  0
  -29.4476  -13.5341   17.5906 H   0  0  0  0  0  0
  -28.2784  -11.3580   19.3281 H   0  0  0  0  0  0
  -27.5065  -12.1659   17.9772 H   0  0  0  0  0  0
  -27.4004  -14.2223   19.1796 H   0  0  0  0  0  0
  -28.9239  -13.0357   21.5483 H   0  0  0  0  0  0
  -28.0782  -14.5575   21.5610 H   0  0  0  0  0  0
  -25.2810   -9.5715   22.4765 H   0  0  0  0  0  0
  -24.0044   -7.4670   22.7447 H   0  0  0  0  0  0
  -21.0904   -8.8797   19.8932 H   0  0  0  0  0  0
  -22.3766  -10.9679   19.6163 H   0  0  0  0  0  0
  -21.2004   -7.6135   23.9711 H   0  0  0  0  0  0
  -21.1494   -6.0504   25.9081 H   0  0  0  0  0  0
  -22.0590   -2.7585   23.2848 H   0  0  0  0  0  0
  -22.3956  -11.9813   22.4933 H   0  0  0  0  0  0
  -21.0957  -13.1127   22.2606 H   0  0  0  0  0  0
  -24.6273  -15.8674   20.5346 H   0  0  0  0  0  0
  -26.2393  -15.6421   20.0860 H   0  0  0  0  0  0
  -26.7641  -32.4744   23.0662 H   0  0  0  0  0  0
  -25.0073  -33.9164   24.9904 H   0  0  0  0  0  0
  -22.8868  -31.2009   21.2740 H   0  0  0  0  0  0
  -23.3809  -35.9377   23.3229 H   0  0  0  0  0  0
  -24.3549  -36.8862   22.2088 H   0  0  0  0  0  0
  -23.7211  -37.6209   23.6807 H   0  0  0  0  0  0
  -26.3691  -31.1300   20.6328 H   0  0  0  0  0  0
  -26.9790  -30.5045   22.1081 H   0  0  0  0  0  0
  -28.2099  -28.1743   21.3227 H   0  0  0  0  0  0
  -25.8103  -25.4855   19.0181 H   0  0  0  0  0  0
  -24.0767  -27.1430   18.9322 H   0  0  0  0  0  0
  -24.0090  -30.3731   19.3663 H   0  0  0  0  0  0
  -22.9192  -29.1026   19.8132 H   0  0  0  0  0  0
  -25.1385  -36.1554   25.0745 H   0  0  0  0  0  0
  -21.0125  -28.3417   24.1231 H   0  0  0  0  0  0
  -20.5665  -26.2410   23.3700 H   0  0  0  0  0  0
  -21.6669  -26.7314   22.1231 H   0  0  0  0  0  0
  -19.6919  -25.6240   21.1313 H   0  0  0  0  0  0
  -19.6731  -27.3131   20.6739 H   0  0  0  0  0  0
  -17.4253  -26.6753   21.4020 H   0  0  0  0  0  0
  -18.0314  -26.0112   22.9022 H   0  0  0  0  0  0
  -19.7998  -30.7383   24.2129 H   0  0  0  0  0  0
  -17.5043  -31.6274   24.5152 H   0  0  0  0  0  0
  -15.5396  -30.2926   23.7714 H   0  0  0  0  0  0
  -15.8766  -28.0759   22.7150 H   0  0  0  0  0  0
  -24.5881  -30.7125   25.7499 H   0  0  0  0  0  0
  -24.8775  -32.3072   26.4347 H   0  0  0  0  0  0
  -25.7765  -30.9179   27.0191 H   0  0  0  0  0  0
  -26.3365  -29.6295   24.1744 H   0  0  0  0  0  0
  -27.3925  -29.7264   25.5559 H   0  0  0  0  0  0
  -27.9382  -30.3772   24.0371 H   0  0  0  0  0  0
  -27.2553  -33.3792   26.1712 H   0  0  0  0  0  0
  -28.4002  -32.6758   25.0405 H   0  0  0  0  0  0
  -28.0544  -31.8746   26.5655 H   0  0  0  0  0  0
  -28.2523  -38.0062   24.7547 H   0  0  0  0  0  0
  -28.1149  -36.2593   24.6259 H   0  0  0  0  0  0
  -27.2296  -37.1282   25.8859 H   0  0  0  0  0  0
  -20.9864  -29.8627   21.6401 H   0  0  0  0  0  0
  -26.0092  -38.2645   24.1443 H   0  0  0  0  0  0
  -28.0999  -22.4513   22.5654 H   0  0  0  0  0  0
  -28.0030  -24.2053   22.5168 H   0  0  0  0  0  0
  -29.5538  -23.4098   22.2885 H   0  0  0  0  0  0
  -32.1776  -21.8866   21.7241 H   0  0  0  0  0  0
  -32.9282  -22.4844   20.2614 H   0  0  0  0  0  0
  -33.4507  -20.9412   20.9527 H   0  0  0  0  0  0
  -27.5861  -20.8829   20.2820 H   0  0  0  0  0  0
  -28.5907  -21.3423   18.9851 H   0  0  0  0  0  0
  -31.6992  -18.8885   20.6037 H   0  0  0  0  0  0
  -30.9874  -19.9778   21.7687 H   0  0  0  0  0  0
  -33.0578  -19.8990   18.8157 H   0  0  0  0  0  0
  -31.4439  -19.7718   18.1837 H   0  0  0  0  0  0
  -29.6577  -19.2840   19.1667 H   0  0  0  0  0  0
  -27.1529  -23.2046   20.4446 H   0  0  0  0  0  0
  -28.4789  -17.2791   20.4018 H   0  0  0  0  0  0
  1 25  1  0  0  0
  1 30  2  0  0  0
  1 79  1  0  0  0
  2  3  1  0  0  0
  2 25  1  0  0  0
  2 84  1  0  0  0
  2 85  1  0  0  0
  3  4  1  0  0  0
  3 86  1  0  0  0
  3 87  1  0  0  0
  4  5  1  0  0  0
  4 88  1  0  0  0
  4 89  1  0  0  0
  5  6  1  0  0  0
  5 26  1  0  0  0
  5 90  1  0  0  0
  6 25  1  0  0  0
  6 91  1  0  0  0
  6 92  1  0  0  0
  7  8  2  0  0  0
  7 26  1  0  0  0
  7 29  1  0  0  0
  8  9  1  0  0  0
  8 22  1  0  0  0
  9 10  1  0  0  0
  9 27  2  0  0  0
 10 11  2  0  0  0
 10 15  1  0  0  0
 11 12  1  0  0  0
 11 93  1  0  0  0
 12 13  2  0  0  0
 12 94  1  0  0  0
 13 14  1  0  0  0
 13 31  1  0  0  0
 14 15  2  0  0  0
 14 95  1  0  0  0
 15 96  1  0  0  0
 16 17  2  0  0  0
 16 21  1  0  0  0
 16 31  1  0  0  0
 17 18  1  0  0  0
 17 97  1  0  0  0
 18 19  2  0  0  0
 18 98  1  0  0  0
 19 20  1  0  0  0
 19 24  1  0  0  0
 20 21  2  0  0  0
 20 99  1  0  0  0
 21 23  1  0  0  0
 22 28  1  0  0  0
 22 32  2  0  0  0
 26 27  1  0  0  0
 28100  1  0  0  0
 28101  1  0  0  0
 29102  1  0  0  0
 29103  1  0  0  0
 33 34  1  0  0  0
 33 66  1  0  0  0
 33 70  2  0  0  0
 34 36  1  0  0  0
 34 59  1  0  0  0
 34104  1  0  0  0
 35 44  2  0  0  0
 35 45  1  0  0  0
 35 68  1  0  0  0
 36 56  1  0  0  0
 36105  1  0  0  0
 37 39  1  0  0  0
 37 47  1  0  0  0
 37 66  1  0  0  0
 37106  1  0  0  0
 38 43  2  0  0  0
 38 46  1  0  0  0
 38 47  1  0  0  0
 39 64  1  0  0  0
 39 67  2  0  0  0
 40 52  1  0  0  0
 40 53  2  0  0  0
 40 58  1  0  0  0
 41107  1  0  0  0
 41108  1  0  0  0
 41109  1  0  0  0
 41 48  1  0  0  0
 42 43  1  0  0  0
 42 66  1  0  0  0
 42110  1  0  0  0
 42111  1  0  0  0
 43 44  1  0  0  0
 44112  1  0  0  0
 45 46  2  0  0  0
 45113  1  0  0  0
 46114  1  0  0  0
 47115  1  0  0  0
 47116  1  0  0  0
 48 56  1  0  0  0
 48 65  1  0  0  0
 48117  1  0  0  0
 49 50  1  0  0  0
 49 53  1  0  0  0
 49 64  1  0  0  0
 49118  1  0  0  0
 50 51  1  0  0  0
 50119  1  0  0  0
 50120  1  0  0  0
 51 52  1  0  0  0
 51121  1  0  0  0
 51122  1  0  0  0
 52123  1  0  0  0
 52124  1  0  0  0
 53 54  1  0  0  0
 54 55  2  0  0  0
 54125  1  0  0  0
 55 57  1  0  0  0
 55126  1  0  0  0
 56 69  2  0  0  0
 57 58  2  0  0  0
 57127  1  0  0  0
 58128  1  0  0  0
 59 60  1  0  0  0
 59 61  1  0  0  0
 59 62  1  0  0  0
 60129  1  0  0  0
 60130  1  0  0  0
 60131  1  0  0  0
 61132  1  0  0  0
 61133  1  0  0  0
 61134  1  0  0  0
 62135  1  0  0  0
 62136  1  0  0  0
 62137  1  0  0  0
 63 65  1  0  0  0
 63138  1  0  0  0
 63139  1  0  0  0
 63140  1  0  0  0
 64141  1  0  0  0
 65142  1  0  0  0
 68 77  1  0  0  0
 71143  1  0  0  0
 71144  1  0  0  0
 71145  1  0  0  0
 71 77  1  0  0  0
 72 80  1  0  0  0
 72146  1  0  0  0
 72147  1  0  0  0
 72148  1  0  0  0
 73 77  1  0  0  0
 73149  1  0  0  0
 73150  1  0  0  0
 73 76  1  0  0  0
 74 76  1  0  0  0
 74 80  1  0  0  0
 74151  1  0  0  0
 74152  1  0  0  0
 75 78  1  0  0  0
 75 80  1  0  0  0
 75153  1  0  0  0
 75154  1  0  0  0
 76 79  1  0  0  0
 76155  1  0  0  0
 77156  1  0  0  0
 78 81  1  0  0  0
 78 82  1  0  0  0
 78 83  1  0  0  0
 79157  1  0  0  0
M  ISO  4   1 100  68 101  77 101  79 100
M  END
> <chiral flag>
0

> <version>
0

> <s_m_source_file>
/data/baiqing/PycharmProjects/Reinvent-master-3.2/result/LINK_invent/BTK/process_docking_weight1_custom_sum_contain_oxygen_bond_distance_aromatic_linkinvent_7_9_3/rearranged_h_0092.sdf

> <i_m_source_file_index>
20

> <r_mmod_Potential_Energy-OPLS-2005>
4327.27294921875

> <r_mmod_Stretch_Energy-OPLS-2005>
1943.59252929688

> <r_mmod_Bend_Energy-OPLS-2005>
981.234130859375

> <r_mmod_Torsional_Energy-OPLS-2005>
280.339782714844

> <r_mmod_Improper_Torsional_Energy-OPLS-2005>
3.95484018325806

> <r_mmod_Van_der_Waal_Energy-OPLS-2005>
115.441337585449

> <r_mmod_Electrostatic_Energy-OPLS-2005>
-297.603912353516

> <r_mmod_Solvation_Energy-OPLS-2005>
-216.934341430664

> <b_mmod_Minimization_Converged-OPLS-2005>
0

> <r_mmod_RMS_Derivative-OPLS-2005>
4.27810764312744

$$$$
21
                    3D
 Structure written by MMmdl.
170178  0  0  1  0            999 V2000
  -29.8917  -16.2737   19.7163 C   0  0  0  0  0  0
  -30.2932  -13.5126   19.3895 C   0  0  0  0  0  0
  -29.4925  -12.7284   18.3051 C   0  0  0  0  0  0
  -28.1274  -12.2620   18.8347 C   0  0  0  0  0  0
  -27.5155  -13.3425   19.7493 C   0  0  2  0  0  0
  -28.5039  -14.0088   20.7314 C   0  0  0  0  0  0
  -25.2093  -13.8340   20.6018 C   0  0  0  0  0  0
  -24.1518  -13.0467   20.9446 C   0  0  0  0  0  0
  -24.6260  -11.6988   20.8857 C   0  0  0  0  0  0
  -23.9032  -10.4312   21.0457 C   0  0  0  0  0  0
  -24.3622   -9.4213   21.9193 C   0  0  0  0  0  0
  -23.6325   -8.2211   22.0729 C   0  0  0  0  0  0
  -22.4305   -8.0257   21.3512 C   0  0  0  0  0  0
  -21.9961   -9.0202   20.4574 C   0  0  0  0  0  0
  -22.7268  -10.2099   20.3036 C   0  0  0  0  0  0
  -21.6845   -6.0768   22.5286 C   0  0  0  0  0  0
  -21.4051   -6.5672   23.8235 C   0  0  0  0  0  0
  -21.3682   -5.6800   24.9178 C   0  0  0  0  0  0
  -21.6046   -4.3068   24.7202 C   0  0  0  0  0  0
  -21.8799   -3.8170   23.4319 C   0  0  0  0  0  0
  -21.9191   -4.6999   22.3390 C   0  0  0  0  0  0
  -22.7521  -13.5110   21.2057 C   0  0  0  0  0  0
  -22.1650   -4.2214   21.0956 F   0  0  0  0  0  0
  -21.5617   -3.4530   25.7701 F   0  0  0  0  0  0
  -29.5077  -14.7780   19.8927 N   0  0  0  0  0  0
  -26.2486  -12.9685   20.3387 N   0  0  0  0  0  0
  -25.9216  -11.6719   20.5767 N   0  0  0  0  0  0
  -22.0277  -12.7961   22.0584 N   0  0  0  0  0  0
  -25.3722  -15.2077   20.4380 N   0  0  0  0  0  0
  -31.1578  -16.1236   19.7104 O   0  0  0  0  0  0
  -21.6634   -6.8898   21.4254 O   0  0  0  0  0  0
  -22.3157  -14.5410   20.6940 O   0  0  0  0  0  0
  -24.7461  -31.7235   22.8400 C   0  0  0  0  0  0
  -25.9732  -32.3909   23.6221 C   0  0  1  0  0  0
  -27.6236  -26.8267   21.2087 C   0  0  0  0  0  0
  -25.5912  -33.7670   24.0548 N   0  0  0  0  0  0
  -23.5849  -30.0435   21.2069 C   0  0  2  0  0  0
  -25.1716  -27.9071   19.1140 C   0  0  0  0  0  0
  -22.6409  -29.6684   22.4737 C   0  0  0  0  0  0
  -17.9488  -28.2255   22.8895 C   0  0  0  0  0  0
  -24.1500  -36.6852   23.2742 C   0  0  0  0  0  0
  -25.9222  -30.4356   20.7618 C   0  0  0  0  0  0
  -26.1267  -28.8938   20.0925 C   0  0  0  0  0  0
  -27.3025  -28.3036   20.8650 C   0  0  0  0  0  0
  -27.2504  -25.3319   20.5556 C   0  0  0  0  0  0
  -25.9012  -25.1571   19.5007 C   0  0  0  0  0  0
  -23.8913  -29.0099   19.7585 C   0  0  0  0  0  0
  -25.4243  -36.2532   24.0175 C   0  0  1  0  0  0
  -20.5161  -28.4353   23.2780 C   0  0  2  0  0  0
  -20.4043  -26.8693   23.2086 C   0  0  0  0  0  0
  -19.4361  -26.3632   22.1571 C   0  0  0  0  0  0
  -18.0271  -26.8807   22.2124 C   0  0  0  0  0  0
  -19.0907  -28.9564   23.3470 C   0  0  0  0  0  0
  -18.9033  -30.2123   23.9469 C   0  0  0  0  0  0
  -17.6116  -30.7319   24.1084 C   0  0  0  0  0  0
  -25.9318  -34.9111   23.4422 C   0  0  0  0  0  0
  -16.4933  -29.9956   23.6816 C   0  0  0  0  0  0
  -16.6602  -28.7482   23.0693 C   0  0  0  0  0  0
  -26.4607  -31.6378   24.9426 C   0  0  0  0  0  0
  -25.3400  -31.3542   25.9829 C   0  0  0  0  0  0
  -27.1200  -30.3064   24.5722 C   0  0  0  0  0  0
  -27.5822  -32.4414   25.6470 C   0  0  0  0  0  0
  -27.5662  -37.1444   24.8386 C   0  0  0  0  0  0
  -21.3428  -29.2644   22.3423 N   0  0  0  0  0  0
  -26.4256  -37.3456   23.9465 N   0  0  0  0  0  0
  -24.7842  -30.8196   21.7112 N   0  0  0  0  0  0
  -23.1890  -29.4096   23.5547 O   0  0  0  0  0  0
  -27.0173  -26.9558   22.4822 O   0  0  0  0  0  0
  -26.6322  -34.9148   22.4288 O   0  0  0  0  0  0
  -23.6653  -32.1214   23.3250 O   0  0  0  0  0  0
  -23.9581  -25.8992   18.3597 C   0  0  0  0  0  0
  -25.2735  -25.8247   17.2984 C   0  0  0  0  0  0
  -23.8951  -26.1811   20.0603 C   0  0  0  0  0  0
  -26.9271  -25.7292   17.5864 C   0  0  0  0  0  0
  -25.2694  -26.6454   20.8203 C   0  0  0  0  0  0
  -25.1705  -25.1891   21.9005 C   0  0  0  0  0  0
  -20.7081  -27.7927   19.5691 C   0  0  0  0  0  0
  -21.0908  -25.2050   19.4496 C   0  0  0  0  0  0
  -27.8478  -23.8062   17.7903 C   0  0  0  0  0  0
  -27.8937  -21.6387   18.4295 C   0  0  0  0  0  0
  -23.6805  -27.0459   22.5772 C   0  0  0  0  0  0
  -28.8511  -19.5988   18.5685 C   0  0  0  0  0  0
  -25.4743  -27.5670   23.0079 C   0  0  0  0  0  0
  -22.8522  -26.2801   21.1345 C   0  0  1  0  0  0
  -21.6096  -26.5489   20.0391 C   0  0  0  0  0  0
  -27.0323  -26.8564   18.8725 N   0  0  0  0  0  0
  -29.1172  -17.7959   19.4620 N   0  0  0  0  0  0
  -31.2318  -13.8413   18.9441 H   0  0  0  0  0  0
  -30.5792  -12.8445   20.2073 H   0  0  0  0  0  0
  -30.0548  -11.8773   17.9246 H   0  0  0  0  0  0
  -29.3140  -13.4009   17.4674 H   0  0  0  0  0  0
  -28.2491  -11.3292   19.3896 H   0  0  0  0  0  0
  -27.4542  -12.0324   18.0063 H   0  0  0  0  0  0
  -27.2577  -14.1196   19.0292 H   0  0  0  0  0  0
  -28.9216  -13.2585   21.4020 H   0  0  0  0  0  0
  -27.9928  -14.7185   21.3880 H   0  0  0  0  0  0
  -25.2776   -9.5726   22.4768 H   0  0  0  0  0  0
  -24.0077   -7.4617   22.7473 H   0  0  0  0  0  0
  -21.0887   -8.8662   19.8847 H   0  0  0  0  0  0
  -22.3719  -10.9611   19.6105 H   0  0  0  0  0  0
  -21.2072   -7.6184   23.9769 H   0  0  0  0  0  0
  -21.1530   -6.0517   25.9085 H   0  0  0  0  0  0
  -22.0564   -2.7647   23.2747 H   0  0  0  0  0  0
  -22.4002  -11.9583   22.4798 H   0  0  0  0  0  0
  -21.0916  -13.0818   22.3041 H   0  0  0  0  0  0
  -24.6239  -15.8819   20.5651 H   0  0  0  0  0  0
  -26.2337  -15.6324   20.1199 H   0  0  0  0  0  0
  -26.8312  -32.4597   22.9523 H   0  0  0  0  0  0
  -24.9518  -33.8240   24.8327 H   0  0  0  0  0  0
  -22.9601  -30.8314   20.7842 H   0  0  0  0  0  0
  -23.4068  -35.8855   23.2862 H   0  0  0  0  0  0
  -24.3587  -36.9202   22.2292 H   0  0  0  0  0  0
  -23.6907  -37.5603   23.7359 H   0  0  0  0  0  0
  -25.9001  -31.1219   19.9132 H   0  0  0  0  0  0
  -26.8489  -30.7173   21.2490 H   0  0  0  0  0  0
  -27.7888  -28.9828   21.5557 H   0  0  0  0  0  0
  -27.6777  -24.4283   20.9601 H   0  0  0  0  0  0
  -25.5095  -24.2098   19.1359 H   0  0  0  0  0  0
  -23.9262  -29.7614   18.9769 H   0  0  0  0  0  0
  -22.9428  -28.5795   19.5744 H   0  0  0  0  0  0
  -25.1580  -36.1012   25.0655 H   0  0  0  0  0  0
  -20.9371  -28.5918   24.2703 H   0  0  0  0  0  0
  -19.9656  -26.6109   24.1991 H   0  0  0  0  0  0
  -21.2949  -26.2537   23.1901 H   0  0  0  0  0  0
  -19.4919  -25.2894   21.9744 H   0  0  0  0  0  0
  -19.8486  -26.8955   21.4008 H   0  0  0  0  0  0
  -17.6377  -26.9840   21.1959 H   0  0  0  0  0  0
  -17.3439  -26.2058   22.7429 H   0  0  0  0  0  0
  -19.7548  -30.7742   24.3158 H   0  0  0  0  0  0
  -17.4678  -31.6891   24.5945 H   0  0  0  0  0  0
  -15.5008  -30.3910   23.8283 H   0  0  0  0  0  0
  -15.7815  -28.2042   22.7402 H   0  0  0  0  0  0
  -24.5500  -30.7265   25.5700 H   0  0  0  0  0  0
  -24.8619  -32.2677   26.3363 H   0  0  0  0  0  0
  -25.7248  -30.8317   26.8587 H   0  0  0  0  0  0
  -26.3774  -29.6677   24.1468 H   0  0  0  0  0  0
  -27.5196  -29.7846   25.4469 H   0  0  0  0  0  0
  -27.9170  -30.4151   23.8298 H   0  0  0  0  0  0
  -27.2271  -33.3918   26.0468 H   0  0  0  0  0  0
  -28.3825  -32.6573   24.9369 H   0  0  0  0  0  0
  -28.0316  -31.8848   26.4714 H   0  0  0  0  0  0
  -28.2320  -38.0079   24.8032 H   0  0  0  0  0  0
  -28.1571  -36.2730   24.5546 H   0  0  0  0  0  0
  -27.2509  -37.0144   25.8752 H   0  0  0  0  0  0
  -20.8340  -29.6282   21.5529 H   0  0  0  0  0  0
  -26.0056  -38.2456   24.1604 H   0  0  0  0  0  0
  -23.0300  -25.6803   17.8296 H   0  0  0  0  0  0
  -24.9693  -25.6042   16.2867 H   0  0  0  0  0  0
  -24.3307  -24.9371   22.5329 H   0  0  0  0  0  0
  -25.9744  -25.0033   22.6087 H   0  0  0  0  0  0
  -25.0306  -24.2365   21.3814 H   0  0  0  0  0  0
  -19.6290  -27.5770   19.5527 H   0  0  0  0  0  0
  -20.8371  -27.9896   18.4992 H   0  0  0  0  0  0
  -20.8575  -28.7581   20.0472 H   0  0  0  0  0  0
  -20.7296  -25.3925   18.4358 H   0  0  0  0  0  0
  -20.2884  -24.7137   20.0025 H   0  0  0  0  0  0
  -21.9037  -24.4814   19.3124 H   0  0  0  0  0  0
  -28.7934  -24.1918   18.1881 H   0  0  0  0  0  0
  -28.1290  -23.6724   16.7423 H   0  0  0  0  0  0
  -27.1652  -21.3248   17.6624 H   0  0  0  0  0  0
  -27.2591  -21.6654   19.3081 H   0  0  0  0  0  0
  -23.2687  -27.6717   21.8774 H   0  0  0  0  0  0
  -23.1157  -27.0438   23.5118 H   0  0  0  0  0  0
  -29.8294  -19.7043   18.1179 H   0  0  0  0  0  0
  -28.2725  -19.2061   17.7193 H   0  0  0  0  0  0
  -25.5168  -27.7039   24.0859 H   0  0  0  0  0  0
  -25.4898  -28.5913   22.6524 H   0  0  0  0  0  0
  -22.5939  -25.2586   21.4509 H   0  0  0  0  0  0
  -22.0811  -26.8542   19.1364 H   0  0  0  0  0  0
  -29.2194  -18.1439   20.4328 H   0  0  0  0  0  0
  1 25  1  0  0  0
  1 30  2  0  0  0
  1 87  1  0  0  0
  2  3  1  0  0  0
  2 25  1  0  0  0
  2 88  1  0  0  0
  2 89  1  0  0  0
  3  4  1  0  0  0
  3 90  1  0  0  0
  3 91  1  0  0  0
  4  5  1  0  0  0
  4 92  1  0  0  0
  4 93  1  0  0  0
  5  6  1  0  0  0
  5 26  1  0  0  0
  5 94  1  0  0  0
  6 25  1  0  0  0
  6 95  1  0  0  0
  6 96  1  0  0  0
  7  8  2  0  0  0
  7 26  1  0  0  0
  7 29  1  0  0  0
  8  9  1  0  0  0
  8 22  1  0  0  0
  9 10  1  0  0  0
  9 27  2  0  0  0
 10 11  2  0  0  0
 10 15  1  0  0  0
 11 12  1  0  0  0
 11 97  1  0  0  0
 12 13  2  0  0  0
 12 98  1  0  0  0
 13 14  1  0  0  0
 13 31  1  0  0  0
 14 15  2  0  0  0
 14 99  1  0  0  0
 15100  1  0  0  0
 16 17  2  0  0  0
 16 21  1  0  0  0
 16 31  1  0  0  0
 17 18  1  0  0  0
 17101  1  0  0  0
 18 19  2  0  0  0
 18102  1  0  0  0
 19 20  1  0  0  0
 19 24  1  0  0  0
 20 21  2  0  0  0
 20103  1  0  0  0
 21 23  1  0  0  0
 22 28  1  0  0  0
 22 32  2  0  0  0
 26 27  1  0  0  0
 28104  1  0  0  0
 28105  1  0  0  0
 29106  1  0  0  0
 29107  1  0  0  0
 33 34  1  0  0  0
 33 66  1  0  0  0
 33 70  2  0  0  0
 34 36  1  0  0  0
 34 59  1  0  0  0
 34108  1  0  0  0
 35 44  2  0  0  0
 35 45  1  0  0  0
 35 68  1  0  0  0
 36 56  1  0  0  0
 36109  1  0  0  0
 37 39  1  0  0  0
 37 47  1  0  0  0
 37 66  1  0  0  0
 37110  1  0  0  0
 38 43  2  0  0  0
 38 46  1  0  0  0
 38 47  1  0  0  0
 39 64  1  0  0  0
 39 67  2  0  0  0
 40 52  1  0  0  0
 40 53  2  0  0  0
 40 58  1  0  0  0
 41111  1  0  0  0
 41112  1  0  0  0
 41113  1  0  0  0
 41 48  1  0  0  0
 42 43  1  0  0  0
 42 66  1  0  0  0
 42114  1  0  0  0
 42115  1  0  0  0
 43 44  1  0  0  0
 44116  1  0  0  0
 45 46  2  0  0  0
 45117  1  0  0  0
 46118  1  0  0  0
 47119  1  0  0  0
 47120  1  0  0  0
 48 56  1  0  0  0
 48 65  1  0  0  0
 48121  1  0  0  0
 49 50  1  0  0  0
 49 53  1  0  0  0
 49 64  1  0  0  0
 49122  1  0  0  0
 50 51  1  0  0  0
 50123  1  0  0  0
 50124  1  0  0  0
 51 52  1  0  0  0
 51125  1  0  0  0
 51126  1  0  0  0
 52127  1  0  0  0
 52128  1  0  0  0
 53 54  1  0  0  0
 54 55  2  0  0  0
 54129  1  0  0  0
 55 57  1  0  0  0
 55130  1  0  0  0
 56 69  2  0  0  0
 57 58  2  0  0  0
 57131  1  0  0  0
 58132  1  0  0  0
 59 60  1  0  0  0
 59 61  1  0  0  0
 59 62  1  0  0  0
 60133  1  0  0  0
 60134  1  0  0  0
 60135  1  0  0  0
 61136  1  0  0  0
 61137  1  0  0  0
 61138  1  0  0  0
 62139  1  0  0  0
 62140  1  0  0  0
 62141  1  0  0  0
 63 65  1  0  0  0
 63142  1  0  0  0
 63143  1  0  0  0
 63144  1  0  0  0
 64145  1  0  0  0
 65146  1  0  0  0
 68 83  1  0  0  0
 71 72  2  0  0  0
 71 73  1  0  0  0
 71147  1  0  0  0
 72 74  1  0  0  0
 72148  1  0  0  0
 73 75  2  0  0  0
 73 84  1  0  0  0
 74 79  1  0  0  0
 74 86  2  0  0  0
 75 76  1  0  0  0
 75 86  1  0  0  0
 76149  1  0  0  0
 76150  1  0  0  0
 76151  1  0  0  0
 77152  1  0  0  0
 77153  1  0  0  0
 77154  1  0  0  0
 77 85  1  0  0  0
 78 85  1  0  0  0
 78155  1  0  0  0
 78156  1  0  0  0
 78157  1  0  0  0
 79 80  1  0  0  0
 79158  1  0  0  0
 79159  1  0  0  0
 80 82  1  0  0  0
 80160  1  0  0  0
 80161  1  0  0  0
 81 83  1  0  0  0
 81162  1  0  0  0
 81163  1  0  0  0
 81 84  1  0  0  0
 82 87  1  0  0  0
 82164  1  0  0  0
 82165  1  0  0  0
 83166  1  0  0  0
 83167  1  0  0  0
 84 85  1  0  0  0
 84168  1  0  0  0
 85169  1  0  0  0
 87170  1  0  0  0
M  ISO  4   1 100  68 101  83 101  87 100
M  END
> <chiral flag>
0

> <version>
0

> <s_m_source_file>
/data/baiqing/PycharmProjects/Reinvent-master-3.2/result/LINK_invent/BTK/process_docking_weight1_custom_sum_contain_oxygen_bond_distance_aromatic_linkinvent_7_9_3/rearranged_h_0092.sdf

> <i_m_source_file_index>
21

> <r_mmod_Potential_Energy-OPLS-2005>
24261.013671875

> <r_mmod_Stretch_Energy-OPLS-2005>
12742.2900390625

> <r_mmod_Bend_Energy-OPLS-2005>
2269.48388671875

> <r_mmod_Torsional_Energy-OPLS-2005>
773.469299316406

> <r_mmod_Improper_Torsional_Energy-OPLS-2005>
116.961631774902

> <r_mmod_Van_der_Waal_Energy-OPLS-2005>
4671.25830078125

> <r_mmod_Electrostatic_Energy-OPLS-2005>
-475.751525878906

> <r_mmod_Solvation_Energy-OPLS-2005>
-247.956527709961

> <b_mmod_Minimization_Converged-OPLS-2005>
0

> <r_mmod_RMS_Derivative-OPLS-2005>
37.8818130493164

$$$$
22
                    3D
 Structure written by MMmdl.
179187  0  0  1  0            999 V2000
  -30.6157  -14.7695   20.4328 C   0  0  0  0  0  0
  -30.4439  -12.4743   19.4528 C   0  0  0  0  0  0
  -29.5071  -12.4932   18.2257 C   0  0  0  0  0  0
  -28.0391  -12.3166   18.6579 C   0  0  0  0  0  0
  -27.6431  -13.2314   19.8462 C   0  0  2  0  0  0
  -28.7001  -13.1874   20.9709 C   0  0  0  0  0  0
  -25.2528  -13.8186   20.5710 C   0  0  0  0  0  0
  -24.1840  -13.0446   20.9235 C   0  0  0  0  0  0
  -24.6434  -11.6912   20.8781 C   0  0  0  0  0  0
  -23.9108  -10.4295   21.0423 C   0  0  0  0  0  0
  -24.3646   -9.4197   21.9198 C   0  0  0  0  0  0
  -23.6295   -8.2250   22.0766 C   0  0  0  0  0  0
  -22.4285   -8.0306   21.3550 C   0  0  0  0  0  0
  -21.9934   -9.0293   20.4651 C   0  0  0  0  0  0
  -22.7285  -10.2151   20.3062 C   0  0  0  0  0  0
  -21.6857   -6.0748   22.5273 C   0  0  0  0  0  0
  -21.4011   -6.5652   23.8212 C   0  0  0  0  0  0
  -21.3660   -5.6800   24.9175 C   0  0  0  0  0  0
  -21.6049   -4.3066   24.7218 C   0  0  0  0  0  0
  -21.8826   -3.8162   23.4340 C   0  0  0  0  0  0
  -21.9186   -4.6973   22.3402 C   0  0  0  0  0  0
  -22.7846  -13.5201   21.1869 C   0  0  0  0  0  0
  -22.1662   -4.2161   21.0976 F   0  0  0  0  0  0
  -21.5632   -3.4546   25.7731 F   0  0  0  0  0  0
  -29.9913  -13.5459   20.3662 N   0  0  0  0  0  0
  -26.2967  -12.9396   20.3301 N   0  0  0  0  0  0
  -25.9364  -11.6547   20.5800 N   0  0  0  0  0  0
  -22.0500  -12.8204   22.0421 N   0  0  0  0  0  0
  -25.4188  -15.1922   20.4132 N   0  0  0  0  0  0
  -31.8252  -14.8574   20.2018 O   0  0  0  0  0  0
  -21.6656   -6.8903   21.4243 O   0  0  0  0  0  0
  -22.3534  -14.5519   20.6715 O   0  0  0  0  0  0
  -24.6210  -31.8581   23.1950 C   0  0  0  0  0  0
  -25.9042  -32.4797   23.8344 C   0  0  1  0  0  0
  -27.2412  -27.2971   20.1214 C   0  0  0  0  0  0
  -25.5801  -33.8591   24.2252 N   0  0  0  0  0  0
  -23.4228  -30.4707   21.5440 C   0  0  2  0  0  0
  -24.8783  -28.9241   20.1072 C   0  0  0  0  0  0
  -22.7481  -29.4587   22.4974 C   0  0  0  0  0  0
  -18.0248  -28.1435   22.8459 C   0  0  0  0  0  0
  -24.1456  -36.7370   23.2636 C   0  0  0  0  0  0
  -25.9550  -30.7829   21.3716 C   0  0  0  0  0  0
  -26.0354  -29.3989   20.7322 C   0  0  0  0  0  0
  -27.2118  -28.5879   20.7477 C   0  0  0  0  0  0
  -26.0621  -26.8844   19.4648 C   0  0  0  0  0  0
  -24.8945  -27.6784   19.4601 C   0  0  0  0  0  0
  -23.6431  -29.8026   20.1616 C   0  0  0  0  0  0
  -25.4080  -36.3092   24.0303 C   0  0  1  0  0  0
  -20.5852  -28.3773   23.1317 C   0  0  2  0  0  0
  -20.6789  -26.9518   22.5458 C   0  0  0  0  0  0
  -19.5771  -26.6433   21.5265 C   0  0  0  0  0  0
  -18.1914  -26.7959   22.1632 C   0  0  0  0  0  0
  -19.1504  -28.8911   23.2836 C   0  0  0  0  0  0
  -18.9424  -30.1481   23.8902 C   0  0  0  0  0  0
  -17.6440  -30.6639   24.0613 C   0  0  0  0  0  0
  -25.9015  -34.9449   23.5105 C   0  0  0  0  0  0
  -16.5312  -29.9187   23.6328 C   0  0  0  0  0  0
  -16.7224  -28.6590   23.0331 C   0  0  0  0  0  0
  -26.4415  -31.6580   25.0713 C   0  0  0  0  0  0
  -25.3597  -31.3768   26.1411 C   0  0  0  0  0  0
  -27.0290  -30.2974   24.6184 C   0  0  0  0  0  0
  -27.5971  -32.4336   25.7491 C   0  0  0  0  0  0
  -27.5575  -37.1796   24.8431 C   0  0  0  0  0  0
  -21.4201  -29.3080   22.3710 N   0  0  0  0  0  0
  -26.4271  -37.3781   23.9386 N   0  0  0  0  0  0
  -24.6874  -31.0521   22.0964 N   0  0  0  0  0  0
  -23.4151  -28.8174   23.3142 O   0  0  0  0  0  0
  -28.3714  -26.4606   20.2195 O   0  0  0  0  0  0
  -26.5691  -34.8933   22.4736 O   0  0  0  0  0  0
  -23.5351  -32.1448   23.7183 O   0  0  0  0  0  0
  -29.5165  -19.9155   20.6502 C   0  0  0  0  0  0
  -30.1451  -20.9946   18.6108 C   0  0  0  0  0  0
  -29.5816  -21.1541   19.8893 C   0  0  0  0  0  0
  -29.9619  -18.6401   20.1168 C   0  0  0  0  0  0
  -30.6073  -19.7361   18.1427 C   0  0  0  0  0  0
  -27.4685  -23.0442   17.5101 C   0  0  0  0  0  0
  -33.2579  -21.2837   17.4620 C   0  0  0  0  0  0
  -29.3106  -18.2478   15.7668 C   0  0  0  0  0  0
  -29.4359  -22.6606   21.9741 C   0  0  0  0  0  0
  -32.3352  -18.4264   16.7646 C   0  0  0  0  0  0
  -30.1786  -17.3235   20.9958 C   0  0  0  0  0  0
  -27.1470  -23.0256   19.0197 C   0  0  0  0  0  0
  -32.1725  -20.8923   16.4368 C   0  0  0  0  0  0
  -30.3089  -19.4126   15.6140 C   0  0  0  0  0  0
  -28.5606  -25.2028   19.4480 C   0  0  0  0  0  0
  -29.3677  -22.6552   20.4364 C   0  0  2  0  0  0
  -28.1923  -23.6938   19.9509 C   0  0  2  0  0  0
  -31.3319  -19.6138   16.7706 C   0  0  0  0  0  0
  -30.4608  -18.5885   18.8624 N   0  0  0  0  0  0
  -29.8286  -15.8971   20.5755 N   0  0  0  0  0  0
  -31.4797  -12.6177   19.1390 H   0  0  0  0  0  0
  -30.4131  -11.5082   19.9589 H   0  0  0  0  0  0
  -29.7869  -11.7031   17.5295 H   0  0  0  0  0  0
  -29.6199  -13.4329   17.6846 H   0  0  0  0  0  0
  -27.9128  -11.2717   18.9471 H   0  0  0  0  0  0
  -27.3696  -12.4777   17.8135 H   0  0  0  0  0  0
  -27.6277  -14.2453   19.4455 H   0  0  0  0  0  0
  -28.7513  -12.1976   21.4264 H   0  0  0  0  0  0
  -28.4415  -13.8804   21.7720 H   0  0  0  0  0  0
  -25.2777   -9.5675   22.4790 H   0  0  0  0  0  0
  -23.9993   -7.4647   22.7490 H   0  0  0  0  0  0
  -21.0868   -8.8838   19.8961 H   0  0  0  0  0  0
  -22.3755  -10.9714   19.6194 H   0  0  0  0  0  0
  -21.2021   -7.6168   23.9714 H   0  0  0  0  0  0
  -21.1474   -6.0537   25.9071 H   0  0  0  0  0  0
  -22.0607   -2.7618   23.2842 H   0  0  0  0  0  0
  -22.4126  -11.9845   22.4779 H   0  0  0  0  0  0
  -21.1124  -13.1238   22.2658 H   0  0  0  0  0  0
  -24.6411  -15.8352   20.5158 H   0  0  0  0  0  0
  -26.2556  -15.6394   20.0643 H   0  0  0  0  0  0
  -26.7176  -32.5491   23.1157 H   0  0  0  0  0  0
  -24.9696  -33.9749   25.0223 H   0  0  0  0  0  0
  -22.7114  -31.2866   21.3957 H   0  0  0  0  0  0
  -23.3704  -35.9733   23.3271 H   0  0  0  0  0  0
  -24.3547  -36.9051   22.2080 H   0  0  0  0  0  0
  -23.7252  -37.6550   23.6738 H   0  0  0  0  0  0
  -26.0567  -31.5300   20.5831 H   0  0  0  0  0  0
  -26.8443  -30.8675   21.9822 H   0  0  0  0  0  0
  -28.0898  -28.9323   21.2757 H   0  0  0  0  0  0
  -26.0184  -25.9273   18.9688 H   0  0  0  0  0  0
  -24.0086  -27.3201   18.9578 H   0  0  0  0  0  0
  -23.7576  -30.5762   19.4009 H   0  0  0  0  0  0
  -22.7658  -29.2259   19.8656 H   0  0  0  0  0  0
  -25.1238  -36.1978   25.0801 H   0  0  0  0  0  0
  -20.9808  -28.3426   24.1501 H   0  0  0  0  0  0
  -20.5804  -26.2406   23.3665 H   0  0  0  0  0  0
  -21.6647  -26.7682   22.1193 H   0  0  0  0  0  0
  -19.6982  -25.6342   21.1319 H   0  0  0  0  0  0
  -19.6698  -27.3256   20.6801 H   0  0  0  0  0  0
  -17.4200  -26.6681   21.4018 H   0  0  0  0  0  0
  -18.0280  -26.0118   22.9049 H   0  0  0  0  0  0
  -19.7907  -30.7254   24.2319 H   0  0  0  0  0  0
  -17.5032  -31.6297   24.5260 H   0  0  0  0  0  0
  -15.5319  -30.3136   23.7641 H   0  0  0  0  0  0
  -15.8600  -28.0948   22.7076 H   0  0  0  0  0  0
  -24.5718  -30.7178   25.7731 H   0  0  0  0  0  0
  -24.8809  -32.2960   26.4808 H   0  0  0  0  0  0
  -25.7804  -30.8936   27.0234 H   0  0  0  0  0  0
  -26.2910  -29.6665   24.1177 H   0  0  0  0  0  0
  -27.3985  -29.7246   25.4710 H   0  0  0  0  0  0
  -27.8764  -30.4267   23.9442 H   0  0  0  0  0  0
  -27.2584  -33.3662   26.2051 H   0  0  0  0  0  0
  -28.3778  -32.6854   25.0299 H   0  0  0  0  0  0
  -28.0654  -31.8469   26.5396 H   0  0  0  0  0  0
  -28.2519  -38.0165   24.7508 H   0  0  0  0  0  0
  -28.1112  -36.2655   24.6194 H   0  0  0  0  0  0
  -27.2257  -37.1385   25.8821 H   0  0  0  0  0  0
  -20.9445  -29.8789   21.6865 H   0  0  0  0  0  0
  -26.0138  -38.2832   24.1472 H   0  0  0  0  0  0
  -29.2067  -19.9388   21.6861 H   0  0  0  0  0  0
  -30.3074  -21.8830   18.0216 H   0  0  0  0  0  0
  -28.5179  -22.8522   17.2993 H   0  0  0  0  0  0
  -27.2226  -24.0024   17.0518 H   0  0  0  0  0  0
  -26.8888  -22.2963   16.9668 H   0  0  0  0  0  0
  -33.7591  -22.2053   17.1634 H   0  0  0  0  0  0
  -34.0272  -20.5156   17.5444 H   0  0  0  0  0  0
  -32.8425  -21.4473   18.4560 H   0  0  0  0  0  0
  -28.6247  -18.2171   14.9204 H   0  0  0  0  0  0
  -28.7061  -18.3543   16.6676 H   0  0  0  0  0  0
  -29.8160  -17.2820   15.8127 H   0  0  0  0  0  0
  -30.3413  -22.1613   22.3183 H   0  0  0  0  0  0
  -28.5752  -22.1484   22.4093 H   0  0  0  0  0  0
  -29.4449  -23.6771   22.3690 H   0  0  0  0  0  0
  -33.0246  -18.4749   17.6078 H   0  0  0  0  0  0
  -32.9333  -18.4076   15.8528 H   0  0  0  0  0  0
  -31.8328  -17.4622   16.8302 H   0  0  0  0  0  0
  -29.6156  -17.4908   21.9153 H   0  0  0  0  0  0
  -31.2231  -17.3321   21.3119 H   0  0  0  0  0  0
  -26.9866  -21.9974   19.3514 H   0  0  0  0  0  0
  -26.1839  -23.5204   19.1688 H   0  0  0  0  0  0
  -32.6614  -20.7678   15.4699 H   0  0  0  0  0  0
  -31.5134  -21.7484   16.2901 H   0  0  0  0  0  0
  -29.7274  -20.3284   15.5011 H   0  0  0  0  0  0
  -30.8438  -19.2887   14.6707 H   0  0  0  0  0  0
  -28.1168  -25.3988   18.4759 H   0  0  0  0  0  0
  -29.6252  -25.1872   19.2176 H   0  0  0  0  0  0
  -30.2920  -23.1527   20.1329 H   0  0  0  0  0  0
  -27.6099  -23.8808   20.8534 H   0  0  0  0  0  0
  -28.8413  -15.7062   20.6121 H   0  0  0  0  0  0
  1 25  1  0  0  0
  1 30  2  0  0  0
  1 90  1  0  0  0
  2  3  1  0  0  0
  2 25  1  0  0  0
  2 91  1  0  0  0
  2 92  1  0  0  0
  3  4  1  0  0  0
  3 93  1  0  0  0
  3 94  1  0  0  0
  4  5  1  0  0  0
  4 95  1  0  0  0
  4 96  1  0  0  0
  5  6  1  0  0  0
  5 26  1  0  0  0
  5 97  1  0  0  0
  6 25  1  0  0  0
  6 98  1  0  0  0
  6 99  1  0  0  0
  7  8  2  0  0  0
  7 26  1  0  0  0
  7 29  1  0  0  0
  8  9  1  0  0  0
  8 22  1  0  0  0
  9 10  1  0  0  0
  9 27  2  0  0  0
 10 11  2  0  0  0
 10 15  1  0  0  0
 11 12  1  0  0  0
 11100  1  0  0  0
 12 13  2  0  0  0
 12101  1  0  0  0
 13 14  1  0  0  0
 13 31  1  0  0  0
 14 15  2  0  0  0
 14102  1  0  0  0
 15103  1  0  0  0
 16 17  2  0  0  0
 16 21  1  0  0  0
 16 31  1  0  0  0
 17 18  1  0  0  0
 17104  1  0  0  0
 18 19  2  0  0  0
 18105  1  0  0  0
 19 20  1  0  0  0
 19 24  1  0  0  0
 20 21  2  0  0  0
 20106  1  0  0  0
 21 23  1  0  0  0
 22 28  1  0  0  0
 22 32  2  0  0  0
 26 27  1  0  0  0
 28107  1  0  0  0
 28108  1  0  0  0
 29109  1  0  0  0
 29110  1  0  0  0
 33 34  1  0  0  0
 33 66  1  0  0  0
 33 70  2  0  0  0
 34 36  1  0  0  0
 34 59  1  0  0  0
 34111  1  0  0  0
 35 44  2  0  0  0
 35 45  1  0  0  0
 35 68  1  0  0  0
 36 56  1  0  0  0
 36112  1  0  0  0
 37 39  1  0  0  0
 37 47  1  0  0  0
 37 66  1  0  0  0
 37113  1  0  0  0
 38 43  2  0  0  0
 38 46  1  0  0  0
 38 47  1  0  0  0
 39 64  1  0  0  0
 39 67  2  0  0  0
 40 52  1  0  0  0
 40 53  2  0  0  0
 40 58  1  0  0  0
 41114  1  0  0  0
 41115  1  0  0  0
 41116  1  0  0  0
 41 48  1  0  0  0
 42 43  1  0  0  0
 42 66  1  0  0  0
 42117  1  0  0  0
 42118  1  0  0  0
 43 44  1  0  0  0
 44119  1  0  0  0
 45 46  2  0  0  0
 45120  1  0  0  0
 46121  1  0  0  0
 47122  1  0  0  0
 47123  1  0  0  0
 48 56  1  0  0  0
 48 65  1  0  0  0
 48124  1  0  0  0
 49 50  1  0  0  0
 49 53  1  0  0  0
 49 64  1  0  0  0
 49125  1  0  0  0
 50 51  1  0  0  0
 50126  1  0  0  0
 50127  1  0  0  0
 51 52  1  0  0  0
 51128  1  0  0  0
 51129  1  0  0  0
 52130  1  0  0  0
 52131  1  0  0  0
 53 54  1  0  0  0
 54 55  2  0  0  0
 54132  1  0  0  0
 55 57  1  0  0  0
 55133  1  0  0  0
 56 69  2  0  0  0
 57 58  2  0  0  0
 57134  1  0  0  0
 58135  1  0  0  0
 59 60  1  0  0  0
 59 61  1  0  0  0
 59 62  1  0  0  0
 60136  1  0  0  0
 60137  1  0  0  0
 60138  1  0  0  0
 61139  1  0  0  0
 61140  1  0  0  0
 61141  1  0  0  0
 62142  1  0  0  0
 62143  1  0  0  0
 62144  1  0  0  0
 63 65  1  0  0  0
 63145  1  0  0  0
 63146  1  0  0  0
 63147  1  0  0  0
 64148  1  0  0  0
 65149  1  0  0  0
 68 85  1  0  0  0
 71 73  2  0  0  0
 71 74  1  0  0  0
 71150  1  0  0  0
 72 73  1  0  0  0
 72 75  2  0  0  0
 72151  1  0  0  0
 73 86  1  0  0  0
 74 81  1  0  0  0
 74 89  2  0  0  0
 75 88  1  0  0  0
 75 89  1  0  0  0
 76 82  1  0  0  0
 76152  1  0  0  0
 76153  1  0  0  0
 76154  1  0  0  0
 77 83  1  0  0  0
 77155  1  0  0  0
 77156  1  0  0  0
 77157  1  0  0  0
 78 84  1  0  0  0
 78158  1  0  0  0
 78159  1  0  0  0
 78160  1  0  0  0
 79161  1  0  0  0
 79162  1  0  0  0
 79163  1  0  0  0
 79 86  1  0  0  0
 80164  1  0  0  0
 80165  1  0  0  0
 80166  1  0  0  0
 80 88  1  0  0  0
 81 90  1  0  0  0
 81167  1  0  0  0
 81168  1  0  0  0
 82169  1  0  0  0
 82170  1  0  0  0
 82 87  1  0  0  0
 83 88  1  0  0  0
 83171  1  0  0  0
 83172  1  0  0  0
 84 88  1  0  0  0
 84173  1  0  0  0
 84174  1  0  0  0
 85 87  1  0  0  0
 85175  1  0  0  0
 85176  1  0  0  0
 86 87  1  0  0  0
 86177  1  0  0  0
 87178  1  0  0  0
 90179  1  0  0  0
M  ISO  4   1 100  68 101  85 101  90 100
M  END
> <chiral flag>
0

> <version>
0

> <s_m_source_file>
/data/baiqing/PycharmProjects/Reinvent-master-3.2/result/LINK_invent/BTK/process_docking_weight1_custom_sum_contain_oxygen_bond_distance_aromatic_linkinvent_7_9_3/rearranged_h_0092.sdf

> <i_m_source_file_index>
22

> <r_mmod_Potential_Energy-OPLS-2005>
17.0407695770264

> <r_mmod_Stretch_Energy-OPLS-2005>
132.809310913086

> <r_mmod_Bend_Energy-OPLS-2005>
223.339370727539

> <r_mmod_Torsional_Energy-OPLS-2005>
249.288146972656

> <r_mmod_Improper_Torsional_Energy-OPLS-2005>
7.97654581069946

> <r_mmod_Van_der_Waal_Energy-OPLS-2005>
143.803573608398

> <r_mmod_Electrostatic_Energy-OPLS-2005>
-617.659606933594

> <r_mmod_Solvation_Energy-OPLS-2005>
-208.319946289062

> <b_mmod_Minimization_Converged-OPLS-2005>
0

> <r_mmod_RMS_Derivative-OPLS-2005>
5.41256332397461

$$$$
23
                    3D
 Structure written by MMmdl.
158166  0  0  1  0            999 V2000
  -30.7114  -14.4339   20.7237 C   0  0  0  0  0  0
  -30.4228  -12.3185   19.4327 C   0  0  0  0  0  0
  -29.4958  -12.5187   18.2138 C   0  0  0  0  0  0
  -28.0261  -12.3224   18.6225 C   0  0  0  0  0  0
  -27.6541  -13.1790   19.8610 C   0  0  2  0  0  0
  -28.6783  -12.9617   20.9959 C   0  0  0  0  0  0
  -25.2621  -13.8094   20.5597 C   0  0  0  0  0  0
  -24.1850  -13.0386   20.9185 C   0  0  0  0  0  0
  -24.6388  -11.6854   20.8730 C   0  0  0  0  0  0
  -23.9011  -10.4274   21.0435 C   0  0  0  0  0  0
  -24.3571   -9.4200   21.9193 C   0  0  0  0  0  0
  -23.6289   -8.2209   22.0706 C   0  0  0  0  0  0
  -22.4274   -8.0261   21.3525 C   0  0  0  0  0  0
  -21.9911   -9.0218   20.4602 C   0  0  0  0  0  0
  -22.7191  -10.2144   20.3075 C   0  0  0  0  0  0
  -21.6823   -6.0781   22.5316 C   0  0  0  0  0  0
  -21.3971   -6.5681   23.8262 C   0  0  0  0  0  0
  -21.3642   -5.6834   24.9222 C   0  0  0  0  0  0
  -21.6054   -4.3101   24.7277 C   0  0  0  0  0  0
  -21.8776   -3.8189   23.4383 C   0  0  0  0  0  0
  -21.9170   -4.7004   22.3450 C   0  0  0  0  0  0
  -22.7934  -13.5261   21.1881 C   0  0  0  0  0  0
  -22.1662   -4.2208   21.1025 F   0  0  0  0  0  0
  -21.5646   -3.4567   25.7786 F   0  0  0  0  0  0
  -30.0248  -13.2800   20.4793 N   0  0  0  0  0  0
  -26.2959  -12.9181   20.3216 N   0  0  0  0  0  0
  -25.9264  -11.6365   20.5651 N   0  0  0  0  0  0
  -22.0604  -12.8220   22.0465 N   0  0  0  0  0  0
  -25.4303  -15.1776   20.3909 N   0  0  0  0  0  0
  -31.7490  -14.7339   20.1264 O   0  0  0  0  0  0
  -21.6607   -6.8877   21.4268 O   0  0  0  0  0  0
  -22.3601  -14.5546   20.6729 O   0  0  0  0  0  0
  -24.5984  -31.8754   23.2111 C   0  0  0  0  0  0
  -25.8879  -32.4905   23.8408 C   0  0  1  0  0  0
  -27.2862  -27.4559   20.1529 C   0  0  0  0  0  0
  -25.5744  -33.8698   24.2410 N   0  0  0  0  0  0
  -23.3951  -30.4932   21.5465 C   0  0  2  0  0  0
  -24.8619  -28.9379   20.1455 C   0  0  0  0  0  0
  -22.7275  -29.4761   22.5024 C   0  0  0  0  0  0
  -18.0250  -28.1369   22.8566 C   0  0  0  0  0  0
  -24.1459  -36.7322   23.2685 C   0  0  0  0  0  0
  -25.9169  -30.8484   21.3587 C   0  0  0  0  0  0
  -26.0160  -29.4755   20.7301 C   0  0  0  0  0  0
  -27.2226  -28.7417   20.7374 C   0  0  0  0  0  0
  -26.1156  -26.9199   19.5740 C   0  0  0  0  0  0
  -24.9050  -27.6469   19.5788 C   0  0  0  0  0  0
  -23.6169  -29.8023   20.1742 C   0  0  0  0  0  0
  -25.4085  -36.3224   24.0424 C   0  0  1  0  0  0
  -20.5832  -28.3661   23.1400 C   0  0  2  0  0  0
  -20.6702  -26.9350   22.5516 C   0  0  0  0  0  0
  -19.5666  -26.6267   21.5337 C   0  0  0  0  0  0
  -18.1830  -26.7909   22.1698 C   0  0  0  0  0  0
  -19.1492  -28.8837   23.2974 C   0  0  0  0  0  0
  -18.9417  -30.1534   23.8792 C   0  0  0  0  0  0
  -17.6442  -30.6706   24.0418 C   0  0  0  0  0  0
  -25.9003  -34.9570   23.5258 C   0  0  0  0  0  0
  -16.5309  -29.9170   23.6347 C   0  0  0  0  0  0
  -16.7248  -28.6522   23.0479 C   0  0  0  0  0  0
  -26.4305  -31.6656   25.0696 C   0  0  0  0  0  0
  -25.3602  -31.3670   26.1481 C   0  0  0  0  0  0
  -27.0120  -30.3131   24.5981 C   0  0  0  0  0  0
  -27.5969  -32.4310   25.7382 C   0  0  0  0  0  0
  -27.5615  -37.1832   24.8515 C   0  0  0  0  0  0
  -21.4004  -29.3088   22.3768 N   0  0  0  0  0  0
  -26.4333  -37.3843   23.9458 N   0  0  0  0  0  0
  -24.6555  -31.0877   22.0971 N   0  0  0  0  0  0
  -23.4092  -28.8412   23.3142 O   0  0  0  0  0  0
  -28.4836  -26.7678   20.0820 O   0  0  0  0  0  0
  -26.5594  -34.9014   22.4835 O   0  0  0  0  0  0
  -23.5189  -32.1498   23.7539 O   0  0  0  0  0  0
  -28.8628  -19.2056   20.4230 C   0  0  0  0  0  0
  -29.3004  -17.9225   20.8199 C   0  0  0  0  0  0
  -29.3986  -20.3780   21.0101 C   0  0  0  0  0  0
  -30.2838  -17.8068   21.8125 C   0  0  0  0  0  0
  -30.4213  -20.1675   21.9871 C   0  0  0  0  0  0
  -31.2029  -21.2987   22.6383 C   0  0  0  0  0  0
  -28.9185  -21.7341   20.4000 C   0  0  0  0  0  0
  -30.7559  -16.4207   22.3281 C   0  0  0  0  0  0
  -28.7475  -23.0409   21.2505 C   0  0  0  0  0  0
  -28.7348  -24.3286   20.3479 C   0  0  0  0  0  0
  -28.7183  -25.7230   21.0485 C   0  0  0  0  0  0
  -30.8244  -18.9172   22.3758 N   0  0  0  0  0  0
  -30.1907  -15.2116   21.6943 N   0  0  0  0  0  0
  -30.3323  -11.2994   19.8135 H   0  0  0  0  0  0
  -31.4699  -12.4262   19.1487 H   0  0  0  0  0  0
  -29.7709  -11.8311   17.4130 H   0  0  0  0  0  0
  -29.6250  -13.5277   17.8166 H   0  0  0  0  0  0
  -27.8865  -11.2614   18.8415 H   0  0  0  0  0  0
  -27.3675  -12.5485   17.7870 H   0  0  0  0  0  0
  -27.7005  -14.2203   19.5533 H   0  0  0  0  0  0
  -28.3845  -13.5546   21.8601 H   0  0  0  0  0  0
  -28.6537  -11.9267   21.3398 H   0  0  0  0  0  0
  -25.2700   -9.5712   22.4779 H   0  0  0  0  0  0
  -24.0031   -7.4572   22.7387 H   0  0  0  0  0  0
  -21.0860   -8.8704   19.8861 H   0  0  0  0  0  0
  -22.3594  -10.9690   19.6205 H   0  0  0  0  0  0
  -21.1924   -7.6188   23.9823 H   0  0  0  0  0  0
  -21.1503   -6.0545   25.9146 H   0  0  0  0  0  0
  -22.0546   -2.7650   23.2886 H   0  0  0  0  0  0
  -22.4225  -11.9836   22.4764 H   0  0  0  0  0  0
  -21.1235  -13.1186   22.2746 H   0  0  0  0  0  0
  -24.6217  -15.7879   20.3523 H   0  0  0  0  0  0
  -26.2665  -15.5991   19.9965 H   0  0  0  0  0  0
  -26.6946  -32.5646   23.1205 H   0  0  0  0  0  0
  -24.9703  -33.9779   25.0427 H   0  0  0  0  0  0
  -22.6848  -31.3097   21.3876 H   0  0  0  0  0  0
  -23.3772  -35.9601   23.3381 H   0  0  0  0  0  0
  -24.3639  -36.8821   22.2108 H   0  0  0  0  0  0
  -23.7074  -37.6516   23.6584 H   0  0  0  0  0  0
  -26.0047  -31.6008   20.5767 H   0  0  0  0  0  0
  -26.8149  -30.9361   21.9583 H   0  0  0  0  0  0
  -28.1031  -29.1688   21.1926 H   0  0  0  0  0  0
  -26.1430  -25.9397   19.1254 H   0  0  0  0  0  0
  -24.0137  -27.1941   19.1655 H   0  0  0  0  0  0
  -23.7213  -30.5660   19.4008 H   0  0  0  0  0  0
  -22.7396  -29.2162   19.8888 H   0  0  0  0  0  0
  -25.1245  -36.2185   25.0901 H   0  0  0  0  0  0
  -20.9871  -28.3193   24.1543 H   0  0  0  0  0  0
  -20.5618  -26.2221   23.3722 H   0  0  0  0  0  0
  -21.6487  -26.7389   22.1235 H   0  0  0  0  0  0
  -19.6827  -25.6134   21.1483 H   0  0  0  0  0  0
  -19.6624  -27.2973   20.6805 H   0  0  0  0  0  0
  -17.4105  -26.6646   21.4119 H   0  0  0  0  0  0
  -18.0263  -26.0152   22.9256 H   0  0  0  0  0  0
  -19.7924  -30.7467   24.1925 H   0  0  0  0  0  0
  -17.5019  -31.6565   24.4668 H   0  0  0  0  0  0
  -15.5332  -30.3055   23.7765 H   0  0  0  0  0  0
  -15.8597  -28.0885   22.7250 H   0  0  0  0  0  0
  -24.5813  -30.6947   25.7853 H   0  0  0  0  0  0
  -24.8683  -32.2737   26.5024 H   0  0  0  0  0  0
  -25.8013  -30.8825   27.0196 H   0  0  0  0  0  0
  -26.2620  -29.6940   24.1019 H   0  0  0  0  0  0
  -27.3925  -29.7348   25.4420 H   0  0  0  0  0  0
  -27.8457  -30.4586   23.9098 H   0  0  0  0  0  0
  -27.2703  -33.3627   26.2026 H   0  0  0  0  0  0
  -28.3674  -32.6802   25.0075 H   0  0  0  0  0  0
  -28.0710  -31.8323   26.5169 H   0  0  0  0  0  0
  -28.2718  -38.0071   24.7579 H   0  0  0  0  0  0
  -28.1018  -36.2612   24.6313 H   0  0  0  0  0  0
  -27.2380  -37.1494   25.8939 H   0  0  0  0  0  0
  -20.9032  -29.8749   21.7026 H   0  0  0  0  0  0
  -26.0294  -38.2974   24.1318 H   0  0  0  0  0  0
  -28.1373  -19.2971   19.6309 H   0  0  0  0  0  0
  -28.8836  -17.0374   20.3640 H   0  0  0  0  0  0
  -30.5875  -21.8228   23.3720 H   0  0  0  0  0  0
  -31.5661  -22.0186   21.9011 H   0  0  0  0  0  0
  -32.0826  -20.9301   23.1689 H   0  0  0  0  0  0
  -27.9488  -21.5743   19.9072 H   0  0  0  0  0  0
  -29.6040  -21.9311   19.5732 H   0  0  0  0  0  0
  -31.8447  -16.3619   22.3263 H   0  0  0  0  0  0
  -30.4752  -16.3483   23.3819 H   0  0  0  0  0  0
  -29.5636  -23.1572   21.9545 H   0  0  0  0  0  0
  -27.8329  -22.9931   21.8567 H   0  0  0  0  0  0
  -29.6024  -24.2907   19.6823 H   0  0  0  0  0  0
  -27.8794  -24.3029   19.6680 H   0  0  0  0  0  0
  -29.7060  -25.8998   21.4922 H   0  0  0  0  0  0
  -28.0007  -25.7786   21.8742 H   0  0  0  0  0  0
  -29.3649  -14.8361   22.1394 H   0  0  0  0  0  0
  1 25  1  0  0  0
  1 30  2  0  0  0
  1 83  1  0  0  0
  2  3  1  0  0  0
  2 25  1  0  0  0
  2 84  1  0  0  0
  2 85  1  0  0  0
  3  4  1  0  0  0
  3 86  1  0  0  0
  3 87  1  0  0  0
  4  5  1  0  0  0
  4 88  1  0  0  0
  4 89  1  0  0  0
  5  6  1  0  0  0
  5 26  1  0  0  0
  5 90  1  0  0  0
  6 25  1  0  0  0
  6 91  1  0  0  0
  6 92  1  0  0  0
  7  8  2  0  0  0
  7 26  1  0  0  0
  7 29  1  0  0  0
  8  9  1  0  0  0
  8 22  1  0  0  0
  9 10  1  0  0  0
  9 27  2  0  0  0
 10 11  2  0  0  0
 10 15  1  0  0  0
 11 12  1  0  0  0
 11 93  1  0  0  0
 12 13  2  0  0  0
 12 94  1  0  0  0
 13 14  1  0  0  0
 13 31  1  0  0  0
 14 15  2  0  0  0
 14 95  1  0  0  0
 15 96  1  0  0  0
 16 17  2  0  0  0
 16 21  1  0  0  0
 16 31  1  0  0  0
 17 18  1  0  0  0
 17 97  1  0  0  0
 18 19  2  0  0  0
 18 98  1  0  0  0
 19 20  1  0  0  0
 19 24  1  0  0  0
 20 21  2  0  0  0
 20 99  1  0  0  0
 21 23  1  0  0  0
 22 28  1  0  0  0
 22 32  2  0  0  0
 26 27  1  0  0  0
 28100  1  0  0  0
 28101  1  0  0  0
 29102  1  0  0  0
 29103  1  0  0  0
 33 34  1  0  0  0
 33 66  1  0  0  0
 33 70  2  0  0  0
 34 36  1  0  0  0
 34 59  1  0  0  0
 34104  1  0  0  0
 35 44  2  0  0  0
 35 45  1  0  0  0
 35 68  1  0  0  0
 36 56  1  0  0  0
 36105  1  0  0  0
 37 39  1  0  0  0
 37 47  1  0  0  0
 37 66  1  0  0  0
 37106  1  0  0  0
 38 43  2  0  0  0
 38 46  1  0  0  0
 38 47  1  0  0  0
 39 64  1  0  0  0
 39 67  2  0  0  0
 40 52  1  0  0  0
 40 53  2  0  0  0
 40 58  1  0  0  0
 41107  1  0  0  0
 41108  1  0  0  0
 41109  1  0  0  0
 41 48  1  0  0  0
 42 43  1  0  0  0
 42 66  1  0  0  0
 42110  1  0  0  0
 42111  1  0  0  0
 43 44  1  0  0  0
 44112  1  0  0  0
 45 46  2  0  0  0
 45113  1  0  0  0
 46114  1  0  0  0
 47115  1  0  0  0
 47116  1  0  0  0
 48 56  1  0  0  0
 48 65  1  0  0  0
 48117  1  0  0  0
 49 50  1  0  0  0
 49 53  1  0  0  0
 49 64  1  0  0  0
 49118  1  0  0  0
 50 51  1  0  0  0
 50119  1  0  0  0
 50120  1  0  0  0
 51 52  1  0  0  0
 51121  1  0  0  0
 51122  1  0  0  0
 52123  1  0  0  0
 52124  1  0  0  0
 53 54  1  0  0  0
 54 55  2  0  0  0
 54125  1  0  0  0
 55 57  1  0  0  0
 55126  1  0  0  0
 56 69  2  0  0  0
 57 58  2  0  0  0
 57127  1  0  0  0
 58128  1  0  0  0
 59 60  1  0  0  0
 59 61  1  0  0  0
 59 62  1  0  0  0
 60129  1  0  0  0
 60130  1  0  0  0
 60131  1  0  0  0
 61132  1  0  0  0
 61133  1  0  0  0
 61134  1  0  0  0
 62135  1  0  0  0
 62136  1  0  0  0
 62137  1  0  0  0
 63 65  1  0  0  0
 63138  1  0  0  0
 63139  1  0  0  0
 63140  1  0  0  0
 64141  1  0  0  0
 65142  1  0  0  0
 68 81  1  0  0  0
 71 72  2  0  0  0
 71 73  1  0  0  0
 71143  1  0  0  0
 72 74  1  0  0  0
 72144  1  0  0  0
 73 75  2  0  0  0
 73 77  1  0  0  0
 74 78  1  0  0  0
 74 82  2  0  0  0
 75 76  1  0  0  0
 75 82  1  0  0  0
 76145  1  0  0  0
 76146  1  0  0  0
 76147  1  0  0  0
 77 79  1  0  0  0
 77148  1  0  0  0
 77149  1  0  0  0
 78 83  1  0  0  0
 78150  1  0  0  0
 78151  1  0  0  0
 79 80  1  0  0  0
 79152  1  0  0  0
 79153  1  0  0  0
 80 81  1  0  0  0
 80154  1  0  0  0
 80155  1  0  0  0
 81156  1  0  0  0
 81157  1  0  0  0
 83158  1  0  0  0
M  ISO  4   1 100  68 101  81 101  83 100
M  END
> <chiral flag>
0

> <version>
0

> <s_m_source_file>
/data/baiqing/PycharmProjects/Reinvent-master-3.2/result/LINK_invent/BTK/process_docking_weight1_custom_sum_contain_oxygen_bond_distance_aromatic_linkinvent_7_9_3/rearranged_h_0092.sdf

> <i_m_source_file_index>
23

> <r_mmod_Potential_Energy-OPLS-2005>
-306.104278564453

> <r_mmod_Stretch_Energy-OPLS-2005>
50.8141937255859

> <r_mmod_Bend_Energy-OPLS-2005>
124.125770568848

> <r_mmod_Torsional_Energy-OPLS-2005>
216.457107543945

> <r_mmod_Improper_Torsional_Energy-OPLS-2005>
3.86956524848938

> <r_mmod_Van_der_Waal_Energy-OPLS-2005>
147.132232666016

> <r_mmod_Electrostatic_Energy-OPLS-2005>
-639.416381835938

> <r_mmod_Solvation_Energy-OPLS-2005>
-222.634567260742

> <b_mmod_Minimization_Converged-OPLS-2005>
0

> <r_mmod_RMS_Derivative-OPLS-2005>
11.3433456420898

$$$$
24
                    3D
 Structure written by MMmdl.
160168  0  0  1  0            999 V2000
  -30.6476  -14.5362   20.5271 C   0  0  0  0  0  0
  -30.4435  -12.3448   19.4050 C   0  0  0  0  0  0
  -29.4949  -12.4998   18.1972 C   0  0  0  0  0  0
  -28.0195  -12.3544   18.6250 C   0  0  0  0  0  0
  -27.6628  -13.2010   19.8761 C   0  0  2  0  0  0
  -28.7148  -12.9830   20.9880 C   0  0  0  0  0  0
  -25.2612  -13.8136   20.5714 C   0  0  0  0  0  0
  -24.1840  -13.0435   20.9194 C   0  0  0  0  0  0
  -24.6366  -11.6894   20.8774 C   0  0  0  0  0  0
  -23.9009  -10.4292   21.0448 C   0  0  0  0  0  0
  -24.3558   -9.4206   21.9230 C   0  0  0  0  0  0
  -23.6247   -8.2235   22.0778 C   0  0  0  0  0  0
  -22.4251   -8.0262   21.3544 C   0  0  0  0  0  0
  -21.9870   -9.0240   20.4663 C   0  0  0  0  0  0
  -22.7184  -10.2131   20.3097 C   0  0  0  0  0  0
  -21.6836   -6.0709   22.5280 C   0  0  0  0  0  0
  -21.3993   -6.5621   23.8206 C   0  0  0  0  0  0
  -21.3666   -5.6783   24.9173 C   0  0  0  0  0  0
  -21.6055   -4.3046   24.7237 C   0  0  0  0  0  0
  -21.8814   -3.8128   23.4362 C   0  0  0  0  0  0
  -21.9190   -4.6939   22.3411 C   0  0  0  0  0  0
  -22.7861  -13.5286   21.1803 C   0  0  0  0  0  0
  -22.1664   -4.2123   21.0988 F   0  0  0  0  0  0
  -21.5641   -3.4532   25.7747 F   0  0  0  0  0  0
  -30.0345  -13.3246   20.4236 N   0  0  0  0  0  0
  -26.3030  -12.9285   20.3379 N   0  0  0  0  0  0
  -25.9296  -11.6451   20.5785 N   0  0  0  0  0  0
  -22.0402  -12.8358   22.0335 N   0  0  0  0  0  0
  -25.4338  -15.1849   20.4154 N   0  0  0  0  0  0
  -31.7877  -14.7529   20.1059 O   0  0  0  0  0  0
  -21.6628   -6.8853   21.4238 O   0  0  0  0  0  0
  -22.3587  -14.5586   20.6605 O   0  0  0  0  0  0
  -24.6166  -31.8641   23.2049 C   0  0  0  0  0  0
  -25.9039  -32.4820   23.8354 C   0  0  1  0  0  0
  -27.2334  -27.3819   20.0920 C   0  0  0  0  0  0
  -25.5882  -33.8619   24.2287 N   0  0  0  0  0  0
  -23.4076  -30.4851   21.5493 C   0  0  2  0  0  0
  -24.8531  -28.9431   20.1124 C   0  0  0  0  0  0
  -22.7422  -29.4611   22.4997 C   0  0  0  0  0  0
  -18.0270  -28.1385   22.8463 C   0  0  0  0  0  0
  -24.1469  -36.7323   23.2642 C   0  0  0  0  0  0
  -25.9396  -30.8118   21.3621 C   0  0  0  0  0  0
  -26.0137  -29.4394   20.7141 C   0  0  0  0  0  0
  -27.2002  -28.6638   20.7040 C   0  0  0  0  0  0
  -26.0460  -26.9110   19.4858 C   0  0  0  0  0  0
  -24.8664  -27.6807   19.4938 C   0  0  0  0  0  0
  -23.6174  -29.8178   20.1633 C   0  0  0  0  0  0
  -25.4101  -36.3122   24.0331 C   0  0  1  0  0  0
  -20.5859  -28.3627   23.1344 C   0  0  2  0  0  0
  -20.6727  -26.9388   22.5392 C   0  0  0  0  0  0
  -19.5720  -26.6423   21.5175 C   0  0  0  0  0  0
  -18.1894  -26.7932   22.1559 C   0  0  0  0  0  0
  -19.1525  -28.8827   23.2925 C   0  0  0  0  0  0
  -18.9433  -30.1403   23.8984 C   0  0  0  0  0  0
  -17.6424  -30.6542   24.0623 C   0  0  0  0  0  0
  -25.9031  -34.9493   23.5126 C   0  0  0  0  0  0
  -16.5331  -29.9073   23.6327 C   0  0  0  0  0  0
  -16.7259  -28.6521   23.0330 C   0  0  0  0  0  0
  -26.4453  -31.6618   25.0701 C   0  0  0  0  0  0
  -25.3715  -31.3720   26.1442 C   0  0  0  0  0  0
  -27.0279  -30.3071   24.6070 C   0  0  0  0  0  0
  -27.6019  -32.4335   25.7485 C   0  0  0  0  0  0
  -27.5573  -37.1821   24.8473 C   0  0  0  0  0  0
  -21.4147  -29.2997   22.3781 N   0  0  0  0  0  0
  -26.4283  -37.3810   23.9411 N   0  0  0  0  0  0
  -24.6738  -31.0683   22.0978 N   0  0  0  0  0  0
  -23.4173  -28.8141   23.3038 O   0  0  0  0  0  0
  -28.4146  -26.6470   20.1170 O   0  0  0  0  0  0
  -26.5607  -34.8940   22.4700 O   0  0  0  0  0  0
  -23.5346  -32.1409   23.7428 O   0  0  0  0  0  0
  -26.6905  -17.7651   22.5142 C   0  0  0  0  0  0
  -27.8572  -16.9944   22.3424 C   0  0  0  0  0  0
  -26.8330  -18.9077   21.7877 C   0  0  0  0  0  0
  -28.6882  -17.6433   21.4699 C   0  0  0  0  0  0
  -25.7673  -19.9421   21.6151 C   0  0  0  0  0  0
  -29.9554  -17.0093   20.8988 C   0  0  0  0  0  0
  -28.7458  -22.6979   19.9313 C   0  0  0  0  0  0
  -28.5158  -21.5039   20.9285 C   0  0  0  0  0  0
  -28.2770  -24.1081   20.4545 C   0  0  0  0  0  0
  -28.6540  -20.0300   20.3576 C   0  0  0  0  0  0
  -28.5381  -25.3312   19.5072 C   0  0  0  0  0  0
  -28.1139  -18.9206   21.2024 N   0  0  0  0  0  0
  -29.8314  -15.5322   20.9372 N   0  0  0  0  0  0
  -31.4797  -12.4844   19.0914 H   0  0  0  0  0  0
  -30.3857  -11.3348   19.8116 H   0  0  0  0  0  0
  -29.7291  -11.7532   17.4361 H   0  0  0  0  0  0
  -29.6515  -13.4709   17.7259 H   0  0  0  0  0  0
  -27.8472  -11.2990   18.8383 H   0  0  0  0  0  0
  -27.3572  -12.6051   17.7964 H   0  0  0  0  0  0
  -27.7014  -14.2476   19.5719 H   0  0  0  0  0  0
  -28.7137  -11.9400   21.3142 H   0  0  0  0  0  0
  -28.4794  -13.5699   21.8769 H   0  0  0  0  0  0
  -25.2694   -9.5702   22.4816 H   0  0  0  0  0  0
  -23.9957   -7.4639   22.7519 H   0  0  0  0  0  0
  -21.0785   -8.8770   19.8959 H   0  0  0  0  0  0
  -22.3652  -10.9680   19.6219 H   0  0  0  0  0  0
  -21.1952   -7.6124   23.9700 H   0  0  0  0  0  0
  -21.1504   -6.0513   25.9077 H   0  0  0  0  0  0
  -22.0583   -2.7583   23.2876 H   0  0  0  0  0  0
  -22.3898  -12.0061   22.4901 H   0  0  0  0  0  0
  -21.0990  -13.1453   22.2348 H   0  0  0  0  0  0
  -24.6851  -15.8445   20.5913 H   0  0  0  0  0  0
  -26.3092  -15.6396   20.1927 H   0  0  0  0  0  0
  -26.7114  -32.5527   23.1119 H   0  0  0  0  0  0
  -25.0031  -33.9775   25.0428 H   0  0  0  0  0  0
  -22.6935  -31.2995   21.4085 H   0  0  0  0  0  0
  -23.3726  -35.9661   23.3331 H   0  0  0  0  0  0
  -24.3550  -36.8920   22.2048 H   0  0  0  0  0  0
  -23.7225  -37.6536   23.6650 H   0  0  0  0  0  0
  -26.0464  -31.5693   20.5840 H   0  0  0  0  0  0
  -26.8321  -30.8796   21.9732 H   0  0  0  0  0  0
  -28.0968  -29.0393   21.1781 H   0  0  0  0  0  0
  -26.0035  -25.9443   19.0079 H   0  0  0  0  0  0
  -23.9735  -27.2935   19.0220 H   0  0  0  0  0  0
  -23.7356  -30.5941   19.4054 H   0  0  0  0  0  0
  -22.7401  -29.2405   19.8625 H   0  0  0  0  0  0
  -25.1273  -36.1978   25.0819 H   0  0  0  0  0  0
  -20.9954  -28.3084   24.1459 H   0  0  0  0  0  0
  -20.5552  -26.2273   23.3574 H   0  0  0  0  0  0
  -21.6592  -26.7370   22.1170 H   0  0  0  0  0  0
  -19.6847  -25.6361   21.1108 H   0  0  0  0  0  0
  -19.6662  -27.3284   20.6736 H   0  0  0  0  0  0
  -17.4157  -26.6651   21.3966 H   0  0  0  0  0  0
  -18.0307  -26.0053   22.8937 H   0  0  0  0  0  0
  -19.7868  -30.7229   24.2444 H   0  0  0  0  0  0
  -17.4983  -31.6183   24.5286 H   0  0  0  0  0  0
  -15.5331  -30.2984   23.7661 H   0  0  0  0  0  0
  -15.8687  -28.0842   22.7018 H   0  0  0  0  0  0
  -24.5898  -30.7056   25.7786 H   0  0  0  0  0  0
  -24.8880  -32.2860   26.4886 H   0  0  0  0  0  0
  -25.8050  -30.8900   27.0214 H   0  0  0  0  0  0
  -26.2825  -29.6852   24.1099 H   0  0  0  0  0  0
  -27.4044  -29.7277   25.4509 H   0  0  0  0  0  0
  -27.8658  -30.4408   23.9229 H   0  0  0  0  0  0
  -27.2639  -33.3631   26.2078 H   0  0  0  0  0  0
  -28.3836  -32.6896   25.0329 H   0  0  0  0  0  0
  -28.0683  -31.8450   26.5395 H   0  0  0  0  0  0
  -28.2605  -38.0099   24.7500 H   0  0  0  0  0  0
  -28.1045  -36.2632   24.6322 H   0  0  0  0  0  0
  -27.2297  -37.1518   25.8878 H   0  0  0  0  0  0
  -20.9322  -29.8744   21.7011 H   0  0  0  0  0  0
  -26.0168  -38.2889   24.1423 H   0  0  0  0  0  0
  -25.8169  -17.4828   23.0863 H   0  0  0  0  0  0
  -28.0264  -16.0193   22.7771 H   0  0  0  0  0  0
  -25.8523  -20.7370   22.3599 H   0  0  0  0  0  0
  -24.7864  -19.4872   21.7566 H   0  0  0  0  0  0
  -25.7752  -20.3694   20.6115 H   0  0  0  0  0  0
  -30.8266  -17.3146   21.4799 H   0  0  0  0  0  0
  -30.1204  -17.3328   19.8697 H   0  0  0  0  0  0
  -29.8045  -22.7394   19.6682 H   0  0  0  0  0  0
  -28.2228  -22.4795   18.9971 H   0  0  0  0  0  0
  -27.5250  -21.6699   21.3295 H   0  0  0  0  0  0
  -29.1741  -21.6231   21.7899 H   0  0  0  0  0  0
  -28.7783  -24.2978   21.4043 H   0  0  0  0  0  0
  -27.2106  -24.0668   20.6819 H   0  0  0  0  0  0
  -29.7082  -19.8280   20.1647 H   0  0  0  0  0  0
  -28.1600  -19.9707   19.3873 H   0  0  0  0  0  0
  -27.9722  -25.2440   18.5781 H   0  0  0  0  0  0
  -29.5789  -25.2686   19.1856 H   0  0  0  0  0  0
  -28.9222  -15.2169   21.2344 H   0  0  0  0  0  0
  1 25  1  0  0  0
  1 30  2  0  0  0
  1 83  1  0  0  0
  2  3  1  0  0  0
  2 25  1  0  0  0
  2 84  1  0  0  0
  2 85  1  0  0  0
  3  4  1  0  0  0
  3 86  1  0  0  0
  3 87  1  0  0  0
  4  5  1  0  0  0
  4 88  1  0  0  0
  4 89  1  0  0  0
  5  6  1  0  0  0
  5 26  1  0  0  0
  5 90  1  0  0  0
  6 25  1  0  0  0
  6 91  1  0  0  0
  6 92  1  0  0  0
  7  8  2  0  0  0
  7 26  1  0  0  0
  7 29  1  0  0  0
  8  9  1  0  0  0
  8 22  1  0  0  0
  9 10  1  0  0  0
  9 27  2  0  0  0
 10 11  2  0  0  0
 10 15  1  0  0  0
 11 12  1  0  0  0
 11 93  1  0  0  0
 12 13  2  0  0  0
 12 94  1  0  0  0
 13 14  1  0  0  0
 13 31  1  0  0  0
 14 15  2  0  0  0
 14 95  1  0  0  0
 15 96  1  0  0  0
 16 17  2  0  0  0
 16 21  1  0  0  0
 16 31  1  0  0  0
 17 18  1  0  0  0
 17 97  1  0  0  0
 18 19  2  0  0  0
 18 98  1  0  0  0
 19 20  1  0  0  0
 19 24  1  0  0  0
 20 21  2  0  0  0
 20 99  1  0  0  0
 21 23  1  0  0  0
 22 28  1  0  0  0
 22 32  2  0  0  0
 26 27  1  0  0  0
 28100  1  0  0  0
 28101  1  0  0  0
 29102  1  0  0  0
 29103  1  0  0  0
 33 34  1  0  0  0
 33 66  1  0  0  0
 33 70  2  0  0  0
 34 36  1  0  0  0
 34 59  1  0  0  0
 34104  1  0  0  0
 35 44  2  0  0  0
 35 45  1  0  0  0
 35 68  1  0  0  0
 36 56  1  0  0  0
 36105  1  0  0  0
 37 39  1  0  0  0
 37 47  1  0  0  0
 37 66  1  0  0  0
 37106  1  0  0  0
 38 43  2  0  0  0
 38 46  1  0  0  0
 38 47  1  0  0  0
 39 64  1  0  0  0
 39 67  2  0  0  0
 40 52  1  0  0  0
 40 53  2  0  0  0
 40 58  1  0  0  0
 41107  1  0  0  0
 41108  1  0  0  0
 41109  1  0  0  0
 41 48  1  0  0  0
 42 43  1  0  0  0
 42 66  1  0  0  0
 42110  1  0  0  0
 42111  1  0  0  0
 43 44  1  0  0  0
 44112  1  0  0  0
 45 46  2  0  0  0
 45113  1  0  0  0
 46114  1  0  0  0
 47115  1  0  0  0
 47116  1  0  0  0
 48 56  1  0  0  0
 48 65  1  0  0  0
 48117  1  0  0  0
 49 50  1  0  0  0
 49 53  1  0  0  0
 49 64  1  0  0  0
 49118  1  0  0  0
 50 51  1  0  0  0
 50119  1  0  0  0
 50120  1  0  0  0
 51 52  1  0  0  0
 51121  1  0  0  0
 51122  1  0  0  0
 52123  1  0  0  0
 52124  1  0  0  0
 53 54  1  0  0  0
 54 55  2  0  0  0
 54125  1  0  0  0
 55 57  1  0  0  0
 55126  1  0  0  0
 56 69  2  0  0  0
 57 58  2  0  0  0
 57127  1  0  0  0
 58128  1  0  0  0
 59 60  1  0  0  0
 59 61  1  0  0  0
 59 62  1  0  0  0
 60129  1  0  0  0
 60130  1  0  0  0
 60131  1  0  0  0
 61132  1  0  0  0
 61133  1  0  0  0
 61134  1  0  0  0
 62135  1  0  0  0
 62136  1  0  0  0
 62137  1  0  0  0
 63 65  1  0  0  0
 63138  1  0  0  0
 63139  1  0  0  0
 63140  1  0  0  0
 64141  1  0  0  0
 65142  1  0  0  0
 68 81  1  0  0  0
 71 72  1  0  0  0
 71 73  2  0  0  0
 71143  1  0  0  0
 72 74  2  0  0  0
 72144  1  0  0  0
 73 75  1  0  0  0
 73 82  1  0  0  0
 74 76  1  0  0  0
 74 82  1  0  0  0
 75145  1  0  0  0
 75146  1  0  0  0
 75147  1  0  0  0
 76 83  1  0  0  0
 76148  1  0  0  0
 76149  1  0  0  0
 77 78  1  0  0  0
 77 79  1  0  0  0
 77150  1  0  0  0
 77151  1  0  0  0
 78 80  1  0  0  0
 78152  1  0  0  0
 78153  1  0  0  0
 79 81  1  0  0  0
 79154  1  0  0  0
 79155  1  0  0  0
 80 82  1  0  0  0
 80156  1  0  0  0
 80157  1  0  0  0
 81158  1  0  0  0
 81159  1  0  0  0
 83160  1  0  0  0
M  ISO  4   1 100  68 101  81 101  83 100
M  END
> <chiral flag>
0

> <version>
0

> <s_m_source_file>
/data/baiqing/PycharmProjects/Reinvent-master-3.2/result/LINK_invent/BTK/process_docking_weight1_custom_sum_contain_oxygen_bond_distance_aromatic_linkinvent_7_9_3/rearranged_h_0092.sdf

> <i_m_source_file_index>
24

> <r_mmod_Potential_Energy-OPLS-2005>
-66.4882507324219

> <r_mmod_Stretch_Energy-OPLS-2005>
58.6266555786133

> <r_mmod_Bend_Energy-OPLS-2005>
139.177688598633

> <r_mmod_Torsional_Energy-OPLS-2005>
206.619979858398

> <r_mmod_Improper_Torsional_Energy-OPLS-2005>
5.27515316009521

> <r_mmod_Van_der_Waal_Energy-OPLS-2005>
122.234817504883

> <r_mmod_Electrostatic_Energy-OPLS-2005>
-422.057891845703

> <r_mmod_Solvation_Energy-OPLS-2005>
-198.812896728516

> <b_mmod_Minimization_Converged-OPLS-2005>
0

> <r_mmod_RMS_Derivative-OPLS-2005>
4.81597948074341

$$$$
25
                    3D
 Structure written by MMmdl.
163171  0  0  1  0            999 V2000
  -30.7871  -14.2971   20.7740 C   0  0  0  0  0  0
  -30.4198  -12.3009   19.3687 C   0  0  0  0  0  0
  -29.4826  -12.5584   18.1762 C   0  0  0  0  0  0
  -28.0048  -12.3988   18.5836 C   0  0  0  0  0  0
  -27.6662  -13.1886   19.8724 C   0  0  2  0  0  0
  -28.6981  -12.8717   20.9703 C   0  0  0  0  0  0
  -25.2613  -13.8106   20.5630 C   0  0  0  0  0  0
  -24.1844  -13.0418   20.9118 C   0  0  0  0  0  0
  -24.6374  -11.6865   20.8668 C   0  0  0  0  0  0
  -23.9030  -10.4269   21.0367 C   0  0  0  0  0  0
  -24.3593   -9.4198   21.9156 C   0  0  0  0  0  0
  -23.6274   -8.2241   22.0764 C   0  0  0  0  0  0
  -22.4255   -8.0264   21.3556 C   0  0  0  0  0  0
  -21.9865   -9.0222   20.4654 C   0  0  0  0  0  0
  -22.7188  -10.2099   20.3041 C   0  0  0  0  0  0
  -21.6850   -6.0719   22.5286 C   0  0  0  0  0  0
  -21.4029   -6.5636   23.8217 C   0  0  0  0  0  0
  -21.3658   -5.6782   24.9173 C   0  0  0  0  0  0
  -21.6027   -4.3045   24.7219 C   0  0  0  0  0  0
  -21.8822   -3.8140   23.4347 C   0  0  0  0  0  0
  -21.9194   -4.6949   22.3401 C   0  0  0  0  0  0
  -22.7878  -13.5239   21.1804 C   0  0  0  0  0  0
  -22.1661   -4.2134   21.0973 F   0  0  0  0  0  0
  -21.5622   -3.4536   25.7744 F   0  0  0  0  0  0
  -30.0459  -13.1973   20.4739 N   0  0  0  0  0  0
  -26.3030  -12.9245   20.3282 N   0  0  0  0  0  0
  -25.9280  -11.6415   20.5644 N   0  0  0  0  0  0
  -22.0532  -12.8262   22.0385 N   0  0  0  0  0  0
  -25.4400  -15.1836   20.4142 N   0  0  0  0  0  0
  -31.7304  -14.6837   20.0775 O   0  0  0  0  0  0
  -21.6627   -6.8856   21.4250 O   0  0  0  0  0  0
  -22.3583  -14.5548   20.6637 O   0  0  0  0  0  0
  -24.6138  -31.8700   23.2174 C   0  0  0  0  0  0
  -25.9054  -32.4824   23.8451 C   0  0  1  0  0  0
  -27.2279  -27.4623   20.0545 C   0  0  0  0  0  0
  -25.5930  -33.8633   24.2381 N   0  0  0  0  0  0
  -23.3997  -30.4984   21.5584 C   0  0  2  0  0  0
  -24.8369  -28.9719   20.1165 C   0  0  0  0  0  0
  -22.7418  -29.4654   22.5015 C   0  0  0  0  0  0
  -18.0273  -28.1365   22.8492 C   0  0  0  0  0  0
  -24.1491  -36.7312   23.2643 C   0  0  0  0  0  0
  -25.9303  -30.8347   21.3742 C   0  0  0  0  0  0
  -25.9993  -29.4766   20.7118 C   0  0  0  0  0  0
  -27.1937  -28.7264   20.6836 C   0  0  0  0  0  0
  -26.0390  -26.9678   19.4644 C   0  0  0  0  0  0
  -24.8489  -27.7131   19.4981 C   0  0  0  0  0  0
  -23.6040  -29.8419   20.1691 C   0  0  0  0  0  0
  -25.4111  -36.3119   24.0352 C   0  0  1  0  0  0
  -20.5865  -28.3648   23.1321 C   0  0  2  0  0  0
  -20.6768  -26.9388   22.5410 C   0  0  0  0  0  0
  -19.5749  -26.6381   21.5202 C   0  0  0  0  0  0
  -18.1924  -26.7917   22.1608 C   0  0  0  0  0  0
  -19.1525  -28.8821   23.2901 C   0  0  0  0  0  0
  -18.9450  -30.1427   23.8913 C   0  0  0  0  0  0
  -17.6449  -30.6569   24.0560 C   0  0  0  0  0  0
  -25.9030  -34.9477   23.5153 C   0  0  0  0  0  0
  -16.5343  -29.9066   23.6321 C   0  0  0  0  0  0
  -16.7263  -28.6483   23.0350 C   0  0  0  0  0  0
  -26.4489  -31.6607   25.0775 C   0  0  0  0  0  0
  -25.3783  -31.3686   26.1547 C   0  0  0  0  0  0
  -27.0330  -30.3057   24.6150 C   0  0  0  0  0  0
  -27.6071  -32.4337   25.7517 C   0  0  0  0  0  0
  -27.5584  -37.1816   24.8471 C   0  0  0  0  0  0
  -21.4149  -29.3025   22.3744 N   0  0  0  0  0  0
  -26.4302  -37.3805   23.9413 N   0  0  0  0  0  0
  -24.6662  -31.0824   22.1069 N   0  0  0  0  0  0
  -23.4194  -28.8176   23.3036 O   0  0  0  0  0  0
  -28.4274  -26.7815   20.0305 O   0  0  0  0  0  0
  -26.5562  -34.8917   22.4696 O   0  0  0  0  0  0
  -23.5334  -32.1456   23.7567 O   0  0  0  0  0  0
  -28.6678  -18.7146   21.4256 C   0  0  0  0  0  0
  -26.6225  -19.5238   22.4073 C   0  0  0  0  0  0
  -27.5486  -19.5652   21.3426 C   0  0  0  0  0  0
  -28.7933  -17.9142   22.5787 C   0  0  0  0  0  0
  -29.1876  -14.8818   23.9713 C   0  0  0  0  0  0
  -27.3941  -20.5349   20.1857 C   0  0  0  0  0  0
  -29.9812  -16.9807   22.7483 C   0  0  0  0  0  0
  -27.3512  -21.9861   20.6916 C   0  0  0  0  0  0
  -27.8189  -23.0333   19.6720 C   0  0  0  0  0  0
  -27.8774  -24.4250   20.3155 C   0  0  0  0  0  0
  -28.4855  -25.5028   19.4008 C   0  0  0  0  0  0
  -29.5930  -15.4928   22.6121 C   0  0  1  0  0  0
  -26.7969  -18.7253   23.4888 N   0  0  0  0  0  0
  -27.8766  -17.9397   23.5792 N   0  0  0  0  0  0
  -30.7046  -14.7214   22.0453 N   0  0  0  0  0  0
  -31.4599  -12.4306   19.0633 H   0  0  0  0  0  0
  -30.3424  -11.2634   19.6979 H   0  0  0  0  0  0
  -29.7213  -11.8785   17.3570 H   0  0  0  0  0  0
  -29.6478  -13.5671   17.7925 H   0  0  0  0  0  0
  -27.8054  -11.3369   18.7319 H   0  0  0  0  0  0
  -27.3594  -12.7193   17.7649 H   0  0  0  0  0  0
  -27.7390  -14.2494   19.6364 H   0  0  0  0  0  0
  -28.6664  -11.8112   21.2180 H   0  0  0  0  0  0
  -28.4113  -13.3612   21.8885 H   0  0  0  0  0  0
  -25.2757   -9.5677   22.4691 H   0  0  0  0  0  0
  -23.9980   -7.4631   22.7490 H   0  0  0  0  0  0
  -21.0806   -8.8716   19.8962 H   0  0  0  0  0  0
  -22.3646  -10.9615   19.6123 H   0  0  0  0  0  0
  -21.2061   -7.6145   23.9731 H   0  0  0  0  0  0
  -21.1466   -6.0510   25.9071 H   0  0  0  0  0  0
  -22.0614   -2.7608   23.2848 H   0  0  0  0  0  0
  -22.4106  -11.9904   22.4753 H   0  0  0  0  0  0
  -21.1157  -13.1307   22.2568 H   0  0  0  0  0  0
  -24.6955  -15.8501   20.5855 H   0  0  0  0  0  0
  -26.3095  -15.6237   20.1426 H   0  0  0  0  0  0
  -26.7116  -32.5521   23.1202 H   0  0  0  0  0  0
  -25.0183  -33.9813   25.0592 H   0  0  0  0  0  0
  -22.6882  -31.3153   21.4253 H   0  0  0  0  0  0
  -23.3747  -35.9643   23.3327 H   0  0  0  0  0  0
  -24.3587  -36.8899   22.2049 H   0  0  0  0  0  0
  -23.7225  -37.6530   23.6624 H   0  0  0  0  0  0
  -26.0628  -31.6072   20.6163 H   0  0  0  0  0  0
  -26.8119  -30.8678   22.0028 H   0  0  0  0  0  0
  -28.0957  -29.1178   21.1336 H   0  0  0  0  0  0
  -25.9981  -26.0131   18.9624 H   0  0  0  0  0  0
  -23.9546  -27.3212   19.0344 H   0  0  0  0  0  0
  -23.7208  -30.6229   19.4166 H   0  0  0  0  0  0
  -22.7243  -29.2715   19.8651 H   0  0  0  0  0  0
  -25.1273  -36.2015   25.0840 H   0  0  0  0  0  0
  -20.9951  -28.3187   24.1445 H   0  0  0  0  0  0
  -20.5672  -26.2247   23.3586 H   0  0  0  0  0  0
  -21.6634  -26.7438   22.1196 H   0  0  0  0  0  0
  -19.6915  -25.6300   21.1207 H   0  0  0  0  0  0
  -19.6690  -27.3205   20.6738 H   0  0  0  0  0  0
  -17.4201  -26.6678   21.4000 H   0  0  0  0  0  0
  -18.0321  -26.0055   22.8995 H   0  0  0  0  0  0
  -19.7918  -30.7239   24.2300 H   0  0  0  0  0  0
  -17.4994  -31.6250   24.5155 H   0  0  0  0  0  0
  -15.5336  -30.2960   23.7640 H   0  0  0  0  0  0
  -15.8666  -28.0786   22.7069 H   0  0  0  0  0  0
  -24.5944  -30.7038   25.7904 H   0  0  0  0  0  0
  -24.8986  -32.2823   26.5063 H   0  0  0  0  0  0
  -25.8173  -30.8825   27.0269 H   0  0  0  0  0  0
  -26.2870  -29.6805   24.1233 H   0  0  0  0  0  0
  -27.4144  -29.7303   25.4596 H   0  0  0  0  0  0
  -27.8692  -30.4395   23.9284 H   0  0  0  0  0  0
  -27.2699  -33.3627   26.2130 H   0  0  0  0  0  0
  -28.3850  -32.6931   25.0322 H   0  0  0  0  0  0
  -28.0786  -31.8460   26.5406 H   0  0  0  0  0  0
  -28.2618  -38.0100   24.7509 H   0  0  0  0  0  0
  -28.1065  -36.2635   24.6310 H   0  0  0  0  0  0
  -27.2303  -37.1484   25.8876 H   0  0  0  0  0  0
  -20.9308  -29.8787   21.7004 H   0  0  0  0  0  0
  -26.0200  -38.2891   24.1399 H   0  0  0  0  0  0
  -29.4153  -18.6886   20.6448 H   0  0  0  0  0  0
  -25.7481  -20.1574   22.4146 H   0  0  0  0  0  0
  -29.9556  -15.0409   24.7287 H   0  0  0  0  0  0
  -29.0176  -13.8064   23.9188 H   0  0  0  0  0  0
  -28.2656  -15.3281   24.3432 H   0  0  0  0  0  0
  -26.4985  -20.2910   19.6125 H   0  0  0  0  0  0
  -28.2394  -20.4018   19.5085 H   0  0  0  0  0  0
  -30.4607  -17.1820   23.7077 H   0  0  0  0  0  0
  -30.7190  -17.2437   21.9893 H   0  0  0  0  0  0
  -28.0104  -22.0642   21.5574 H   0  0  0  0  0  0
  -26.3493  -22.2239   21.0528 H   0  0  0  0  0  0
  -27.1519  -23.0478   18.8088 H   0  0  0  0  0  0
  -28.8091  -22.7662   19.3008 H   0  0  0  0  0  0
  -28.4674  -24.3829   21.2312 H   0  0  0  0  0  0
  -26.8715  -24.7027   20.6294 H   0  0  0  0  0  0
  -28.0282  -25.5180   18.4110 H   0  0  0  0  0  0
  -29.5367  -25.2723   19.2246 H   0  0  0  0  0  0
  -28.7494  -15.4541   21.9225 H   0  0  0  0  0  0
  -31.5955  -15.0765   22.3594 H   0  0  0  0  0  0
  1 25  1  0  0  0
  1 30  2  0  0  0
  1 85  1  0  0  0
  2  3  1  0  0  0
  2 25  1  0  0  0
  2 86  1  0  0  0
  2 87  1  0  0  0
  3  4  1  0  0  0
  3 88  1  0  0  0
  3 89  1  0  0  0
  4  5  1  0  0  0
  4 90  1  0  0  0
  4 91  1  0  0  0
  5  6  1  0  0  0
  5 26  1  0  0  0
  5 92  1  0  0  0
  6 25  1  0  0  0
  6 93  1  0  0  0
  6 94  1  0  0  0
  7  8  2  0  0  0
  7 26  1  0  0  0
  7 29  1  0  0  0
  8  9  1  0  0  0
  8 22  1  0  0  0
  9 10  1  0  0  0
  9 27  2  0  0  0
 10 11  2  0  0  0
 10 15  1  0  0  0
 11 12  1  0  0  0
 11 95  1  0  0  0
 12 13  2  0  0  0
 12 96  1  0  0  0
 13 14  1  0  0  0
 13 31  1  0  0  0
 14 15  2  0  0  0
 14 97  1  0  0  0
 15 98  1  0  0  0
 16 17  2  0  0  0
 16 21  1  0  0  0
 16 31  1  0  0  0
 17 18  1  0  0  0
 17 99  1  0  0  0
 18 19  2  0  0  0
 18100  1  0  0  0
 19 20  1  0  0  0
 19 24  1  0  0  0
 20 21  2  0  0  0
 20101  1  0  0  0
 21 23  1  0  0  0
 22 28  1  0  0  0
 22 32  2  0  0  0
 26 27  1  0  0  0
 28102  1  0  0  0
 28103  1  0  0  0
 29104  1  0  0  0
 29105  1  0  0  0
 33 34  1  0  0  0
 33 66  1  0  0  0
 33 70  2  0  0  0
 34 36  1  0  0  0
 34 59  1  0  0  0
 34106  1  0  0  0
 35 44  2  0  0  0
 35 45  1  0  0  0
 35 68  1  0  0  0
 36 56  1  0  0  0
 36107  1  0  0  0
 37 39  1  0  0  0
 37 47  1  0  0  0
 37 66  1  0  0  0
 37108  1  0  0  0
 38 43  2  0  0  0
 38 46  1  0  0  0
 38 47  1  0  0  0
 39 64  1  0  0  0
 39 67  2  0  0  0
 40 52  1  0  0  0
 40 53  2  0  0  0
 40 58  1  0  0  0
 41109  1  0  0  0
 41110  1  0  0  0
 41111  1  0  0  0
 41 48  1  0  0  0
 42 43  1  0  0  0
 42 66  1  0  0  0
 42112  1  0  0  0
 42113  1  0  0  0
 43 44  1  0  0  0
 44114  1  0  0  0
 45 46  2  0  0  0
 45115  1  0  0  0
 46116  1  0  0  0
 47117  1  0  0  0
 47118  1  0  0  0
 48 56  1  0  0  0
 48 65  1  0  0  0
 48119  1  0  0  0
 49 50  1  0  0  0
 49 53  1  0  0  0
 49 64  1  0  0  0
 49120  1  0  0  0
 50 51  1  0  0  0
 50121  1  0  0  0
 50122  1  0  0  0
 51 52  1  0  0  0
 51123  1  0  0  0
 51124  1  0  0  0
 52125  1  0  0  0
 52126  1  0  0  0
 53 54  1  0  0  0
 54 55  2  0  0  0
 54127  1  0  0  0
 55 57  1  0  0  0
 55128  1  0  0  0
 56 69  2  0  0  0
 57 58  2  0  0  0
 57129  1  0  0  0
 58130  1  0  0  0
 59 60  1  0  0  0
 59 61  1  0  0  0
 59 62  1  0  0  0
 60131  1  0  0  0
 60132  1  0  0  0
 60133  1  0  0  0
 61134  1  0  0  0
 61135  1  0  0  0
 61136  1  0  0  0
 62137  1  0  0  0
 62138  1  0  0  0
 62139  1  0  0  0
 63 65  1  0  0  0
 63140  1  0  0  0
 63141  1  0  0  0
 63142  1  0  0  0
 64143  1  0  0  0
 65144  1  0  0  0
 68 81  1  0  0  0
 71 73  2  0  0  0
 71 74  1  0  0  0
 71145  1  0  0  0
 72 73  1  0  0  0
 72 83  2  0  0  0
 72146  1  0  0  0
 73 76  1  0  0  0
 74 77  1  0  0  0
 74 84  2  0  0  0
 75147  1  0  0  0
 75148  1  0  0  0
 75149  1  0  0  0
 75 82  1  0  0  0
 76 78  1  0  0  0
 76150  1  0  0  0
 76151  1  0  0  0
 77 82  1  0  0  0
 77152  1  0  0  0
 77153  1  0  0  0
 78 79  1  0  0  0
 78154  1  0  0  0
 78155  1  0  0  0
 79 80  1  0  0  0
 79156  1  0  0  0
 79157  1  0  0  0
 80 81  1  0  0  0
 80158  1  0  0  0
 80159  1  0  0  0
 81160  1  0  0  0
 81161  1  0  0  0
 82 85  1  0  0  0
 82162  1  0  0  0
 83 84  1  0  0  0
 85163  1  0  0  0
M  ISO  4   1 100  68 101  81 101  85 100
M  END
> <chiral flag>
0

> <version>
0

> <s_m_source_file>
/data/baiqing/PycharmProjects/Reinvent-master-3.2/result/LINK_invent/BTK/process_docking_weight1_custom_sum_contain_oxygen_bond_distance_aromatic_linkinvent_7_9_3/rearranged_h_0092.sdf

> <i_m_source_file_index>
25

> <r_mmod_Potential_Energy-OPLS-2005>
46.5832710266113

> <r_mmod_Stretch_Energy-OPLS-2005>
33.1771011352539

> <r_mmod_Bend_Energy-OPLS-2005>
104.989196777344

> <r_mmod_Torsional_Energy-OPLS-2005>
238.787231445312

> <r_mmod_Improper_Torsional_Energy-OPLS-2005>
13.4597578048706

> <r_mmod_Van_der_Waal_Energy-OPLS-2005>
159.483276367188

> <r_mmod_Electrostatic_Energy-OPLS-2005>
-296.094360351562

> <r_mmod_Solvation_Energy-OPLS-2005>
-218.620834350586

> <b_mmod_Minimization_Converged-OPLS-2005>
0

> <r_mmod_RMS_Derivative-OPLS-2005>
2.45967435836792

$$$$
26
                    3D
 Structure written by MMmdl.
171179  0  0  1  0            999 V2000
  -30.6828  -14.5942   20.5249 C   0  0  0  0  0  0
  -30.3884  -12.4052   19.3954 C   0  0  0  0  0  0
  -29.4676  -12.6148   18.1595 C   0  0  0  0  0  0
  -27.9942  -12.9362   18.5207 C   0  0  0  0  0  0
  -27.7068  -12.7382   19.9989 C   0  0  2  0  0  0
  -28.7626  -13.0952   21.0562 C   0  0  0  0  0  0
  -25.3149  -13.7529   20.5901 C   0  0  0  0  0  0
  -24.1908  -13.0473   20.9569 C   0  0  0  0  0  0
  -24.5797  -11.6758   20.9380 C   0  0  0  0  0  0
  -23.8430  -10.4349   21.0979 C   0  0  0  0  0  0
  -24.3211   -9.4240   21.9496 C   0  0  0  0  0  0
  -23.6209   -8.2039   22.0840 C   0  0  0  0  0  0
  -22.4304   -7.9982   21.3503 C   0  0  0  0  0  0
  -21.9837   -9.0043   20.4690 C   0  0  0  0  0  0
  -22.6861  -10.2105   20.3348 C   0  0  0  0  0  0
  -21.6725   -6.0722   22.5296 C   0  0  0  0  0  0
  -21.3710   -6.5657   23.8224 C   0  0  0  0  0  0
  -21.3472   -5.6825   24.9161 C   0  0  0  0  0  0
  -21.6061   -4.3090   24.7302 C   0  0  0  0  0  0
  -21.8958   -3.8169   23.4445 C   0  0  0  0  0  0
  -21.9256   -4.6963   22.3481 C   0  0  0  0  0  0
  -22.8015  -13.5610   21.2079 C   0  0  0  0  0  0
  -22.1871   -4.2185   21.1077 F   0  0  0  0  0  0
  -21.5707   -3.4601   25.7838 F   0  0  0  0  0  0
  -30.0175  -13.4162   20.3978 N   0  0  0  0  0  0
  -26.3119  -12.7919   20.4142 N   0  0  0  0  0  0
  -25.8433  -11.5589   20.6442 N   0  0  0  0  0  0
  -22.0518  -12.8681   22.0472 N   0  0  0  0  0  0
  -25.5264  -15.1084   20.3941 N   0  0  0  0  0  0
  -31.8430  -14.7207   20.1299 O   0  0  0  0  0  0
  -21.6610   -6.8572   21.4168 O   0  0  0  0  0  0
  -22.3781  -14.5963   20.6901 O   0  0  0  0  0  0
  -24.6322  -31.8606   23.2079 C   0  0  0  0  0  0
  -25.9149  -32.4798   23.8437 C   0  0  1  0  0  0
  -27.1757  -27.2829   20.1718 C   0  0  0  0  0  0
  -25.5946  -33.8604   24.2328 N   0  0  0  0  0  0
  -23.4246  -30.4896   21.5459 C   0  0  2  0  0  0
  -24.8612  -28.9485   20.1076 C   0  0  0  0  0  0
  -22.7501  -29.4626   22.4859 C   0  0  0  0  0  0
  -18.0312  -28.1391   22.8504 C   0  0  0  0  0  0
  -24.1487  -36.7279   23.2657 C   0  0  0  0  0  0
  -25.9640  -30.7884   21.3838 C   0  0  0  0  0  0
  -26.0298  -29.4175   20.7245 C   0  0  0  0  0  0
  -27.1883  -28.5915   20.7497 C   0  0  0  0  0  0
  -26.0074  -26.8941   19.4781 C   0  0  0  0  0  0
  -24.8543  -27.7036   19.4620 C   0  0  0  0  0  0
  -23.6414  -29.8381   20.1564 C   0  0  0  0  0  0
  -25.4105  -36.3079   24.0354 C   0  0  1  0  0  0
  -20.5931  -28.3710   23.1244 C   0  0  2  0  0  0
  -20.6778  -26.9419   22.5377 C   0  0  0  0  0  0
  -19.5730  -26.6399   21.5196 C   0  0  0  0  0  0
  -18.1933  -26.7947   22.1632 C   0  0  0  0  0  0
  -19.1575  -28.8857   23.2886 C   0  0  0  0  0  0
  -18.9479  -30.1470   23.8880 C   0  0  0  0  0  0
  -17.6454  -30.6576   24.0576 C   0  0  0  0  0  0
  -25.9042  -34.9461   23.5130 C   0  0  0  0  0  0
  -16.5350  -29.9070   23.6323 C   0  0  0  0  0  0
  -16.7294  -28.6499   23.0348 C   0  0  0  0  0  0
  -26.4512  -31.6599   25.0797 C   0  0  0  0  0  0
  -25.3760  -31.3696   26.1529 C   0  0  0  0  0  0
  -27.0362  -30.3035   24.6223 C   0  0  0  0  0  0
  -27.6060  -32.4348   25.7544 C   0  0  0  0  0  0
  -27.5542  -37.1803   24.8482 C   0  0  0  0  0  0
  -21.4218  -29.3073   22.3625 N   0  0  0  0  0  0
  -26.4267  -37.3760   23.9434 N   0  0  0  0  0  0
  -24.6916  -31.0635   22.1027 N   0  0  0  0  0  0
  -23.4163  -28.8176   23.2992 O   0  0  0  0  0  0
  -28.2713  -26.4226   20.3078 O   0  0  0  0  0  0
  -26.5558  -34.8883   22.4665 O   0  0  0  0  0  0
  -23.5465  -32.1444   23.7309 O   0  0  0  0  0  0
  -29.1948  -19.2277   21.5552 C   0  0  0  0  0  0
  -29.1999  -17.8709   22.0117 C   0  0  0  0  0  0
  -28.2613  -19.9156   22.3043 C   0  0  0  0  0  0
  -28.4056  -21.9899   23.8160 C   0  0  0  0  0  0
  -27.3600  -16.1390   25.3845 C   0  0  0  0  0  0
  -24.9457  -15.8499   25.8310 C   0  0  0  0  0  0
  -30.1993  -16.7010   21.8380 C   0  0  0  0  0  0
  -28.0859  -24.0463   21.5572 C   0  0  0  0  0  0
  -28.3605  -22.4877   21.3056 C   0  0  0  0  0  0
  -25.6593  -17.7773   24.3197 C   0  0  0  0  0  0
  -26.5640  -19.0210   24.0756 C   0  0  0  0  0  0
  -28.1199  -24.9450   20.2484 C   0  0  0  0  0  0
  -27.9391  -21.4486   22.4483 C   0  0  1  0  0  0
  -26.0278  -16.9036   25.5477 C   0  0  0  0  0  0
  -28.1838  -17.6800   22.8239 N   0  0  0  0  0  0
  -27.6248  -18.9085   23.0572 N   0  0  0  0  0  0
  -29.9279  -15.7011   20.7730 N   0  0  0  0  0  0
  -31.4439  -12.4945   19.1226 H   0  0  0  0  0  0
  -30.2941  -11.3965   19.8135 H   0  0  0  0  0  0
  -29.5450  -11.7817   17.4696 H   0  0  0  0  0  0
  -29.8298  -13.4732   17.5962 H   0  0  0  0  0  0
  -27.2813  -12.4163   17.8790 H   0  0  0  0  0  0
  -27.7969  -13.9892   18.2994 H   0  0  0  0  0  0
  -27.9318  -11.6605   19.9597 H   0  0  0  0  0  0
  -28.9496  -12.2003   21.6535 H   0  0  0  0  0  0
  -28.4593  -13.8749   21.7503 H   0  0  0  0  0  0
  -25.2368   -9.6004   22.5025 H   0  0  0  0  0  0
  -24.0069   -7.4444   22.7522 H   0  0  0  0  0  0
  -21.0877   -8.8430   19.8797 H   0  0  0  0  0  0
  -22.3305  -10.9585   19.6437 H   0  0  0  0  0  0
  -21.1399   -7.6110   23.9731 H   0  0  0  0  0  0
  -21.1121   -6.0505   25.9059 H   0  0  0  0  0  0
  -22.0884   -2.7675   23.2975 H   0  0  0  0  0  0
  -22.3991  -12.0194   22.4766 H   0  0  0  0  0  0
  -21.1123  -13.1743   22.2375 H   0  0  0  0  0  0
  -24.8185  -15.8128   20.5785 H   0  0  0  0  0  0
  -26.4180  -15.5020   20.1261 H   0  0  0  0  0  0
  -26.7205  -32.5447   23.1179 H   0  0  0  0  0  0
  -25.0161  -33.9788   25.0505 H   0  0  0  0  0  0
  -22.7239  -31.3126   21.4097 H   0  0  0  0  0  0
  -23.3720  -35.9637   23.3360 H   0  0  0  0  0  0
  -24.3567  -36.8840   22.2056 H   0  0  0  0  0  0
  -23.7265  -37.6514   23.6635 H   0  0  0  0  0  0
  -26.0974  -31.5511   20.6166 H   0  0  0  0  0  0
  -26.8480  -30.8366   22.0063 H   0  0  0  0  0  0
  -28.0890  -28.9248   21.2415 H   0  0  0  0  0  0
  -25.9479  -25.9643   18.9317 H   0  0  0  0  0  0
  -23.9685  -27.3733   18.9334 H   0  0  0  0  0  0
  -23.7675  -30.6234   19.4118 H   0  0  0  0  0  0
  -22.7626  -29.2731   19.8475 H   0  0  0  0  0  0
  -25.1273  -36.1925   25.0839 H   0  0  0  0  0  0
  -21.0070  -28.3302   24.1349 H   0  0  0  0  0  0
  -20.5682  -26.2312   23.3607 H   0  0  0  0  0  0
  -21.6651  -26.7410   22.1174 H   0  0  0  0  0  0
  -19.6898  -25.6315   21.1249 H   0  0  0  0  0  0
  -19.6691  -27.3203   20.6739 H   0  0  0  0  0  0
  -17.4211  -26.6733   21.4041 H   0  0  0  0  0  0
  -18.0308  -26.0064   22.8999 H   0  0  0  0  0  0
  -19.7948  -30.7342   24.2210 H   0  0  0  0  0  0
  -17.4999  -31.6273   24.5207 H   0  0  0  0  0  0
  -15.5358  -30.2962   23.7673 H   0  0  0  0  0  0
  -15.8703  -28.0836   22.7014 H   0  0  0  0  0  0
  -24.5939  -30.7032   25.7866 H   0  0  0  0  0  0
  -24.8955  -32.2839   26.5032 H   0  0  0  0  0  0
  -25.8139  -30.8845   27.0260 H   0  0  0  0  0  0
  -26.2927  -29.6770   24.1278 H   0  0  0  0  0  0
  -27.4105  -29.7304   25.4716 H   0  0  0  0  0  0
  -27.8777  -30.4364   23.9417 H   0  0  0  0  0  0
  -27.2667  -33.3627   26.2154 H   0  0  0  0  0  0
  -28.3831  -32.6951   25.0351 H   0  0  0  0  0  0
  -28.0765  -31.8469   26.5429 H   0  0  0  0  0  0
  -28.2600  -38.0043   24.7422 H   0  0  0  0  0  0
  -28.0970  -36.2573   24.6418 H   0  0  0  0  0  0
  -27.2251  -37.1580   25.8876 H   0  0  0  0  0  0
  -20.9344  -29.8751   21.6832 H   0  0  0  0  0  0
  -26.0139  -38.2834   24.1387 H   0  0  0  0  0  0
  -29.8697  -19.6745   20.8453 H   0  0  0  0  0  0
  -27.8325  -22.8783   24.0652 H   0  0  0  0  0  0
  -29.4640  -22.2730   23.8293 H   0  0  0  0  0  0
  -28.2217  -21.2860   24.6247 H   0  0  0  0  0  0
  -27.5728  -15.5121   26.2546 H   0  0  0  0  0  0
  -28.1918  -16.8311   25.2918 H   0  0  0  0  0  0
  -27.3485  -15.4795   24.5077 H   0  0  0  0  0  0
  -23.9533  -16.3078   25.9006 H   0  0  0  0  0  0
  -25.1460  -15.3395   26.7769 H   0  0  0  0  0  0
  -24.9156  -15.0695   25.0574 H   0  0  0  0  0  0
  -30.3001  -16.1792   22.7972 H   0  0  0  0  0  0
  -31.1926  -17.1045   21.6601 H   0  0  0  0  0  0
  -28.8498  -24.4278   22.2368 H   0  0  0  0  0  0
  -27.1462  -24.1762   22.0972 H   0  0  0  0  0  0
  -29.4191  -22.3772   21.0323 H   0  0  0  0  0  0
  -27.8272  -22.2119   20.3980 H   0  0  0  0  0  0
  -25.6104  -17.1515   23.4285 H   0  0  0  0  0  0
  -24.6307  -18.1397   24.4501 H   0  0  0  0  0  0
  -27.0284  -19.3433   25.0122 H   0  0  0  0  0  0
  -25.8906  -19.8164   23.7482 H   0  0  0  0  0  0
  -27.3054  -24.6016   19.6039 H   0  0  0  0  0  0
  -29.0184  -24.6056   19.7352 H   0  0  0  0  0  0
  -26.8581  -21.5359   22.4608 H   0  0  0  0  0  0
  -26.1012  -17.5604   26.4236 H   0  0  0  0  0  0
  -29.9262  -16.2403   19.9131 H   0  0  0  0  0  0
  1 25  1  0  0  0
  1 30  2  0  0  0
  1 87  1  0  0  0
  2  3  1  0  0  0
  2 25  1  0  0  0
  2 88  1  0  0  0
  2 89  1  0  0  0
  3  4  1  0  0  0
  3 90  1  0  0  0
  3 91  1  0  0  0
  4  5  1  0  0  0
  4 92  1  0  0  0
  4 93  1  0  0  0
  5  6  1  0  0  0
  5 26  1  0  0  0
  5 94  1  0  0  0
  6 25  1  0  0  0
  6 95  1  0  0  0
  6 96  1  0  0  0
  7  8  2  0  0  0
  7 26  1  0  0  0
  7 29  1  0  0  0
  8  9  1  0  0  0
  8 22  1  0  0  0
  9 10  1  0  0  0
  9 27  2  0  0  0
 10 11  2  0  0  0
 10 15  1  0  0  0
 11 12  1  0  0  0
 11 97  1  0  0  0
 12 13  2  0  0  0
 12 98  1  0  0  0
 13 14  1  0  0  0
 13 31  1  0  0  0
 14 15  2  0  0  0
 14 99  1  0  0  0
 15100  1  0  0  0
 16 17  2  0  0  0
 16 21  1  0  0  0
 16 31  1  0  0  0
 17 18  1  0  0  0
 17101  1  0  0  0
 18 19  2  0  0  0
 18102  1  0  0  0
 19 20  1  0  0  0
 19 24  1  0  0  0
 20 21  2  0  0  0
 20103  1  0  0  0
 21 23  1  0  0  0
 22 28  1  0  0  0
 22 32  2  0  0  0
 26 27  1  0  0  0
 28104  1  0  0  0
 28105  1  0  0  0
 29106  1  0  0  0
 29107  1  0  0  0
 33 34  1  0  0  0
 33 66  1  0  0  0
 33 70  2  0  0  0
 34 36  1  0  0  0
 34 59  1  0  0  0
 34108  1  0  0  0
 35 44  2  0  0  0
 35 45  1  0  0  0
 35 68  1  0  0  0
 36 56  1  0  0  0
 36109  1  0  0  0
 37 39  1  0  0  0
 37 47  1  0  0  0
 37 66  1  0  0  0
 37110  1  0  0  0
 38 43  2  0  0  0
 38 46  1  0  0  0
 38 47  1  0  0  0
 39 64  1  0  0  0
 39 67  2  0  0  0
 40 52  1  0  0  0
 40 53  2  0  0  0
 40 58  1  0  0  0
 41111  1  0  0  0
 41112  1  0  0  0
 41113  1  0  0  0
 41 48  1  0  0  0
 42 43  1  0  0  0
 42 66  1  0  0  0
 42114  1  0  0  0
 42115  1  0  0  0
 43 44  1  0  0  0
 44116  1  0  0  0
 45 46  2  0  0  0
 45117  1  0  0  0
 46118  1  0  0  0
 47119  1  0  0  0
 47120  1  0  0  0
 48 56  1  0  0  0
 48 65  1  0  0  0
 48121  1  0  0  0
 49 50  1  0  0  0
 49 53  1  0  0  0
 49 64  1  0  0  0
 49122  1  0  0  0
 50 51  1  0  0  0
 50123  1  0  0  0
 50124  1  0  0  0
 51 52  1  0  0  0
 51125  1  0  0  0
 51126  1  0  0  0
 52127  1  0  0  0
 52128  1  0  0  0
 53 54  1  0  0  0
 54 55  2  0  0  0
 54129  1  0  0  0
 55 57  1  0  0  0
 55130  1  0  0  0
 56 69  2  0  0  0
 57 58  2  0  0  0
 57131  1  0  0  0
 58132  1  0  0  0
 59 60  1  0  0  0
 59 61  1  0  0  0
 59 62  1  0  0  0
 60133  1  0  0  0
 60134  1  0  0  0
 60135  1  0  0  0
 61136  1  0  0  0
 61137  1  0  0  0
 61138  1  0  0  0
 62139  1  0  0  0
 62140  1  0  0  0
 62141  1  0  0  0
 63 65  1  0  0  0
 63142  1  0  0  0
 63143  1  0  0  0
 63144  1  0  0  0
 64145  1  0  0  0
 65146  1  0  0  0
 68 82  1  0  0  0
 71 72  1  0  0  0
 71 73  2  0  0  0
 71147  1  0  0  0
 72 77  1  0  0  0
 72 85  2  0  0  0
 73 83  1  0  0  0
 73 86  1  0  0  0
 74148  1  0  0  0
 74149  1  0  0  0
 74150  1  0  0  0
 74 83  1  0  0  0
 75151  1  0  0  0
 75152  1  0  0  0
 75153  1  0  0  0
 75 84  1  0  0  0
 76 84  1  0  0  0
 76154  1  0  0  0
 76155  1  0  0  0
 76156  1  0  0  0
 77 87  1  0  0  0
 77157  1  0  0  0
 77158  1  0  0  0
 78 79  1  0  0  0
 78 82  1  0  0  0
 78159  1  0  0  0
 78160  1  0  0  0
 79 83  1  0  0  0
 79161  1  0  0  0
 79162  1  0  0  0
 80 81  1  0  0  0
 80 84  1  0  0  0
 80163  1  0  0  0
 80164  1  0  0  0
 81 86  1  0  0  0
 81165  1  0  0  0
 81166  1  0  0  0
 82167  1  0  0  0
 82168  1  0  0  0
 83169  1  0  0  0
 84170  1  0  0  0
 85 86  1  0  0  0
 87171  1  0  0  0
M  ISO  4   1 100  68 101  82 101  87 100
M  END
> <chiral flag>
0

> <version>
0

> <s_m_source_file>
/data/baiqing/PycharmProjects/Reinvent-master-3.2/result/LINK_invent/BTK/process_docking_weight1_custom_sum_contain_oxygen_bond_distance_aromatic_linkinvent_7_9_3/rearranged_h_0092.sdf

> <i_m_source_file_index>
26

> <r_mmod_Potential_Energy-OPLS-2005>
230.56298828125

> <r_mmod_Stretch_Energy-OPLS-2005>
80.5509414672852

> <r_mmod_Bend_Energy-OPLS-2005>
228.855667114258

> <r_mmod_Torsional_Energy-OPLS-2005>
334.958312988281

> <r_mmod_Improper_Torsional_Energy-OPLS-2005>
15.4436979293823

> <r_mmod_Van_der_Waal_Energy-OPLS-2005>
125.373641967773

> <r_mmod_Electrostatic_Energy-OPLS-2005>
-482.364471435547

> <r_mmod_Solvation_Energy-OPLS-2005>
-197.514633178711

> <b_mmod_Minimization_Converged-OPLS-2005>
0

> <r_mmod_RMS_Derivative-OPLS-2005>
17.6101760864258

$$$$
27
                    3D
 Structure written by MMmdl.
179187  0  0  1  0            999 V2000
  -30.7460  -14.4525   20.6106 C   0  0  0  0  0  0
  -30.4213  -12.3157   19.4149 C   0  0  0  0  0  0
  -29.4908  -12.5096   18.2020 C   0  0  0  0  0  0
  -28.0147  -12.3670   18.6187 C   0  0  0  0  0  0
  -27.6616  -13.2114   19.8721 C   0  0  2  0  0  0
  -28.7055  -13.0042   20.9920 C   0  0  0  0  0  0
  -25.2580  -13.8166   20.5675 C   0  0  0  0  0  0
  -24.1838  -13.0434   20.9166 C   0  0  0  0  0  0
  -24.6405  -11.6907   20.8737 C   0  0  0  0  0  0
  -23.9074  -10.4297   21.0409 C   0  0  0  0  0  0
  -24.3623   -9.4211   21.9183 C   0  0  0  0  0  0
  -23.6295   -8.2247   22.0753 C   0  0  0  0  0  0
  -22.4278   -8.0289   21.3547 C   0  0  0  0  0  0
  -21.9919   -9.0262   20.4647 C   0  0  0  0  0  0
  -22.7248  -10.2138   20.3055 C   0  0  0  0  0  0
  -21.6855   -6.0741   22.5281 C   0  0  0  0  0  0
  -21.4017   -6.5641   23.8215 C   0  0  0  0  0  0
  -21.3657   -5.6793   24.9177 C   0  0  0  0  0  0
  -21.6043   -4.3057   24.7228 C   0  0  0  0  0  0
  -21.8818   -3.8149   23.4351 C   0  0  0  0  0  0
  -21.9196   -4.6968   22.3407 C   0  0  0  0  0  0
  -22.7865  -13.5235   21.1833 C   0  0  0  0  0  0
  -22.1662   -4.2154   21.0985 F   0  0  0  0  0  0
  -21.5630   -3.4536   25.7741 F   0  0  0  0  0  0
  -30.0381  -13.3026   20.4370 N   0  0  0  0  0  0
  -26.3033  -12.9347   20.3363 N   0  0  0  0  0  0
  -25.9335  -11.6505   20.5760 N   0  0  0  0  0  0
  -22.0507  -12.8231   22.0390 N   0  0  0  0  0  0
  -25.4286  -15.1877   20.4083 N   0  0  0  0  0  0
  -31.8575  -14.6336   20.1102 O   0  0  0  0  0  0
  -21.6640   -6.8886   21.4243 O   0  0  0  0  0  0
  -22.3558  -14.5550   20.6692 O   0  0  0  0  0  0
  -24.6202  -31.8687   23.2135 C   0  0  0  0  0  0
  -25.9078  -32.4828   23.8417 C   0  0  1  0  0  0
  -27.2152  -27.4045   20.0788 C   0  0  0  0  0  0
  -25.5904  -33.8623   24.2338 N   0  0  0  0  0  0
  -23.4074  -30.4990   21.5574 C   0  0  2  0  0  0
  -24.8467  -28.9783   20.1111 C   0  0  0  0  0  0
  -22.7438  -29.4671   22.4997 C   0  0  0  0  0  0
  -18.0272  -28.1379   22.8478 C   0  0  0  0  0  0
  -24.1490  -36.7321   23.2634 C   0  0  0  0  0  0
  -25.9453  -30.8228   21.3742 C   0  0  0  0  0  0
  -26.0165  -29.4609   20.7119 C   0  0  0  0  0  0
  -27.2035  -28.6831   20.6950 C   0  0  0  0  0  0
  -26.0174  -26.9675   19.4522 C   0  0  0  0  0  0
  -24.8441  -27.7304   19.4793 C   0  0  0  0  0  0
  -23.6138  -29.8492   20.1683 C   0  0  0  0  0  0
  -25.4105  -36.3120   24.0346 C   0  0  1  0  0  0
  -20.5868  -28.3674   23.1302 C   0  0  2  0  0  0
  -20.6775  -26.9409   22.5410 C   0  0  0  0  0  0
  -19.5756  -26.6389   21.5210 C   0  0  0  0  0  0
  -18.1925  -26.7920   22.1618 C   0  0  0  0  0  0
  -19.1520  -28.8842   23.2885 C   0  0  0  0  0  0
  -18.9451  -30.1440   23.8912 C   0  0  0  0  0  0
  -17.6456  -30.6586   24.0558 C   0  0  0  0  0  0
  -25.9040  -34.9484   23.5142 C   0  0  0  0  0  0
  -16.5346  -29.9091   23.6332 C   0  0  0  0  0  0
  -16.7261  -28.6506   23.0354 C   0  0  0  0  0  0
  -26.4483  -31.6604   25.0749 C   0  0  0  0  0  0
  -25.3735  -31.3696   26.1485 C   0  0  0  0  0  0
  -27.0306  -30.3040   24.6127 C   0  0  0  0  0  0
  -27.6069  -32.4309   25.7500 C   0  0  0  0  0  0
  -27.5585  -37.1815   24.8462 C   0  0  0  0  0  0
  -21.4164  -29.3046   22.3724 N   0  0  0  0  0  0
  -26.4298  -37.3797   23.9418 N   0  0  0  0  0  0
  -24.6766  -31.0771   22.1055 N   0  0  0  0  0  0
  -23.4201  -28.8186   23.3021 O   0  0  0  0  0  0
  -28.3464  -26.5904   20.1180 O   0  0  0  0  0  0
  -26.5609  -34.8936   22.4709 O   0  0  0  0  0  0
  -23.5393  -32.1446   23.7519 O   0  0  0  0  0  0
  -30.8097  -20.1319   21.2706 C   0  0  0  0  0  0
  -30.4175  -18.9536   20.5935 C   0  0  0  0  0  0
  -29.2370  -19.0229   19.8081 C   0  0  0  0  0  0
  -28.5412  -20.2648   19.7314 C   0  0  0  0  0  0
  -29.0599  -21.3996   20.4202 C   0  0  0  0  0  0
  -28.6872  -17.7936   19.0760 C   0  0  0  0  0  0
  -32.7660  -17.9570   20.9073 C   0  0  0  0  0  0
  -25.0850  -21.0339   14.3809 C   0  0  0  0  0  0
  -27.5527  -20.5069   14.3998 C   0  0  0  0  0  0
  -27.2366  -20.3485   18.9303 C   0  0  0  0  0  0
  -28.3147  -22.7442   20.4960 C   0  0  0  0  0  0
  -27.4769  -20.8152   17.4853 C   0  0  0  0  0  0
  -29.0929  -24.0830   20.3052 C   0  0  0  0  0  0
  -26.2351  -20.6358   16.5959 C   0  0  0  0  0  0
  -30.7491  -16.6754   21.7941 C   0  0  0  0  0  0
  -28.0608  -25.1810   19.9423 C   0  0  0  0  0  0
  -31.2664  -17.6653   20.7033 C   0  0  1  0  0  0
  -26.3993  -21.1807   15.1628 C   0  0  0  0  0  0
  -30.1587  -21.3113   21.1930 N   0  0  0  0  0  0
  -30.1374  -15.4260   21.3094 N   0  0  0  0  0  0
  -31.4637  -12.4141   19.1075 H   0  0  0  0  0  0
  -30.3250  -11.3060   19.8174 H   0  0  0  0  0  0
  -29.7312  -11.7835   17.4241 H   0  0  0  0  0  0
  -29.6560  -13.4954   17.7633 H   0  0  0  0  0  0
  -27.8305  -11.3117   18.8208 H   0  0  0  0  0  0
  -27.3611  -12.6345   17.7876 H   0  0  0  0  0  0
  -27.7027  -14.2580   19.5693 H   0  0  0  0  0  0
  -28.6813  -11.9724   21.3448 H   0  0  0  0  0  0
  -28.4612  -13.6138   21.8628 H   0  0  0  0  0  0
  -25.2768   -9.5686   22.4756 H   0  0  0  0  0  0
  -24.0004   -7.4643   22.7479 H   0  0  0  0  0  0
  -21.0847   -8.8786   19.8956 H   0  0  0  0  0  0
  -22.3712  -10.9678   19.6163 H   0  0  0  0  0  0
  -21.2006   -7.6150   23.9722 H   0  0  0  0  0  0
  -21.1477   -6.0522   25.9079 H   0  0  0  0  0  0
  -22.0598   -2.7613   23.2850 H   0  0  0  0  0  0
  -22.4115  -11.9885   22.4775 H   0  0  0  0  0  0
  -21.1126  -13.1263   22.2592 H   0  0  0  0  0  0
  -24.6605  -15.8412   20.5151 H   0  0  0  0  0  0
  -26.2829  -15.6275   20.0921 H   0  0  0  0  0  0
  -26.7142  -32.5531   23.1169 H   0  0  0  0  0  0
  -25.0059  -33.9765   25.0484 H   0  0  0  0  0  0
  -22.6980  -31.3184   21.4256 H   0  0  0  0  0  0
  -23.3758  -35.9653   23.3311 H   0  0  0  0  0  0
  -24.3577  -36.8928   22.2042 H   0  0  0  0  0  0
  -23.7255  -37.6534   23.6644 H   0  0  0  0  0  0
  -26.0703  -31.5908   20.6100 H   0  0  0  0  0  0
  -26.8302  -30.8646   21.9982 H   0  0  0  0  0  0
  -28.1021  -29.0449   21.1753 H   0  0  0  0  0  0
  -25.9391  -26.0246   18.9342 H   0  0  0  0  0  0
  -23.9485  -27.3547   19.0046 H   0  0  0  0  0  0
  -23.7254  -30.6339   19.4185 H   0  0  0  0  0  0
  -22.7335  -29.2785   19.8680 H   0  0  0  0  0  0
  -25.1278  -36.1988   25.0840 H   0  0  0  0  0  0
  -20.9939  -28.3247   24.1434 H   0  0  0  0  0  0
  -20.5701  -26.2273   23.3591 H   0  0  0  0  0  0
  -21.6640  -26.7473   22.1189 H   0  0  0  0  0  0
  -19.6931  -25.6307   21.1231 H   0  0  0  0  0  0
  -19.6711  -27.3211   20.6747 H   0  0  0  0  0  0
  -17.4196  -26.6659   21.4014 H   0  0  0  0  0  0
  -18.0328  -26.0067   22.9018 H   0  0  0  0  0  0
  -19.7930  -30.7231   24.2313 H   0  0  0  0  0  0
  -17.5020  -31.6276   24.5142 H   0  0  0  0  0  0
  -15.5351  -30.2996   23.7660 H   0  0  0  0  0  0
  -15.8656  -28.0833   22.7076 H   0  0  0  0  0  0
  -24.5931  -30.7012   25.7822 H   0  0  0  0  0  0
  -24.8882  -32.2825   26.4940 H   0  0  0  0  0  0
  -25.8064  -30.8870   27.0254 H   0  0  0  0  0  0
  -26.2851  -29.6796   24.1184 H   0  0  0  0  0  0
  -27.4071  -29.7271   25.4585 H   0  0  0  0  0  0
  -27.8694  -30.4353   23.9291 H   0  0  0  0  0  0
  -27.2728  -33.3627   26.2079 H   0  0  0  0  0  0
  -28.3867  -32.6843   25.0303 H   0  0  0  0  0  0
  -28.0752  -31.8423   26.5399 H   0  0  0  0  0  0
  -28.2607  -38.0108   24.7520 H   0  0  0  0  0  0
  -28.1080  -36.2640   24.6280 H   0  0  0  0  0  0
  -27.2303  -37.1458   25.8865 H   0  0  0  0  0  0
  -20.9330  -29.8770   21.6952 H   0  0  0  0  0  0
  -26.0197  -38.2890   24.1392 H   0  0  0  0  0  0
  -31.6834  -20.1513   21.9038 H   0  0  0  0  0  0
  -29.3706  -16.9569   18.9785 H   0  0  0  0  0  0
  -28.3952  -18.0444   18.0568 H   0  0  0  0  0  0
  -27.8078  -17.4143   19.5962 H   0  0  0  0  0  0
  -33.1459  -18.6421   20.1480 H   0  0  0  0  0  0
  -33.3459  -17.0372   20.8255 H   0  0  0  0  0  0
  -32.9812  -18.3803   21.8883 H   0  0  0  0  0  0
  -25.1676  -21.4698   13.3845 H   0  0  0  0  0  0
  -24.2624  -21.5383   14.8895 H   0  0  0  0  0  0
  -24.8069  -19.9855   14.2624 H   0  0  0  0  0  0
  -27.6140  -20.8760   13.3750 H   0  0  0  0  0  0
  -27.4257  -19.4248   14.3567 H   0  0  0  0  0  0
  -28.5184  -20.7120   14.8624 H   0  0  0  0  0  0
  -26.5038  -20.9817   19.4273 H   0  0  0  0  0  0
  -26.7356  -19.3823   18.9206 H   0  0  0  0  0  0
  -27.7877  -22.7745   21.4496 H   0  0  0  0  0  0
  -27.5398  -22.7543   19.7371 H   0  0  0  0  0  0
  -28.2987  -20.2368   17.0634 H   0  0  0  0  0  0
  -27.7992  -21.8568   17.4802 H   0  0  0  0  0  0
  -29.8242  -23.9913   19.5016 H   0  0  0  0  0  0
  -29.6349  -24.3302   21.2179 H   0  0  0  0  0  0
  -25.3920  -21.1410   17.0700 H   0  0  0  0  0  0
  -25.9674  -19.5785   16.5546 H   0  0  0  0  0  0
  -30.0394  -17.1756   22.4539 H   0  0  0  0  0  0
  -31.5739  -16.3805   22.4460 H   0  0  0  0  0  0
  -27.1788  -24.9602   20.5476 H   0  0  0  0  0  0
  -27.7939  -25.0101   18.8981 H   0  0  0  0  0  0
  -31.2584  -17.1831   19.7298 H   0  0  0  0  0  0
  -26.6221  -22.2470   15.2309 H   0  0  0  0  0  0
  -29.2074  -15.2201   21.6426 H   0  0  0  0  0  0
  1 25  1  0  0  0
  1 30  2  0  0  0
  1 90  1  0  0  0
  2  3  1  0  0  0
  2 25  1  0  0  0
  2 91  1  0  0  0
  2 92  1  0  0  0
  3  4  1  0  0  0
  3 93  1  0  0  0
  3 94  1  0  0  0
  4  5  1  0  0  0
  4 95  1  0  0  0
  4 96  1  0  0  0
  5  6  1  0  0  0
  5 26  1  0  0  0
  5 97  1  0  0  0
  6 25  1  0  0  0
  6 98  1  0  0  0
  6 99  1  0  0  0
  7  8  2  0  0  0
  7 26  1  0  0  0
  7 29  1  0  0  0
  8  9  1  0  0  0
  8 22  1  0  0  0
  9 10  1  0  0  0
  9 27  2  0  0  0
 10 11  2  0  0  0
 10 15  1  0  0  0
 11 12  1  0  0  0
 11100  1  0  0  0
 12 13  2  0  0  0
 12101  1  0  0  0
 13 14  1  0  0  0
 13 31  1  0  0  0
 14 15  2  0  0  0
 14102  1  0  0  0
 15103  1  0  0  0
 16 17  2  0  0  0
 16 21  1  0  0  0
 16 31  1  0  0  0
 17 18  1  0  0  0
 17104  1  0  0  0
 18 19  2  0  0  0
 18105  1  0  0  0
 19 20  1  0  0  0
 19 24  1  0  0  0
 20 21  2  0  0  0
 20106  1  0  0  0
 21 23  1  0  0  0
 22 28  1  0  0  0
 22 32  2  0  0  0
 26 27  1  0  0  0
 28107  1  0  0  0
 28108  1  0  0  0
 29109  1  0  0  0
 29110  1  0  0  0
 33 34  1  0  0  0
 33 66  1  0  0  0
 33 70  2  0  0  0
 34 36  1  0  0  0
 34 59  1  0  0  0
 34111  1  0  0  0
 35 44  2  0  0  0
 35 45  1  0  0  0
 35 68  1  0  0  0
 36 56  1  0  0  0
 36112  1  0  0  0
 37 39  1  0  0  0
 37 47  1  0  0  0
 37 66  1  0  0  0
 37113  1  0  0  0
 38 43  2  0  0  0
 38 46  1  0  0  0
 38 47  1  0  0  0
 39 64  1  0  0  0
 39 67  2  0  0  0
 40 52  1  0  0  0
 40 53  2  0  0  0
 40 58  1  0  0  0
 41114  1  0  0  0
 41115  1  0  0  0
 41116  1  0  0  0
 41 48  1  0  0  0
 42 43  1  0  0  0
 42 66  1  0  0  0
 42117  1  0  0  0
 42118  1  0  0  0
 43 44  1  0  0  0
 44119  1  0  0  0
 45 46  2  0  0  0
 45120  1  0  0  0
 46121  1  0  0  0
 47122  1  0  0  0
 47123  1  0  0  0
 48 56  1  0  0  0
 48 65  1  0  0  0
 48124  1  0  0  0
 49 50  1  0  0  0
 49 53  1  0  0  0
 49 64  1  0  0  0
 49125  1  0  0  0
 50 51  1  0  0  0
 50126  1  0  0  0
 50127  1  0  0  0
 51 52  1  0  0  0
 51128  1  0  0  0
 51129  1  0  0  0
 52130  1  0  0  0
 52131  1  0  0  0
 53 54  1  0  0  0
 54 55  2  0  0  0
 54132  1  0  0  0
 55 57  1  0  0  0
 55133  1  0  0  0
 56 69  2  0  0  0
 57 58  2  0  0  0
 57134  1  0  0  0
 58135  1  0  0  0
 59 60  1  0  0  0
 59 61  1  0  0  0
 59 62  1  0  0  0
 60136  1  0  0  0
 60137  1  0  0  0
 60138  1  0  0  0
 61139  1  0  0  0
 61140  1  0  0  0
 61141  1  0  0  0
 62142  1  0  0  0
 62143  1  0  0  0
 62144  1  0  0  0
 63 65  1  0  0  0
 63145  1  0  0  0
 63146  1  0  0  0
 63147  1  0  0  0
 64148  1  0  0  0
 65149  1  0  0  0
 68 86  1  0  0  0
 71 72  2  0  0  0
 71 89  1  0  0  0
 71150  1  0  0  0
 72 73  1  0  0  0
 72 87  1  0  0  0
 73 74  2  0  0  0
 73 76  1  0  0  0
 74 75  1  0  0  0
 74 80  1  0  0  0
 75 81  1  0  0  0
 75 89  2  0  0  0
 76151  1  0  0  0
 76152  1  0  0  0
 76153  1  0  0  0
 77154  1  0  0  0
 77155  1  0  0  0
 77156  1  0  0  0
 77 87  1  0  0  0
 78157  1  0  0  0
 78158  1  0  0  0
 78159  1  0  0  0
 78 88  1  0  0  0
 79 88  1  0  0  0
 79160  1  0  0  0
 79161  1  0  0  0
 79162  1  0  0  0
 80 82  1  0  0  0
 80163  1  0  0  0
 80164  1  0  0  0
 81 83  1  0  0  0
 81165  1  0  0  0
 81166  1  0  0  0
 82 84  1  0  0  0
 82167  1  0  0  0
 82168  1  0  0  0
 83 86  1  0  0  0
 83169  1  0  0  0
 83170  1  0  0  0
 84 88  1  0  0  0
 84171  1  0  0  0
 84172  1  0  0  0
 85 87  1  0  0  0
 85 90  1  0  0  0
 85173  1  0  0  0
 85174  1  0  0  0
 86175  1  0  0  0
 86176  1  0  0  0
 87177  1  0  0  0
 88178  1  0  0  0
 90179  1  0  0  0
M  ISO  4   1 100  68 101  86 101  90 100
M  END
> <chiral flag>
0

> <version>
0

> <s_m_source_file>
/data/baiqing/PycharmProjects/Reinvent-master-3.2/result/LINK_invent/BTK/process_docking_weight1_custom_sum_contain_oxygen_bond_distance_aromatic_linkinvent_7_9_3/rearranged_h_0092.sdf

> <i_m_source_file_index>
27

> <r_mmod_Potential_Energy-OPLS-2005>
-214.305923461914

> <r_mmod_Stretch_Energy-OPLS-2005>
46.6755180358887

> <r_mmod_Bend_Energy-OPLS-2005>
124.151702880859

> <r_mmod_Torsional_Energy-OPLS-2005>
222.324554443359

> <r_mmod_Improper_Torsional_Energy-OPLS-2005>
2.83039999008179

> <r_mmod_Van_der_Waal_Energy-OPLS-2005>
178.078811645508

> <r_mmod_Electrostatic_Energy-OPLS-2005>
-589.789184570312

> <r_mmod_Solvation_Energy-OPLS-2005>
-216.101760864258

> <b_mmod_Minimization_Converged-OPLS-2005>
0

> <r_mmod_RMS_Derivative-OPLS-2005>
1.5573068857193

$$$$
28
                    3D
 Structure written by MMmdl.
172180  0  0  1  0            999 V2000
  -30.6164  -14.6420   20.3615 C   0  0  0  0  0  0
  -30.4122  -12.3839   19.4104 C   0  0  0  0  0  0
  -29.4716  -12.4993   18.1918 C   0  0  0  0  0  0
  -27.9939  -12.3763   18.6134 C   0  0  0  0  0  0
  -27.6386  -13.2237   19.8652 C   0  0  2  0  0  0
  -28.7018  -13.0989   20.9792 C   0  0  0  0  0  0
  -25.2441  -13.8041   20.5787 C   0  0  0  0  0  0
  -24.1727  -13.0400   20.9249 C   0  0  0  0  0  0
  -24.6332  -11.6836   20.8781 C   0  0  0  0  0  0
  -23.9055  -10.4268   21.0375 C   0  0  0  0  0  0
  -24.3597   -9.4202   21.9179 C   0  0  0  0  0  0
  -23.6264   -8.2246   22.0772 C   0  0  0  0  0  0
  -22.4276   -8.0258   21.3552 C   0  0  0  0  0  0
  -21.9871   -9.0229   20.4676 C   0  0  0  0  0  0
  -22.7187  -10.2119   20.3053 C   0  0  0  0  0  0
  -21.6876   -6.0701   22.5255 C   0  0  0  0  0  0
  -21.4008   -6.5614   23.8188 C   0  0  0  0  0  0
  -21.3660   -5.6793   24.9162 C   0  0  0  0  0  0
  -21.6057   -4.3048   24.7240 C   0  0  0  0  0  0
  -21.8831   -3.8118   23.4363 C   0  0  0  0  0  0
  -21.9199   -4.6916   22.3409 C   0  0  0  0  0  0
  -22.7792  -13.5189   21.1922 C   0  0  0  0  0  0
  -22.1685   -4.2087   21.0996 F   0  0  0  0  0  0
  -21.5625   -3.4540   25.7770 F   0  0  0  0  0  0
  -30.0016  -13.4258   20.3709 N   0  0  0  0  0  0
  -26.2930  -12.9298   20.3376 N   0  0  0  0  0  0
  -25.9262  -11.6485   20.5785 N   0  0  0  0  0  0
  -22.0475  -12.8215   22.0457 N   0  0  0  0  0  0
  -25.4196  -15.1764   20.4288 N   0  0  0  0  0  0
  -31.8305  -14.7489   20.1500 O   0  0  0  0  0  0
  -21.6676   -6.8807   21.4226 O   0  0  0  0  0  0
  -22.3488  -14.5545   20.6750 O   0  0  0  0  0  0
  -24.6240  -31.8614   23.2001 C   0  0  0  0  0  0
  -25.9071  -32.4813   23.8361 C   0  0  1  0  0  0
  -27.2776  -27.3795   20.1602 C   0  0  0  0  0  0
  -25.5873  -33.8598   24.2322 N   0  0  0  0  0  0
  -23.4228  -30.4745   21.5340 C   0  0  2  0  0  0
  -24.8901  -28.9216   20.1299 C   0  0  0  0  0  0
  -22.7445  -29.4678   22.4919 C   0  0  0  0  0  0
  -18.0346  -28.1528   22.8520 C   0  0  0  0  0  0
  -24.1482  -36.7279   23.2656 C   0  0  0  0  0  0
  -25.9519  -30.8231   21.3654 C   0  0  0  0  0  0
  -26.0490  -29.4450   20.7219 C   0  0  0  0  0  0
  -27.2479  -28.6832   20.7194 C   0  0  0  0  0  0
  -26.1035  -26.8787   19.5690 C   0  0  0  0  0  0
  -24.9136  -27.6401   19.5439 C   0  0  0  0  0  0
  -23.6468  -29.7868   20.1577 C   0  0  0  0  0  0
  -25.4108  -36.3099   24.0357 C   0  0  1  0  0  0
  -20.5927  -28.3854   23.1306 C   0  0  2  0  0  0
  -20.6940  -26.9621   22.5410 C   0  0  0  0  0  0
  -19.5871  -26.6514   21.5266 C   0  0  0  0  0  0
  -18.2003  -26.8047   22.1635 C   0  0  0  0  0  0
  -19.1629  -28.8990   23.2902 C   0  0  0  0  0  0
  -18.9558  -30.1593   23.8862 C   0  0  0  0  0  0
  -17.6569  -30.6730   24.0623 C   0  0  0  0  0  0
  -25.9026  -34.9460   23.5149 C   0  0  0  0  0  0
  -16.5439  -29.9190   23.6495 C   0  0  0  0  0  0
  -16.7349  -28.6609   23.0503 C   0  0  0  0  0  0
  -26.4489  -31.6551   25.0708 C   0  0  0  0  0  0
  -25.3785  -31.3616   26.1490 C   0  0  0  0  0  0
  -27.0353  -30.2995   24.6070 C   0  0  0  0  0  0
  -27.6069  -32.4272   25.7507 C   0  0  0  0  0  0
  -27.5575  -37.1800   24.8484 C   0  0  0  0  0  0
  -21.4165  -29.3201   22.3634 N   0  0  0  0  0  0
  -26.4295  -37.3784   23.9409 N   0  0  0  0  0  0
  -24.6799  -31.0690   22.0936 N   0  0  0  0  0  0
  -23.4088  -28.8291   23.3127 O   0  0  0  0  0  0
  -28.4346  -26.6152   20.1259 O   0  0  0  0  0  0
  -26.5622  -34.8935   22.4744 O   0  0  0  0  0  0
  -23.5412  -32.1349   23.7302 O   0  0  0  0  0  0
  -29.8473  -19.4807   20.8555 C   0  0  0  0  0  0
  -28.7866  -20.4052   21.1071 C   0  0  0  0  0  0
  -29.3748  -18.3310   20.2578 C   0  0  0  0  0  0
  -27.6469  -19.7559   20.6960 C   0  0  0  0  0  0
  -23.8947  -20.1941   21.9203 C   0  0  0  0  0  0
  -26.7661  -18.2271   17.8234 C   0  0  0  0  0  0
  -30.3135  -17.1283   18.2316 C   0  0  0  0  0  0
  -28.8813  -21.8188   21.7344 C   0  0  0  0  0  0
  -26.2356  -20.2544   20.8656 C   0  0  0  0  0  0
  -24.8730  -19.4845   20.9562 C   0  0  0  0  0  0
  -29.6888  -22.9413   20.9684 C   0  0  0  0  0  0
  -28.9388  -24.0988   20.1957 C   0  0  0  0  0  0
  -27.1176  -17.7082   19.2406 C   0  0  0  0  0  0
  -28.5320  -25.4241   20.9606 C   0  0  0  0  0  0
  -30.1788  -17.1059   19.7660 C   0  0  2  0  0  0
  -28.0123  -18.5723   20.0227 N   0  0  0  0  0  0
  -29.7986  -15.7426   20.2698 N   0  0  0  0  0  0
  -31.4436  -12.5253   19.0828 H   0  0  0  0  0  0
  -30.3629  -11.3901   19.8586 H   0  0  0  0  0  0
  -29.7204  -11.7280   17.4622 H   0  0  0  0  0  0
  -29.6315  -13.4532   17.6827 H   0  0  0  0  0  0
  -27.8069  -11.3197   18.8071 H   0  0  0  0  0  0
  -27.3445  -12.6749   17.7844 H   0  0  0  0  0  0
  -27.6311  -14.2585   19.5356 H   0  0  0  0  0  0
  -28.7198  -12.0942   21.4044 H   0  0  0  0  0  0
  -28.4795  -13.7807   21.7986 H   0  0  0  0  0  0
  -25.2713   -9.5748   22.4777 H   0  0  0  0  0  0
  -24.0002   -7.4667   22.7509 H   0  0  0  0  0  0
  -21.0771   -8.8691   19.8986 H   0  0  0  0  0  0
  -22.3545  -10.9660   19.6188 H   0  0  0  0  0  0
  -21.2006   -7.6126   23.9631 H   0  0  0  0  0  0
  -21.1472   -6.0563   25.9058 H   0  0  0  0  0  0
  -22.0614   -2.7560   23.2910 H   0  0  0  0  0  0
  -22.4063  -11.9825   22.4770 H   0  0  0  0  0  0
  -21.1140  -13.1229   22.2712 H   0  0  0  0  0  0
  -24.6597  -15.8390   20.5524 H   0  0  0  0  0  0
  -26.2778  -15.6008   20.1104 H   0  0  0  0  0  0
  -26.7197  -32.5563   23.1185 H   0  0  0  0  0  0
  -24.9949  -33.9692   25.0420 H   0  0  0  0  0  0
  -22.7236  -31.2929   21.3683 H   0  0  0  0  0  0
  -23.3752  -35.9603   23.3356 H   0  0  0  0  0  0
  -24.3583  -36.8854   22.2064 H   0  0  0  0  0  0
  -23.7223  -37.6502   23.6642 H   0  0  0  0  0  0
  -26.0780  -31.5761   20.5857 H   0  0  0  0  0  0
  -26.8367  -30.8770   21.9863 H   0  0  0  0  0  0
  -28.1489  -29.0896   21.1532 H   0  0  0  0  0  0
  -26.1191  -25.8945   19.1271 H   0  0  0  0  0  0
  -24.0296  -27.2154   19.0810 H   0  0  0  0  0  0
  -23.7579  -30.5425   19.3805 H   0  0  0  0  0  0
  -22.7807  -29.1867   19.8756 H   0  0  0  0  0  0
  -25.1294  -36.1997   25.0852 H   0  0  0  0  0  0
  -20.9964  -28.3452   24.1435 H   0  0  0  0  0  0
  -20.5938  -26.2523   23.3570 H   0  0  0  0  0  0
  -21.6801  -26.7836   22.1160 H   0  0  0  0  0  0
  -19.7179  -25.6383   21.1439 H   0  0  0  0  0  0
  -19.6781  -27.3373   20.6799 H   0  0  0  0  0  0
  -17.4411  -26.6918   21.3898 H   0  0  0  0  0  0
  -18.0213  -26.0119   22.8937 H   0  0  0  0  0  0
  -19.8092  -30.7427   24.2113 H   0  0  0  0  0  0
  -17.5264  -31.6351   24.5295 H   0  0  0  0  0  0
  -15.5506  -30.3065   23.7918 H   0  0  0  0  0  0
  -15.8781  -28.0879   22.7305 H   0  0  0  0  0  0
  -24.5982  -30.6929   25.7842 H   0  0  0  0  0  0
  -24.8945  -32.2743   26.4968 H   0  0  0  0  0  0
  -25.8181  -30.8799   27.0223 H   0  0  0  0  0  0
  -26.2867  -29.6760   24.1136 H   0  0  0  0  0  0
  -27.4189  -29.7258   25.4515 H   0  0  0  0  0  0
  -27.8693  -30.4383   23.9181 H   0  0  0  0  0  0
  -27.2667  -33.3571   26.2070 H   0  0  0  0  0  0
  -28.3871  -32.6788   25.0316 H   0  0  0  0  0  0
  -28.0706  -31.8376   26.5427 H   0  0  0  0  0  0
  -28.2643  -38.0046   24.7511 H   0  0  0  0  0  0
  -28.1020  -36.2592   24.6352 H   0  0  0  0  0  0
  -27.2282  -37.1502   25.8882 H   0  0  0  0  0  0
  -20.9473  -29.8487   21.6462 H   0  0  0  0  0  0
  -26.0206  -38.2884   24.1363 H   0  0  0  0  0  0
  -30.8924  -19.6875   21.0509 H   0  0  0  0  0  0
  -22.9375  -19.6809   22.0204 H   0  0  0  0  0  0
  -23.6619  -21.1961   21.5516 H   0  0  0  0  0  0
  -24.3153  -20.2840   22.9316 H   0  0  0  0  0  0
  -25.7360  -18.5976   17.7520 H   0  0  0  0  0  0
  -26.7844  -17.4189   17.0914 H   0  0  0  0  0  0
  -27.4614  -18.9783   17.4552 H   0  0  0  0  0  0
  -29.6970  -16.3850   17.7338 H   0  0  0  0  0  0
  -31.3434  -16.9948   17.9004 H   0  0  0  0  0  0
  -30.0198  -18.0984   17.8404 H   0  0  0  0  0  0
  -29.3516  -21.6743   22.7065 H   0  0  0  0  0  0
  -27.8948  -22.1965   21.9962 H   0  0  0  0  0  0
  -26.3940  -19.7190   21.8103 H   0  0  0  0  0  0
  -26.1570  -20.0881   19.7899 H   0  0  0  0  0  0
  -24.3931  -19.3956   19.9709 H   0  0  0  0  0  0
  -25.0122  -18.4522   21.2825 H   0  0  0  0  0  0
  -30.4140  -22.4618   20.3004 H   0  0  0  0  0  0
  -30.3377  -23.4175   21.7025 H   0  0  0  0  0  0
  -28.0665  -23.6730   19.6956 H   0  0  0  0  0  0
  -29.6099  -24.3979   19.3842 H   0  0  0  0  0  0
  -26.1959  -17.5533   19.7857 H   0  0  0  0  0  0
  -27.5643  -16.7262   19.1807 H   0  0  0  0  0  0
  -29.3212  -25.6458   21.6823 H   0  0  0  0  0  0
  -27.6327  -25.2797   21.5649 H   0  0  0  0  0  0
  -31.1937  -17.2649   20.1164 H   0  0  0  0  0  0
  -28.8105  -15.5813   20.3698 H   0  0  0  0  0  0
  1 25  1  0  0  0
  1 30  2  0  0  0
  1 87  1  0  0  0
  2  3  1  0  0  0
  2 25  1  0  0  0
  2 88  1  0  0  0
  2 89  1  0  0  0
  3  4  1  0  0  0
  3 90  1  0  0  0
  3 91  1  0  0  0
  4  5  1  0  0  0
  4 92  1  0  0  0
  4 93  1  0  0  0
  5  6  1  0  0  0
  5 26  1  0  0  0
  5 94  1  0  0  0
  6 25  1  0  0  0
  6 95  1  0  0  0
  6 96  1  0  0  0
  7  8  2  0  0  0
  7 26  1  0  0  0
  7 29  1  0  0  0
  8  9  1  0  0  0
  8 22  1  0  0  0
  9 10  1  0  0  0
  9 27  2  0  0  0
 10 11  2  0  0  0
 10 15  1  0  0  0
 11 12  1  0  0  0
 11 97  1  0  0  0
 12 13  2  0  0  0
 12 98  1  0  0  0
 13 14  1  0  0  0
 13 31  1  0  0  0
 14 15  2  0  0  0
 14 99  1  0  0  0
 15100  1  0  0  0
 16 17  2  0  0  0
 16 21  1  0  0  0
 16 31  1  0  0  0
 17 18  1  0  0  0
 17101  1  0  0  0
 18 19  2  0  0  0
 18102  1  0  0  0
 19 20  1  0  0  0
 19 24  1  0  0  0
 20 21  2  0  0  0
 20103  1  0  0  0
 21 23  1  0  0  0
 22 28  1  0  0  0
 22 32  2  0  0  0
 26 27  1  0  0  0
 28104  1  0  0  0
 28105  1  0  0  0
 29106  1  0  0  0
 29107  1  0  0  0
 33 34  1  0  0  0
 33 66  1  0  0  0
 33 70  2  0  0  0
 34 36  1  0  0  0
 34 59  1  0  0  0
 34108  1  0  0  0
 35 44  2  0  0  0
 35 45  1  0  0  0
 35 68  1  0  0  0
 36 56  1  0  0  0
 36109  1  0  0  0
 37 39  1  0  0  0
 37 47  1  0  0  0
 37 66  1  0  0  0
 37110  1  0  0  0
 38 43  2  0  0  0
 38 46  1  0  0  0
 38 47  1  0  0  0
 39 64  1  0  0  0
 39 67  2  0  0  0
 40 52  1  0  0  0
 40 53  2  0  0  0
 40 58  1  0  0  0
 41111  1  0  0  0
 41112  1  0  0  0
 41113  1  0  0  0
 41 48  1  0  0  0
 42 43  1  0  0  0
 42 66  1  0  0  0
 42114  1  0  0  0
 42115  1  0  0  0
 43 44  1  0  0  0
 44116  1  0  0  0
 45 46  2  0  0  0
 45117  1  0  0  0
 46118  1  0  0  0
 47119  1  0  0  0
 47120  1  0  0  0
 48 56  1  0  0  0
 48 65  1  0  0  0
 48121  1  0  0  0
 49 50  1  0  0  0
 49 53  1  0  0  0
 49 64  1  0  0  0
 49122  1  0  0  0
 50 51  1  0  0  0
 50123  1  0  0  0
 50124  1  0  0  0
 51 52  1  0  0  0
 51125  1  0  0  0
 51126  1  0  0  0
 52127  1  0  0  0
 52128  1  0  0  0
 53 54  1  0  0  0
 54 55  2  0  0  0
 54129  1  0  0  0
 55 57  1  0  0  0
 55130  1  0  0  0
 56 69  2  0  0  0
 57 58  2  0  0  0
 57131  1  0  0  0
 58132  1  0  0  0
 59 60  1  0  0  0
 59 61  1  0  0  0
 59 62  1  0  0  0
 60133  1  0  0  0
 60134  1  0  0  0
 60135  1  0  0  0
 61136  1  0  0  0
 61137  1  0  0  0
 61138  1  0  0  0
 62139  1  0  0  0
 62140  1  0  0  0
 62141  1  0  0  0
 63 65  1  0  0  0
 63142  1  0  0  0
 63143  1  0  0  0
 63144  1  0  0  0
 64145  1  0  0  0
 65146  1  0  0  0
 68 84  1  0  0  0
 71 72  1  0  0  0
 71 73  2  0  0  0
 71147  1  0  0  0
 72 74  2  0  0  0
 72 78  1  0  0  0
 73 85  1  0  0  0
 73 86  1  0  0  0
 74 79  1  0  0  0
 74 86  1  0  0  0
 75 80  1  0  0  0
 75148  1  0  0  0
 75149  1  0  0  0
 75150  1  0  0  0
 76 83  1  0  0  0
 76151  1  0  0  0
 76152  1  0  0  0
 76153  1  0  0  0
 77154  1  0  0  0
 77155  1  0  0  0
 77156  1  0  0  0
 77 85  1  0  0  0
 78 81  1  0  0  0
 78157  1  0  0  0
 78158  1  0  0  0
 79 80  1  0  0  0
 79159  1  0  0  0
 79160  1  0  0  0
 80161  1  0  0  0
 80162  1  0  0  0
 81 82  1  0  0  0
 81163  1  0  0  0
 81164  1  0  0  0
 82 84  1  0  0  0
 82165  1  0  0  0
 82166  1  0  0  0
 83 86  1  0  0  0
 83167  1  0  0  0
 83168  1  0  0  0
 84169  1  0  0  0
 84170  1  0  0  0
 85 87  1  0  0  0
 85171  1  0  0  0
 87172  1  0  0  0
M  ISO  4   1 100  68 101  84 101  87 100
M  END
> <chiral flag>
0

> <version>
0

> <s_m_source_file>
/data/baiqing/PycharmProjects/Reinvent-master-3.2/result/LINK_invent/BTK/process_docking_weight1_custom_sum_contain_oxygen_bond_distance_aromatic_linkinvent_7_9_3/rearranged_h_0092.sdf

> <i_m_source_file_index>
28

> <r_mmod_Potential_Energy-OPLS-2005>
322.078094482422

> <r_mmod_Stretch_Energy-OPLS-2005>
66.6100082397461

> <r_mmod_Bend_Energy-OPLS-2005>
391.426727294922

> <r_mmod_Torsional_Energy-OPLS-2005>
316.241729736328

> <r_mmod_Improper_Torsional_Energy-OPLS-2005>
9.36776161193848

> <r_mmod_Van_der_Waal_Energy-OPLS-2005>
118.697471618652

> <r_mmod_Electrostatic_Energy-OPLS-2005>
-430.325592041016

> <r_mmod_Solvation_Energy-OPLS-2005>
-196.417251586914

> <b_mmod_Minimization_Converged-OPLS-2005>
0

> <r_mmod_RMS_Derivative-OPLS-2005>
15.1625003814697

$$$$
29
                    3D
 Structure written by MMmdl.
173181  0  0  1  0            999 V2000
  -30.6008  -14.7552   20.5069 C   0  0  0  0  0  0
  -30.4511  -12.4730   19.4562 C   0  0  0  0  0  0
  -29.5156  -12.5265   18.2251 C   0  0  0  0  0  0
  -28.0446  -12.3388   18.6486 C   0  0  0  0  0  0
  -27.6493  -13.2290   19.8556 C   0  0  2  0  0  0
  -28.6974  -13.1538   20.9853 C   0  0  0  0  0  0
  -25.2561  -13.8176   20.5690 C   0  0  0  0  0  0
  -24.1825  -13.0477   20.9173 C   0  0  0  0  0  0
  -24.6410  -11.6930   20.8722 C   0  0  0  0  0  0
  -23.9088  -10.4321   21.0420 C   0  0  0  0  0  0
  -24.3624   -9.4232   21.9198 C   0  0  0  0  0  0
  -23.6298   -8.2264   22.0770 C   0  0  0  0  0  0
  -22.4278   -8.0294   21.3554 C   0  0  0  0  0  0
  -21.9910   -9.0280   20.4652 C   0  0  0  0  0  0
  -22.7251  -10.2156   20.3066 C   0  0  0  0  0  0
  -21.6871   -6.0736   22.5262 C   0  0  0  0  0  0
  -21.4027   -6.5628   23.8205 C   0  0  0  0  0  0
  -21.3662   -5.6772   24.9170 C   0  0  0  0  0  0
  -21.6046   -4.3046   24.7210 C   0  0  0  0  0  0
  -21.8826   -3.8138   23.4334 C   0  0  0  0  0  0
  -21.9200   -4.6955   22.3396 C   0  0  0  0  0  0
  -22.7833  -13.5260   21.1813 C   0  0  0  0  0  0
  -22.1674   -4.2145   21.0969 F   0  0  0  0  0  0
  -21.5630   -3.4541   25.7715 F   0  0  0  0  0  0
  -29.9957  -13.5213   20.3989 N   0  0  0  0  0  0
  -26.2995  -12.9371   20.3318 N   0  0  0  0  0  0
  -25.9345  -11.6514   20.5759 N   0  0  0  0  0  0
  -22.0466  -12.8314   22.0378 N   0  0  0  0  0  0
  -25.4293  -15.1902   20.4085 N   0  0  0  0  0  0
  -31.7946  -14.8976   20.2318 O   0  0  0  0  0  0
  -21.6636   -6.8885   21.4218 O   0  0  0  0  0  0
  -22.3551  -14.5569   20.6641 O   0  0  0  0  0  0
  -24.6370  -31.8539   23.2009 C   0  0  0  0  0  0
  -25.9179  -32.4760   23.8344 C   0  0  1  0  0  0
  -27.2109  -27.2039   20.1671 C   0  0  0  0  0  0
  -25.5957  -33.8550   24.2260 N   0  0  0  0  0  0
  -23.4367  -30.4779   21.5439 C   0  0  2  0  0  0
  -24.8905  -28.9206   20.1261 C   0  0  0  0  0  0
  -22.7528  -29.4594   22.4900 C   0  0  0  0  0  0
  -18.0320  -28.1336   22.8531 C   0  0  0  0  0  0
  -24.1498  -36.7296   23.2627 C   0  0  0  0  0  0
  -25.9892  -30.7426   21.4026 C   0  0  0  0  0  0
  -26.0598  -29.3520   20.7678 C   0  0  0  0  0  0
  -27.2251  -28.5002   20.7971 C   0  0  0  0  0  0
  -26.0426  -26.8989   19.4391 C   0  0  0  0  0  0
  -24.8896  -27.6972   19.4469 C   0  0  0  0  0  0
  -23.6661  -29.8148   20.1610 C   0  0  0  0  0  0
  -25.4123  -36.3065   24.0323 C   0  0  1  0  0  0
  -20.5927  -28.3649   23.1274 C   0  0  2  0  0  0
  -20.6790  -26.9367   22.5395 C   0  0  0  0  0  0
  -19.5744  -26.6362   21.5208 C   0  0  0  0  0  0
  -18.1937  -26.7895   22.1646 C   0  0  0  0  0  0
  -19.1571  -28.8813   23.2901 C   0  0  0  0  0  0
  -18.9478  -30.1431   23.8900 C   0  0  0  0  0  0
  -17.6466  -30.6543   24.0549 C   0  0  0  0  0  0
  -25.9064  -34.9437   23.5085 C   0  0  0  0  0  0
  -16.5371  -29.9024   23.6319 C   0  0  0  0  0  0
  -16.7300  -28.6432   23.0364 C   0  0  0  0  0  0
  -26.4528  -31.6566   25.0730 C   0  0  0  0  0  0
  -25.3780  -31.3711   26.1459 C   0  0  0  0  0  0
  -27.0302  -30.2937   24.6248 C   0  0  0  0  0  0
  -27.6031  -32.4331   25.7541 C   0  0  0  0  0  0
  -27.5586  -37.1802   24.8456 C   0  0  0  0  0  0
  -21.4236  -29.3017   22.3659 N   0  0  0  0  0  0
  -26.4293  -37.3775   23.9415 N   0  0  0  0  0  0
  -24.7062  -31.0452   22.1045 N   0  0  0  0  0  0
  -23.4211  -28.8119   23.2998 O   0  0  0  0  0  0
  -28.2447  -26.2471   19.9845 O   0  0  0  0  0  0
  -26.5617  -34.8919   22.4650 O   0  0  0  0  0  0
  -23.5516  -32.1380   23.7284 O   0  0  0  0  0  0
  -29.5376  -21.2605   20.9527 C   0  0  0  0  0  0
  -28.5500  -22.3579   20.9747 C   0  0  0  0  0  0
  -27.2516  -21.8709   20.5597 C   0  0  0  0  0  0
  -29.2476  -19.9005   20.5103 C   0  0  0  0  0  0
  -27.1260  -20.6130   19.8954 C   0  0  0  0  0  0
  -25.5528  -23.6778   20.0080 C   0  0  0  0  0  0
  -25.1347  -19.0138   19.5278 C   0  0  0  0  0  0
  -26.3736  -20.0496   17.5439 C   0  0  0  0  0  0
  -27.8574  -24.0607   22.8604 C   0  0  0  0  0  0
  -30.2000  -23.7094   22.3810 C   0  0  0  0  0  0
  -25.9272  -22.5388   20.9295 C   0  0  0  0  0  0
  -30.1962  -18.6086   20.4093 C   0  0  0  0  0  0
  -29.9380  -17.2688   21.2941 C   0  0  0  0  0  0
  -28.9758  -25.3680   20.9644 C   0  0  0  0  0  0
  -25.9266  -20.2299   19.0068 C   0  0  0  0  0  0
  -28.8201  -23.8413   21.6716 C   0  0  0  0  0  0
  -28.0738  -19.6609   19.9233 N   0  0  0  0  0  0
  -29.7720  -15.8399   20.7406 N   0  0  0  0  0  0
  -31.4932  -12.6172   19.1569 H   0  0  0  0  0  0
  -30.4083  -11.4895   19.9283 H   0  0  0  0  0  0
  -29.7950  -11.7622   17.4983 H   0  0  0  0  0  0
  -29.6281  -13.4839   17.7130 H   0  0  0  0  0  0
  -27.9107  -11.2887   18.9099 H   0  0  0  0  0  0
  -27.3797  -12.5310   17.8064 H   0  0  0  0  0  0
  -27.6462  -14.2524   19.4802 H   0  0  0  0  0  0
  -28.7379  -12.1533   21.4178 H   0  0  0  0  0  0
  -28.4335  -13.8234   21.8059 H   0  0  0  0  0  0
  -25.2772   -9.5704   22.4768 H   0  0  0  0  0  0
  -24.0009   -7.4651   22.7488 H   0  0  0  0  0  0
  -21.0841   -8.8799   19.8948 H   0  0  0  0  0  0
  -22.3721  -10.9694   19.6161 H   0  0  0  0  0  0
  -21.2025   -7.6144   23.9706 H   0  0  0  0  0  0
  -21.1477   -6.0510   25.9066 H   0  0  0  0  0  0
  -22.0602   -2.7600   23.2824 H   0  0  0  0  0  0
  -22.4056  -11.9999   22.4814 H   0  0  0  0  0  0
  -21.1082  -13.1361   22.2531 H   0  0  0  0  0  0
  -24.6575  -15.8442   20.4808 H   0  0  0  0  0  0
  -26.2853  -15.6203   20.0843 H   0  0  0  0  0  0
  -26.7233  -32.5410   23.1063 H   0  0  0  0  0  0
  -25.0090  -33.9672   25.0384 H   0  0  0  0  0  0
  -22.7376  -31.3042   21.3932 H   0  0  0  0  0  0
  -23.3759  -35.9631   23.3295 H   0  0  0  0  0  0
  -24.3585  -36.8912   22.2043 H   0  0  0  0  0  0
  -23.7267  -37.6506   23.6648 H   0  0  0  0  0  0
  -26.1276  -31.4891   20.6202 H   0  0  0  0  0  0
  -26.8700  -30.8053   22.0284 H   0  0  0  0  0  0
  -28.1278  -28.8319   21.2892 H   0  0  0  0  0  0
  -26.0168  -26.0170   18.8186 H   0  0  0  0  0  0
  -24.0185  -27.3821   18.8879 H   0  0  0  0  0  0
  -23.8029  -30.5928   19.4090 H   0  0  0  0  0  0
  -22.7822  -29.2561   19.8465 H   0  0  0  0  0  0
  -25.1313  -36.1892   25.0824 H   0  0  0  0  0  0
  -21.0057  -28.3207   24.1362 H   0  0  0  0  0  0
  -20.5664  -26.2255   23.3597 H   0  0  0  0  0  0
  -21.6655  -26.7332   22.1192 H   0  0  0  0  0  0
  -19.6885  -25.6273   21.1211 H   0  0  0  0  0  0
  -19.6665  -27.3190   20.6763 H   0  0  0  0  0  0
  -17.4203  -26.6703   21.4039 H   0  0  0  0  0  0
  -18.0310  -25.9995   22.9003 H   0  0  0  0  0  0
  -19.7939  -30.7273   24.2255 H   0  0  0  0  0  0
  -17.4979  -31.6213   24.5146 H   0  0  0  0  0  0
  -15.5348  -30.2889   23.7605 H   0  0  0  0  0  0
  -15.8729  -28.0712   22.7071 H   0  0  0  0  0  0
  -24.6005  -30.6980   25.7823 H   0  0  0  0  0  0
  -24.8929  -32.2865   26.4858 H   0  0  0  0  0  0
  -25.8175  -30.8949   27.0232 H   0  0  0  0  0  0
  -26.2814  -29.6733   24.1309 H   0  0  0  0  0  0
  -27.3899  -29.7176   25.4777 H   0  0  0  0  0  0
  -27.8780  -30.4087   23.9502 H   0  0  0  0  0  0
  -27.2573  -33.3637   26.2065 H   0  0  0  0  0  0
  -28.3918  -32.6902   25.0452 H   0  0  0  0  0  0
  -28.0625  -31.8504   26.5538 H   0  0  0  0  0  0
  -28.2569  -38.0125   24.7527 H   0  0  0  0  0  0
  -28.1123  -36.2653   24.6266 H   0  0  0  0  0  0
  -27.2301  -37.1434   25.8853 H   0  0  0  0  0  0
  -20.9399  -29.8793   21.6914 H   0  0  0  0  0  0
  -26.0172  -38.2839   24.1438 H   0  0  0  0  0  0
  -30.5365  -21.4235   21.3303 H   0  0  0  0  0  0
  -25.4042  -23.3371   18.9845 H   0  0  0  0  0  0
  -26.3653  -24.3931   20.0186 H   0  0  0  0  0  0
  -24.6382  -24.1723   20.3390 H   0  0  0  0  0  0
  -24.7482  -19.1909   20.5313 H   0  0  0  0  0  0
  -25.7454  -18.1107   19.5597 H   0  0  0  0  0  0
  -24.2883  -18.8091   18.8689 H   0  0  0  0  0  0
  -26.9015  -20.9373   17.1913 H   0  0  0  0  0  0
  -25.5183  -19.8942   16.8873 H   0  0  0  0  0  0
  -27.0451  -19.1975   17.4279 H   0  0  0  0  0  0
  -26.9237  -24.5099   22.5288 H   0  0  0  0  0  0
  -28.2526  -24.7593   23.5999 H   0  0  0  0  0  0
  -27.6535  -23.1350   23.4010 H   0  0  0  0  0  0
  -30.4685  -24.5983   22.9579 H   0  0  0  0  0  0
  -31.0133  -23.5654   21.6677 H   0  0  0  0  0  0
  -30.2314  -22.8746   23.0804 H   0  0  0  0  0  0
  -25.8855  -22.8247   21.9692 H   0  0  0  0  0  0
  -25.1246  -21.8038   20.9334 H   0  0  0  0  0  0
  -31.2139  -18.9406   20.6122 H   0  0  0  0  0  0
  -30.2100  -18.3050   19.3621 H   0  0  0  0  0  0
  -30.7041  -17.2201   22.0701 H   0  0  0  0  0  0
  -29.0188  -17.4611   21.8483 H   0  0  0  0  0  0
  -29.9460  -25.3285   20.4670 H   0  0  0  0  0  0
  -29.1492  -26.0590   21.7898 H   0  0  0  0  0  0
  -25.2225  -21.0540   18.9594 H   0  0  0  0  0  0
  -28.8069  -15.5493   20.7199 H   0  0  0  0  0  0
  1 25  1  0  0  0
  1 30  2  0  0  0
  1 88  1  0  0  0
  2  3  1  0  0  0
  2 25  1  0  0  0
  2 89  1  0  0  0
  2 90  1  0  0  0
  3  4  1  0  0  0
  3 91  1  0  0  0
  3 92  1  0  0  0
  4  5  1  0  0  0
  4 93  1  0  0  0
  4 94  1  0  0  0
  5  6  1  0  0  0
  5 26  1  0  0  0
  5 95  1  0  0  0
  6 25  1  0  0  0
  6 96  1  0  0  0
  6 97  1  0  0  0
  7  8  2  0  0  0
  7 26  1  0  0  0
  7 29  1  0  0  0
  8  9  1  0  0  0
  8 22  1  0  0  0
  9 10  1  0  0  0
  9 27  2  0  0  0
 10 11  2  0  0  0
 10 15  1  0  0  0
 11 12  1  0  0  0
 11 98  1  0  0  0
 12 13  2  0  0  0
 12 99  1  0  0  0
 13 14  1  0  0  0
 13 31  1  0  0  0
 14 15  2  0  0  0
 14100  1  0  0  0
 15101  1  0  0  0
 16 17  2  0  0  0
 16 21  1  0  0  0
 16 31  1  0  0  0
 17 18  1  0  0  0
 17102  1  0  0  0
 18 19  2  0  0  0
 18103  1  0  0  0
 19 20  1  0  0  0
 19 24  1  0  0  0
 20 21  2  0  0  0
 20104  1  0  0  0
 21 23  1  0  0  0
 22 28  1  0  0  0
 22 32  2  0  0  0
 26 27  1  0  0  0
 28105  1  0  0  0
 28106  1  0  0  0
 29107  1  0  0  0
 29108  1  0  0  0
 33 34  1  0  0  0
 33 66  1  0  0  0
 33 70  2  0  0  0
 34 36  1  0  0  0
 34 59  1  0  0  0
 34109  1  0  0  0
 35 44  2  0  0  0
 35 45  1  0  0  0
 35 68  1  0  0  0
 36 56  1  0  0  0
 36110  1  0  0  0
 37 39  1  0  0  0
 37 47  1  0  0  0
 37 66  1  0  0  0
 37111  1  0  0  0
 38 43  2  0  0  0
 38 46  1  0  0  0
 38 47  1  0  0  0
 39 64  1  0  0  0
 39 67  2  0  0  0
 40 52  1  0  0  0
 40 53  2  0  0  0
 40 58  1  0  0  0
 41112  1  0  0  0
 41113  1  0  0  0
 41114  1  0  0  0
 41 48  1  0  0  0
 42 43  1  0  0  0
 42 66  1  0  0  0
 42115  1  0  0  0
 42116  1  0  0  0
 43 44  1  0  0  0
 44117  1  0  0  0
 45 46  2  0  0  0
 45118  1  0  0  0
 46119  1  0  0  0
 47120  1  0  0  0
 47121  1  0  0  0
 48 56  1  0  0  0
 48 65  1  0  0  0
 48122  1  0  0  0
 49 50  1  0  0  0
 49 53  1  0  0  0
 49 64  1  0  0  0
 49123  1  0  0  0
 50 51  1  0  0  0
 50124  1  0  0  0
 50125  1  0  0  0
 51 52  1  0  0  0
 51126  1  0  0  0
 51127  1  0  0  0
 52128  1  0  0  0
 52129  1  0  0  0
 53 54  1  0  0  0
 54 55  2  0  0  0
 54130  1  0  0  0
 55 57  1  0  0  0
 55131  1  0  0  0
 56 69  2  0  0  0
 57 58  2  0  0  0
 57132  1  0  0  0
 58133  1  0  0  0
 59 60  1  0  0  0
 59 61  1  0  0  0
 59 62  1  0  0  0
 60134  1  0  0  0
 60135  1  0  0  0
 60136  1  0  0  0
 61137  1  0  0  0
 61138  1  0  0  0
 61139  1  0  0  0
 62140  1  0  0  0
 62141  1  0  0  0
 62142  1  0  0  0
 63 65  1  0  0  0
 63143  1  0  0  0
 63144  1  0  0  0
 63145  1  0  0  0
 64146  1  0  0  0
 65147  1  0  0  0
 68 84  1  0  0  0
 71 72  2  0  0  0
 71 74  1  0  0  0
 71148  1  0  0  0
 72 73  1  0  0  0
 72 86  1  0  0  0
 73 75  2  0  0  0
 73 81  1  0  0  0
 74 82  1  0  0  0
 74 87  2  0  0  0
 75 85  1  0  0  0
 75 87  1  0  0  0
 76 81  1  0  0  0
 76149  1  0  0  0
 76150  1  0  0  0
 76151  1  0  0  0
 77152  1  0  0  0
 77153  1  0  0  0
 77154  1  0  0  0
 77 85  1  0  0  0
 78 85  1  0  0  0
 78155  1  0  0  0
 78156  1  0  0  0
 78157  1  0  0  0
 79158  1  0  0  0
 79159  1  0  0  0
 79160  1  0  0  0
 79 86  1  0  0  0
 80 86  1  0  0  0
 80161  1  0  0  0
 80162  1  0  0  0
 80163  1  0  0  0
 81164  1  0  0  0
 81165  1  0  0  0
 82 83  1  0  0  0
 82166  1  0  0  0
 82167  1  0  0  0
 83 88  1  0  0  0
 83168  1  0  0  0
 83169  1  0  0  0
 84 86  1  0  0  0
 84170  1  0  0  0
 84171  1  0  0  0
 85172  1  0  0  0
 88173  1  0  0  0
M  ISO  4   1 100  68 101  84 101  88 100
M  END
> <chiral flag>
0

> <version>
0

> <s_m_source_file>
/data/baiqing/PycharmProjects/Reinvent-master-3.2/result/LINK_invent/BTK/process_docking_weight1_custom_sum_contain_oxygen_bond_distance_aromatic_linkinvent_7_9_3/rearranged_h_0092.sdf

> <i_m_source_file_index>
29

> <r_mmod_Potential_Energy-OPLS-2005>
328.917846679688

> <r_mmod_Stretch_Energy-OPLS-2005>
186.811187744141

> <r_mmod_Bend_Energy-OPLS-2005>
365.80859375

> <r_mmod_Torsional_Energy-OPLS-2005>
263.636016845703

> <r_mmod_Improper_Torsional_Energy-OPLS-2005>
8.83255577087402

> <r_mmod_Van_der_Waal_Energy-OPLS-2005>
153.23503112793

> <r_mmod_Electrostatic_Energy-OPLS-2005>
-551.3525390625

> <r_mmod_Solvation_Energy-OPLS-2005>
-206.555801391602

> <b_mmod_Minimization_Converged-OPLS-2005>
0

> <r_mmod_RMS_Derivative-OPLS-2005>
5.69292306900024

$$$$
30
                    3D
 Structure written by MMmdl.
173181  0  0  1  0            999 V2000
  -30.7014  -14.4807   20.5633 C   0  0  0  0  0  0
  -30.4252  -12.3139   19.4198 C   0  0  0  0  0  0
  -29.4931  -12.4985   18.2050 C   0  0  0  0  0  0
  -28.0164  -12.3514   18.6209 C   0  0  0  0  0  0
  -27.6586  -13.2024   19.8682 C   0  0  2  0  0  0
  -28.7018  -13.0007   20.9904 C   0  0  0  0  0  0
  -25.2584  -13.8146   20.5659 C   0  0  0  0  0  0
  -24.1829  -13.0437   20.9165 C   0  0  0  0  0  0
  -24.6374  -11.6900   20.8722 C   0  0  0  0  0  0
  -23.9044  -10.4291   21.0402 C   0  0  0  0  0  0
  -24.3594   -9.4215   21.9186 C   0  0  0  0  0  0
  -23.6277   -8.2252   22.0759 C   0  0  0  0  0  0
  -22.4263   -8.0286   21.3545 C   0  0  0  0  0  0
  -21.9880   -9.0259   20.4650 C   0  0  0  0  0  0
  -22.7207  -10.2134   20.3062 C   0  0  0  0  0  0
  -21.6857   -6.0734   22.5274 C   0  0  0  0  0  0
  -21.4015   -6.5633   23.8207 C   0  0  0  0  0  0
  -21.3659   -5.6785   24.9168 C   0  0  0  0  0  0
  -21.6045   -4.3051   24.7222 C   0  0  0  0  0  0
  -21.8819   -3.8142   23.4348 C   0  0  0  0  0  0
  -21.9192   -4.6960   22.3400 C   0  0  0  0  0  0
  -22.7859  -13.5263   21.1829 C   0  0  0  0  0  0
  -22.1663   -4.2141   21.0981 F   0  0  0  0  0  0
  -21.5635   -3.4538   25.7746 F   0  0  0  0  0  0
  -30.0331  -13.3028   20.4352 N   0  0  0  0  0  0
  -26.3002  -12.9302   20.3324 N   0  0  0  0  0  0
  -25.9296  -11.6471   20.5742 N   0  0  0  0  0  0
  -22.0476  -12.8280   22.0379 N   0  0  0  0  0  0
  -25.4324  -15.1867   20.4073 N   0  0  0  0  0  0
  -31.8301  -14.6697   20.1033 O   0  0  0  0  0  0
  -21.6642   -6.8878   21.4237 O   0  0  0  0  0  0
  -22.3572  -14.5584   20.6689 O   0  0  0  0  0  0
  -24.6141  -31.8685   23.2095 C   0  0  0  0  0  0
  -25.9029  -32.4828   23.8397 C   0  0  1  0  0  0
  -27.2349  -27.4456   20.0955 C   0  0  0  0  0  0
  -25.5876  -33.8624   24.2325 N   0  0  0  0  0  0
  -23.4021  -30.4903   21.5511 C   0  0  2  0  0  0
  -24.8475  -28.9551   20.1157 C   0  0  0  0  0  0
  -22.7413  -29.4655   22.5003 C   0  0  0  0  0  0
  -18.0275  -28.1376   22.8502 C   0  0  0  0  0  0
  -24.1476  -36.7325   23.2633 C   0  0  0  0  0  0
  -25.9276  -30.8393   21.3567 C   0  0  0  0  0  0
  -26.0075  -29.4729   20.7066 C   0  0  0  0  0  0
  -27.2071  -28.7273   20.6886 C   0  0  0  0  0  0
  -26.0612  -26.9364   19.5027 C   0  0  0  0  0  0
  -24.8692  -27.6858   19.5097 C   0  0  0  0  0  0
  -23.6089  -29.8203   20.1661 C   0  0  0  0  0  0
  -25.4094  -36.3113   24.0338 C   0  0  1  0  0  0
  -20.5864  -28.3660   23.1323 C   0  0  2  0  0  0
  -20.6762  -26.9400   22.5414 C   0  0  0  0  0  0
  -19.5732  -26.6390   21.5215 C   0  0  0  0  0  0
  -18.1915  -26.7926   22.1635 C   0  0  0  0  0  0
  -19.1524  -28.8840   23.2912 C   0  0  0  0  0  0
  -18.9450  -30.1445   23.8917 C   0  0  0  0  0  0
  -17.6450  -30.6583   24.0575 C   0  0  0  0  0  0
  -25.9025  -34.9481   23.5137 C   0  0  0  0  0  0
  -16.5343  -29.9085   23.6322 C   0  0  0  0  0  0
  -16.7265  -28.6506   23.0344 C   0  0  0  0  0  0
  -26.4461  -31.6604   25.0721 C   0  0  0  0  0  0
  -25.3747  -31.3710   26.1494 C   0  0  0  0  0  0
  -27.0281  -30.3051   24.6073 C   0  0  0  0  0  0
  -27.6053  -32.4320   25.7468 C   0  0  0  0  0  0
  -27.5584  -37.1799   24.8457 C   0  0  0  0  0  0
  -21.4142  -29.3031   22.3744 N   0  0  0  0  0  0
  -26.4270  -37.3807   23.9431 N   0  0  0  0  0  0
  -24.6668  -31.0797   22.0983 N   0  0  0  0  0  0
  -23.4186  -28.8211   23.3057 O   0  0  0  0  0  0
  -28.3969  -26.7086   20.0840 O   0  0  0  0  0  0
  -26.5598  -34.8933   22.4702 O   0  0  0  0  0  0
  -23.5335  -32.1434   23.7489 O   0  0  0  0  0  0
  -31.7351  -20.0954   18.6295 C   0  0  0  0  0  0
  -29.8919  -21.9843   17.8991 C   0  0  0  0  0  0
  -30.5939  -20.2453   19.4469 C   0  0  0  0  0  0
  -29.6521  -21.2529   19.0807 C   0  0  0  0  0  0
  -31.8975  -20.9119   17.4956 C   0  0  0  0  0  0
  -36.3196  -23.1068   16.2376 C   0  0  0  0  0  0
  -28.3858  -21.5971   19.8689 C   0  0  0  0  0  0
  -30.4705  -19.3180   20.6612 C   0  0  0  0  0  0
  -33.1410  -20.8198   16.6270 C   0  0  0  0  0  0
  -35.3444  -21.9575   15.9517 C   0  0  0  0  0  0
  -28.4757  -22.8998   20.7058 C   0  0  0  0  0  0
  -34.1089  -21.9932   16.8666 C   0  0  0  0  0  0
  -28.4804  -24.2282   19.9056 C   0  0  0  0  0  0
  -28.3430  -25.4730   20.8111 C   0  0  0  0  0  0
  -30.4353  -16.8888   21.2894 C   0  0  0  0  0  0
  -30.9814  -21.8253   17.1249 N   0  0  0  0  0  0
  -29.9901  -15.4953   21.0880 N   0  0  0  0  0  0
  -30.1535  -17.9257   20.2553 N   0  3  0  0  0  0
  -31.4679  -12.4199   19.1147 H   0  0  0  0  0  0
  -30.3364  -11.3067   19.8283 H   0  0  0  0  0  0
  -29.7324  -11.7691   17.4305 H   0  0  0  0  0  0
  -29.6565  -13.4807   17.7587 H   0  0  0  0  0  0
  -27.8378  -11.2965   18.8319 H   0  0  0  0  0  0
  -27.3630  -12.6086   17.7869 H   0  0  0  0  0  0
  -27.6965  -14.2451   19.5554 H   0  0  0  0  0  0
  -28.6801  -11.9698   21.3485 H   0  0  0  0  0  0
  -28.4579  -13.6151   21.8580 H   0  0  0  0  0  0
  -25.2734   -9.5705   22.4764 H   0  0  0  0  0  0
  -23.9981   -7.4650   22.7484 H   0  0  0  0  0  0
  -21.0806   -8.8788   19.8962 H   0  0  0  0  0  0
  -22.3668  -10.9679   19.6183 H   0  0  0  0  0  0
  -21.2007   -7.6140   23.9709 H   0  0  0  0  0  0
  -21.1476   -6.0516   25.9068 H   0  0  0  0  0  0
  -22.0592   -2.7603   23.2856 H   0  0  0  0  0  0
  -22.4062  -11.9944   22.4795 H   0  0  0  0  0  0
  -21.1107  -13.1355   22.2577 H   0  0  0  0  0  0
  -24.6669  -15.8426   20.5182 H   0  0  0  0  0  0
  -26.2818  -15.6217   20.0713 H   0  0  0  0  0  0
  -26.7110  -32.5553   23.1174 H   0  0  0  0  0  0
  -25.0012  -33.9793   25.0462 H   0  0  0  0  0  0
  -22.6906  -31.3064   21.4107 H   0  0  0  0  0  0
  -23.3729  -35.9664   23.3288 H   0  0  0  0  0  0
  -24.3583  -36.8948   22.2050 H   0  0  0  0  0  0
  -23.7228  -37.6528   23.6656 H   0  0  0  0  0  0
  -26.0311  -31.6024   20.5840 H   0  0  0  0  0  0
  -26.8187  -30.8998   21.9693 H   0  0  0  0  0  0
  -28.1053  -29.1257   21.1396 H   0  0  0  0  0  0
  -26.0690  -25.9642   19.0311 H   0  0  0  0  0  0
  -23.9788  -27.2805   19.0490 H   0  0  0  0  0  0
  -23.7164  -30.5937   19.4051 H   0  0  0  0  0  0
  -22.7324  -29.2392   19.8734 H   0  0  0  0  0  0
  -25.1253  -36.1976   25.0826 H   0  0  0  0  0  0
  -20.9961  -28.3211   24.1439 H   0  0  0  0  0  0
  -20.5661  -26.2270   23.3599 H   0  0  0  0  0  0
  -21.6636  -26.7443   22.1202 H   0  0  0  0  0  0
  -19.6893  -25.6310   21.1219 H   0  0  0  0  0  0
  -19.6646  -27.3225   20.6762 H   0  0  0  0  0  0
  -17.4179  -26.6673   21.4042 H   0  0  0  0  0  0
  -18.0312  -26.0067   22.9030 H   0  0  0  0  0  0
  -19.7924  -30.7267   24.2281 H   0  0  0  0  0  0
  -17.5002  -31.6258   24.5184 H   0  0  0  0  0  0
  -15.5344  -30.2990   23.7641 H   0  0  0  0  0  0
  -15.8665  -28.0835   22.7033 H   0  0  0  0  0  0
  -24.5874  -30.7106   25.7843 H   0  0  0  0  0  0
  -24.8996  -32.2869   26.5020 H   0  0  0  0  0  0
  -25.8110  -30.8816   27.0211 H   0  0  0  0  0  0
  -26.2803  -29.6816   24.1157 H   0  0  0  0  0  0
  -27.4096  -29.7288   25.4513 H   0  0  0  0  0  0
  -27.8620  -30.4384   23.9177 H   0  0  0  0  0  0
  -27.2678  -33.3605   26.2091 H   0  0  0  0  0  0
  -28.3823  -32.6907   25.0260 H   0  0  0  0  0  0
  -28.0764  -31.8421   26.5343 H   0  0  0  0  0  0
  -28.2568  -38.0130   24.7573 H   0  0  0  0  0  0
  -28.1103  -36.2673   24.6169 H   0  0  0  0  0  0
  -27.2328  -37.1327   25.8863 H   0  0  0  0  0  0
  -20.9305  -29.8755   21.6968 H   0  0  0  0  0  0
  -26.0155  -38.2870   24.1479 H   0  0  0  0  0  0
  -32.5018  -19.3732   18.8780 H   0  0  0  0  0  0
  -29.1934  -22.7373   17.5656 H   0  0  0  0  0  0
  -37.1667  -23.0794   15.5509 H   0  0  0  0  0  0
  -36.7153  -23.0459   17.2519 H   0  0  0  0  0  0
  -35.8347  -24.0772   16.1242 H   0  0  0  0  0  0
  -28.0947  -20.7696   20.5133 H   0  0  0  0  0  0
  -27.5590  -21.6911   19.1635 H   0  0  0  0  0  0
  -29.7436  -19.6795   21.3864 H   0  0  0  0  0  0
  -31.4306  -19.3317   21.1784 H   0  0  0  0  0  0
  -32.8365  -20.7902   15.5800 H   0  0  0  0  0  0
  -33.6496  -19.8755   16.8234 H   0  0  0  0  0  0
  -35.8662  -21.0071   16.0718 H   0  0  0  0  0  0
  -35.0296  -22.0063   14.9081 H   0  0  0  0  0  0
  -29.3439  -22.8599   21.3651 H   0  0  0  0  0  0
  -27.6069  -22.9199   21.3655 H   0  0  0  0  0  0
  -34.4226  -21.9886   17.9109 H   0  0  0  0  0  0
  -33.5775  -22.9330   16.7110 H   0  0  0  0  0  0
  -27.6675  -24.2185   19.1797 H   0  0  0  0  0  0
  -29.4052  -24.3109   19.3355 H   0  0  0  0  0  0
  -29.1662  -25.4837   21.5264 H   0  0  0  0  0  0
  -27.4330  -25.4004   21.4112 H   0  0  0  0  0  0
  -31.5091  -16.8922   21.4904 H   0  0  0  0  0  0
  -29.9734  -17.2191   22.2212 H   0  0  0  0  0  0
  -29.0735  -15.2565   21.4334 H   0  0  0  0  0  0
  -30.7019  -17.7350   19.4329 H   0  0  0  0  0  0
  -29.1837  -17.9100   19.9895 H   0  0  0  0  0  0
  1 25  1  0  0  0
  1 30  2  0  0  0
  1 87  1  0  0  0
  2  3  1  0  0  0
  2 25  1  0  0  0
  2 89  1  0  0  0
  2 90  1  0  0  0
  3  4  1  0  0  0
  3 91  1  0  0  0
  3 92  1  0  0  0
  4  5  1  0  0  0
  4 93  1  0  0  0
  4 94  1  0  0  0
  5  6  1  0  0  0
  5 26  1  0  0  0
  5 95  1  0  0  0
  6 25  1  0  0  0
  6 96  1  0  0  0
  6 97  1  0  0  0
  7  8  2  0  0  0
  7 26  1  0  0  0
  7 29  1  0  0  0
  8  9  1  0  0  0
  8 22  1  0  0  0
  9 10  1  0  0  0
  9 27  2  0  0  0
 10 11  2  0  0  0
 10 15  1  0  0  0
 11 12  1  0  0  0
 11 98  1  0  0  0
 12 13  2  0  0  0
 12 99  1  0  0  0
 13 14  1  0  0  0
 13 31  1  0  0  0
 14 15  2  0  0  0
 14100  1  0  0  0
 15101  1  0  0  0
 16 17  2  0  0  0
 16 21  1  0  0  0
 16 31  1  0  0  0
 17 18  1  0  0  0
 17102  1  0  0  0
 18 19  2  0  0  0
 18103  1  0  0  0
 19 20  1  0  0  0
 19 24  1  0  0  0
 20 21  2  0  0  0
 20104  1  0  0  0
 21 23  1  0  0  0
 22 28  1  0  0  0
 22 32  2  0  0  0
 26 27  1  0  0  0
 28105  1  0  0  0
 28106  1  0  0  0
 29107  1  0  0  0
 29108  1  0  0  0
 33 34  1  0  0  0
 33 66  1  0  0  0
 33 70  2  0  0  0
 34 36  1  0  0  0
 34 59  1  0  0  0
 34109  1  0  0  0
 35 44  2  0  0  0
 35 45  1  0  0  0
 35 68  1  0  0  0
 36 56  1  0  0  0
 36110  1  0  0  0
 37 39  1  0  0  0
 37 47  1  0  0  0
 37 66  1  0  0  0
 37111  1  0  0  0
 38 43  2  0  0  0
 38 46  1  0  0  0
 38 47  1  0  0  0
 39 64  1  0  0  0
 39 67  2  0  0  0
 40 52  1  0  0  0
 40 53  2  0  0  0
 40 58  1  0  0  0
 41112  1  0  0  0
 41113  1  0  0  0
 41114  1  0  0  0
 41 48  1  0  0  0
 42 43  1  0  0  0
 42 66  1  0  0  0
 42115  1  0  0  0
 42116  1  0  0  0
 43 44  1  0  0  0
 44117  1  0  0  0
 45 46  2  0  0  0
 45118  1  0  0  0
 46119  1  0  0  0
 47120  1  0  0  0
 47121  1  0  0  0
 48 56  1  0  0  0
 48 65  1  0  0  0
 48122  1  0  0  0
 49 50  1  0  0  0
 49 53  1  0  0  0
 49 64  1  0  0  0
 49123  1  0  0  0
 50 51  1  0  0  0
 50124  1  0  0  0
 50125  1  0  0  0
 51 52  1  0  0  0
 51126  1  0  0  0
 51127  1  0  0  0
 52128  1  0  0  0
 52129  1  0  0  0
 53 54  1  0  0  0
 54 55  2  0  0  0
 54130  1  0  0  0
 55 57  1  0  0  0
 55131  1  0  0  0
 56 69  2  0  0  0
 57 58  2  0  0  0
 57132  1  0  0  0
 58133  1  0  0  0
 59 60  1  0  0  0
 59 61  1  0  0  0
 59 62  1  0  0  0
 60134  1  0  0  0
 60135  1  0  0  0
 60136  1  0  0  0
 61137  1  0  0  0
 61138  1  0  0  0
 61139  1  0  0  0
 62140  1  0  0  0
 62141  1  0  0  0
 62142  1  0  0  0
 63 65  1  0  0  0
 63143  1  0  0  0
 63144  1  0  0  0
 63145  1  0  0  0
 64146  1  0  0  0
 65147  1  0  0  0
 68 84  1  0  0  0
 71 73  2  0  0  0
 71 75  1  0  0  0
 71148  1  0  0  0
 72 74  2  0  0  0
 72 86  1  0  0  0
 72149  1  0  0  0
 73 74  1  0  0  0
 73 78  1  0  0  0
 74 77  1  0  0  0
 75 79  1  0  0  0
 75 86  2  0  0  0
 76 80  1  0  0  0
 76150  1  0  0  0
 76151  1  0  0  0
 76152  1  0  0  0
 77 81  1  0  0  0
 77153  1  0  0  0
 77154  1  0  0  0
 78 88  1  0  0  0
 78155  1  0  0  0
 78156  1  0  0  0
 79 82  1  0  0  0
 79157  1  0  0  0
 79158  1  0  0  0
 80 82  1  0  0  0
 80159  1  0  0  0
 80160  1  0  0  0
 81 83  1  0  0  0
 81161  1  0  0  0
 81162  1  0  0  0
 82163  1  0  0  0
 82164  1  0  0  0
 83 84  1  0  0  0
 83165  1  0  0  0
 83166  1  0  0  0
 84167  1  0  0  0
 84168  1  0  0  0
 85 87  1  0  0  0
 85 88  1  0  0  0
 85169  1  0  0  0
 85170  1  0  0  0
 87171  1  0  0  0
 88172  1  0  0  0
 88173  1  0  0  0
M  CHG  1  88   1
M  ISO  4   1 100  68 101  84 101  87 100
M  END
> <chiral flag>
0

> <version>
0

> <s_m_source_file>
/data/baiqing/PycharmProjects/Reinvent-master-3.2/result/LINK_invent/BTK/process_docking_weight1_custom_sum_contain_oxygen_bond_distance_aromatic_linkinvent_7_9_3/rearranged_h_0092.sdf

> <i_m_source_file_index>
30

> <r_mmod_Potential_Energy-OPLS-2005>
-511.056976318359

> <r_mmod_Stretch_Energy-OPLS-2005>
37.2349586486816

> <r_mmod_Bend_Energy-OPLS-2005>
99.7753524780273

> <r_mmod_Torsional_Energy-OPLS-2005>
203.690277099609

> <r_mmod_Improper_Torsional_Energy-OPLS-2005>
3.48673391342163

> <r_mmod_Van_der_Waal_Energy-OPLS-2005>
147.232833862305

> <r_mmod_Electrostatic_Energy-OPLS-2005>
-511.044952392578

> <r_mmod_Solvation_Energy-OPLS-2005>
-504.176177978516

> <b_mmod_Minimization_Converged-OPLS-2005>
0

> <r_mmod_RMS_Derivative-OPLS-2005>
1.76093125343323

$$$$
31
                    3D
 Structure written by MMmdl.
172180  0  0  1  0            999 V2000
  -30.6547  -14.6187   20.5444 C   0  0  0  0  0  0
  -30.4315  -12.4107   19.4230 C   0  0  0  0  0  0
  -29.4915  -12.5087   18.2034 C   0  0  0  0  0  0
  -28.0207  -12.3194   18.6270 C   0  0  0  0  0  0
  -27.6465  -13.1799   19.8594 C   0  0  2  0  0  0
  -28.7069  -13.0243   20.9727 C   0  0  0  0  0  0
  -25.2596  -13.7766   20.5838 C   0  0  0  0  0  0
  -24.1807  -13.0172   20.9271 C   0  0  0  0  0  0
  -24.6370  -11.6677   20.8787 C   0  0  0  0  0  0
  -23.9020  -10.4133   21.0442 C   0  0  0  0  0  0
  -24.3569   -9.4073   21.9228 C   0  0  0  0  0  0
  -23.6229   -8.2140   22.0792 C   0  0  0  0  0  0
  -22.4221   -8.0210   21.3559 C   0  0  0  0  0  0
  -21.9849   -9.0183   20.4668 C   0  0  0  0  0  0
  -22.7202  -10.2040   20.3076 C   0  0  0  0  0  0
  -21.6815   -6.0687   22.5300 C   0  0  0  0  0  0
  -21.3974   -6.5617   23.8223 C   0  0  0  0  0  0
  -21.3653   -5.6788   24.9201 C   0  0  0  0  0  0
  -21.6044   -4.3050   24.7261 C   0  0  0  0  0  0
  -21.8818   -3.8124   23.4391 C   0  0  0  0  0  0
  -21.9182   -4.6921   22.3434 C   0  0  0  0  0  0
  -22.7878  -13.5100   21.1907 C   0  0  0  0  0  0
  -22.1646   -4.2097   21.1007 F   0  0  0  0  0  0
  -21.5653   -3.4549   25.7782 F   0  0  0  0  0  0
  -29.9941  -13.4228   20.4086 N   0  0  0  0  0  0
  -26.2982  -12.8989   20.3371 N   0  0  0  0  0  0
  -25.9287  -11.6193   20.5772 N   0  0  0  0  0  0
  -22.0448  -12.8113   22.0431 N   0  0  0  0  0  0
  -25.4348  -15.1340   20.4418 N   0  0  0  0  0  0
  -31.8127  -14.7264   20.1350 O   0  0  0  0  0  0
  -21.6580   -6.8817   21.4259 O   0  0  0  0  0  0
  -22.3638  -14.5447   20.6778 O   0  0  0  0  0  0
  -24.6165  -31.8664   23.2041 C   0  0  0  0  0  0
  -25.9041  -32.4819   23.8384 C   0  0  1  0  0  0
  -27.2597  -27.4098   20.1088 C   0  0  0  0  0  0
  -25.5883  -33.8624   24.2326 N   0  0  0  0  0  0
  -23.4106  -30.4839   21.5456 C   0  0  2  0  0  0
  -24.8616  -28.9480   20.1131 C   0  0  0  0  0  0
  -22.7435  -29.4658   22.4981 C   0  0  0  0  0  0
  -18.0281  -28.1385   22.8477 C   0  0  0  0  0  0
  -24.1478  -36.7312   23.2646 C   0  0  0  0  0  0
  -25.9415  -30.8223   21.3634 C   0  0  0  0  0  0
  -26.0222  -29.4562   20.7098 C   0  0  0  0  0  0
  -27.2195  -28.6994   20.6979 C   0  0  0  0  0  0
  -26.0729  -26.9274   19.4998 C   0  0  0  0  0  0
  -24.8868  -27.6854   19.4997 C   0  0  0  0  0  0
  -23.6173  -29.8072   20.1641 C   0  0  0  0  0  0
  -25.4100  -36.3120   24.0349 C   0  0  1  0  0  0
  -20.5850  -28.3728   23.1300 C   0  0  2  0  0  0
  -20.6764  -26.9434   22.5473 C   0  0  0  0  0  0
  -19.5817  -26.6351   21.5227 C   0  0  0  0  0  0
  -18.1953  -26.7920   22.1586 C   0  0  0  0  0  0
  -19.1511  -28.8881   23.2862 C   0  0  0  0  0  0
  -18.9434  -30.1506   23.8851 C   0  0  0  0  0  0
  -17.6428  -30.6628   24.0497 C   0  0  0  0  0  0
  -25.9044  -34.9482   23.5138 C   0  0  0  0  0  0
  -16.5329  -29.9085   23.6339 C   0  0  0  0  0  0
  -16.7265  -28.6476   23.0402 C   0  0  0  0  0  0
  -26.4437  -31.6615   25.0745 C   0  0  0  0  0  0
  -25.3655  -31.3762   26.1462 C   0  0  0  0  0  0
  -27.0283  -30.3042   24.6189 C   0  0  0  0  0  0
  -27.6037  -32.4322   25.7482 C   0  0  0  0  0  0
  -27.5578  -37.1799   24.8469 C   0  0  0  0  0  0
  -21.4158  -29.3058   22.3694 N   0  0  0  0  0  0
  -26.4295  -37.3792   23.9408 N   0  0  0  0  0  0
  -24.6742  -31.0733   22.0948 N   0  0  0  0  0  0
  -23.4182  -28.8234   23.3069 O   0  0  0  0  0  0
  -28.4314  -26.6570   20.1540 O   0  0  0  0  0  0
  -26.5634  -34.8941   22.4714 O   0  0  0  0  0  0
  -23.5332  -32.1445   23.7365 O   0  0  0  0  0  0
  -29.8743  -18.9482   21.0264 C   0  0  0  0  0  0
  -29.2918  -20.2703   21.0056 C   0  0  0  0  0  0
  -28.9056  -18.0003   20.7553 C   0  0  0  0  0  0
  -27.9516  -20.0231   20.9208 C   0  0  0  0  0  0
  -26.7616  -20.8880   21.2283 C   0  0  0  0  0  0
  -24.2418  -19.3166   19.5765 C   0  0  0  0  0  0
  -27.9071  -16.2923   22.1830 C   0  0  0  0  0  0
  -27.0217  -17.5200   18.2685 C   0  0  0  0  0  0
  -29.9545  -21.6677   21.1119 C   0  0  0  0  0  0
  -25.2900  -18.2875   20.0397 C   0  0  0  0  0  0
  -29.0285  -22.8398   20.6207 C   0  0  0  0  0  0
  -29.4954  -24.3218   20.5206 C   0  0  0  0  0  0
  -28.2844  -25.2183   20.0945 C   0  0  0  0  0  0
  -28.8182  -16.4655   20.9447 C   0  0  2  0  0  0
  -26.6880  -18.4918   19.4128 C   0  0  1  0  0  0
  -27.8096  -18.7756   20.3321 N   0  0  0  0  0  0
  -30.0924  -15.7105   21.1555 N   0  0  0  0  0  0
  -31.4636  -12.5548   19.1021 H   0  0  0  0  0  0
  -30.3964  -11.4124   19.8598 H   0  0  0  0  0  0
  -29.7605  -11.7602   17.4578 H   0  0  0  0  0  0
  -29.6155  -13.4802   17.7216 H   0  0  0  0  0  0
  -27.8775  -11.2638   18.8586 H   0  0  0  0  0  0
  -27.3524  -12.5360   17.7932 H   0  0  0  0  0  0
  -27.6454  -14.1990   19.4936 H   0  0  0  0  0  0
  -28.7535  -11.9841   21.2981 H   0  0  0  0  0  0
  -28.4850  -13.5682   21.8773 H   0  0  0  0  0  0
  -25.2727   -9.5535   22.4782 H   0  0  0  0  0  0
  -23.9919   -7.4519   22.7512 H   0  0  0  0  0  0
  -21.0775   -8.8715   19.8968 H   0  0  0  0  0  0
  -22.3699  -10.9583   19.6172 H   0  0  0  0  0  0
  -21.1921   -7.6115   23.9705 H   0  0  0  0  0  0
  -21.1492   -6.0530   25.9096 H   0  0  0  0  0  0
  -22.0600   -2.7579   23.2926 H   0  0  0  0  0  0
  -22.4000  -11.9733   22.4774 H   0  0  0  0  0  0
  -21.1096  -13.1213   22.2636 H   0  0  0  0  0  0
  -24.6811  -15.7876   20.6134 H   0  0  0  0  0  0
  -26.2945  -15.5747   20.1574 H   0  0  0  0  0  0
  -26.7145  -32.5529   23.1179 H   0  0  0  0  0  0
  -24.9937  -33.9775   25.0404 H   0  0  0  0  0  0
  -22.7015  -31.3011   21.3987 H   0  0  0  0  0  0
  -23.3733  -35.9650   23.3324 H   0  0  0  0  0  0
  -24.3589  -36.8904   22.2060 H   0  0  0  0  0  0
  -23.7217  -37.6524   23.6639 H   0  0  0  0  0  0
  -26.0643  -31.5854   20.5940 H   0  0  0  0  0  0
  -26.8255  -30.8758   21.9885 H   0  0  0  0  0  0
  -28.1089  -29.0929   21.1681 H   0  0  0  0  0  0
  -26.0435  -25.9613   19.0193 H   0  0  0  0  0  0
  -24.0016  -27.2885   19.0234 H   0  0  0  0  0  0
  -23.7057  -30.5746   19.3932 H   0  0  0  0  0  0
  -22.7477  -29.2074   19.8872 H   0  0  0  0  0  0
  -25.1257  -36.2017   25.0841 H   0  0  0  0  0  0
  -20.9890  -28.3341   24.1441 H   0  0  0  0  0  0
  -20.5539  -26.2361   23.3682 H   0  0  0  0  0  0
  -21.6683  -26.7456   22.1404 H   0  0  0  0  0  0
  -19.7047  -25.6236   21.1325 H   0  0  0  0  0  0
  -19.6813  -27.3064   20.6690 H   0  0  0  0  0  0
  -17.4253  -26.6708   21.3960 H   0  0  0  0  0  0
  -18.0327  -26.0041   22.8966 H   0  0  0  0  0  0
  -19.7873  -30.7374   24.2220 H   0  0  0  0  0  0
  -17.4991  -31.6336   24.5026 H   0  0  0  0  0  0
  -15.5329  -30.2989   23.7713 H   0  0  0  0  0  0
  -15.8668  -28.0731   22.7228 H   0  0  0  0  0  0
  -24.5816  -30.7149   25.7755 H   0  0  0  0  0  0
  -24.8845  -32.2932   26.4878 H   0  0  0  0  0  0
  -25.7931  -30.8920   27.0247 H   0  0  0  0  0  0
  -26.2888  -29.6815   24.1148 H   0  0  0  0  0  0
  -27.3920  -29.7285   25.4713 H   0  0  0  0  0  0
  -27.8767  -30.4343   23.9469 H   0  0  0  0  0  0
  -27.2705  -33.3617   26.2097 H   0  0  0  0  0  0
  -28.3795  -32.6879   25.0260 H   0  0  0  0  0  0
  -28.0763  -31.8427   26.5342 H   0  0  0  0  0  0
  -28.2603  -38.0087   24.7496 H   0  0  0  0  0  0
  -28.1073  -36.2617   24.6307 H   0  0  0  0  0  0
  -27.2320  -37.1465   25.8885 H   0  0  0  0  0  0
  -20.9372  -29.8754   21.6847 H   0  0  0  0  0  0
  -26.0203  -38.2892   24.1357 H   0  0  0  0  0  0
  -30.9038  -18.7166   21.2575 H   0  0  0  0  0  0
  -26.9519  -21.5031   22.1073 H   0  0  0  0  0  0
  -25.9042  -20.3019   21.5424 H   0  0  0  0  0  0
  -26.4813  -21.5222   20.3875 H   0  0  0  0  0  0
  -23.2873  -19.1545   20.0761 H   0  0  0  0  0  0
  -24.0704  -19.2250   18.5035 H   0  0  0  0  0  0
  -24.5359  -20.3461   19.7700 H   0  0  0  0  0  0
  -26.9583  -16.8041   22.0336 H   0  0  0  0  0  0
  -28.3602  -16.7416   23.0668 H   0  0  0  0  0  0
  -27.6383  -15.2781   22.4436 H   0  0  0  0  0  0
  -26.3561  -17.6996   17.4221 H   0  0  0  0  0  0
  -26.8982  -16.4766   18.5444 H   0  0  0  0  0  0
  -28.0425  -17.6635   17.9133 H   0  0  0  0  0  0
  -30.8589  -21.6486   20.5043 H   0  0  0  0  0  0
  -30.2712  -21.8383   22.1415 H   0  0  0  0  0  0
  -24.8800  -17.3465   19.7020 H   0  0  0  0  0  0
  -25.3405  -18.2325   21.1274 H   0  0  0  0  0  0
  -28.2085  -22.9107   21.3219 H   0  0  0  0  0  0
  -28.6051  -22.5595   19.6545 H   0  0  0  0  0  0
  -30.3096  -24.4146   19.8029 H   0  0  0  0  0  0
  -29.8832  -24.6553   21.4830 H   0  0  0  0  0  0
  -27.4399  -24.9460   20.7313 H   0  0  0  0  0  0
  -28.0148  -24.9426   19.0747 H   0  0  0  0  0  0
  -28.3479  -16.0439   20.0709 H   0  0  0  0  0  0
  -26.6090  -19.4343   18.8663 H   0  0  0  0  0  0
  -30.8256  -16.3588   21.3953 H   0  0  0  0  0  0
  1 25  1  0  0  0
  1 30  2  0  0  0
  1 87  1  0  0  0
  2  3  1  0  0  0
  2 25  1  0  0  0
  2 88  1  0  0  0
  2 89  1  0  0  0
  3  4  1  0  0  0
  3 90  1  0  0  0
  3 91  1  0  0  0
  4  5  1  0  0  0
  4 92  1  0  0  0
  4 93  1  0  0  0
  5  6  1  0  0  0
  5 26  1  0  0  0
  5 94  1  0  0  0
  6 25  1  0  0  0
  6 95  1  0  0  0
  6 96  1  0  0  0
  7  8  2  0  0  0
  7 26  1  0  0  0
  7 29  1  0  0  0
  8  9  1  0  0  0
  8 22  1  0  0  0
  9 10  1  0  0  0
  9 27  2  0  0  0
 10 11  2  0  0  0
 10 15  1  0  0  0
 11 12  1  0  0  0
 11 97  1  0  0  0
 12 13  2  0  0  0
 12 98  1  0  0  0
 13 14  1  0  0  0
 13 31  1  0  0  0
 14 15  2  0  0  0
 14 99  1  0  0  0
 15100  1  0  0  0
 16 17  2  0  0  0
 16 21  1  0  0  0
 16 31  1  0  0  0
 17 18  1  0  0  0
 17101  1  0  0  0
 18 19  2  0  0  0
 18102  1  0  0  0
 19 20  1  0  0  0
 19 24  1  0  0  0
 20 21  2  0  0  0
 20103  1  0  0  0
 21 23  1  0  0  0
 22 28  1  0  0  0
 22 32  2  0  0  0
 26 27  1  0  0  0
 28104  1  0  0  0
 28105  1  0  0  0
 29106  1  0  0  0
 29107  1  0  0  0
 33 34  1  0  0  0
 33 66  1  0  0  0
 33 70  2  0  0  0
 34 36  1  0  0  0
 34 59  1  0  0  0
 34108  1  0  0  0
 35 44  2  0  0  0
 35 45  1  0  0  0
 35 68  1  0  0  0
 36 56  1  0  0  0
 36109  1  0  0  0
 37 39  1  0  0  0
 37 47  1  0  0  0
 37 66  1  0  0  0
 37110  1  0  0  0
 38 43  2  0  0  0
 38 46  1  0  0  0
 38 47  1  0  0  0
 39 64  1  0  0  0
 39 67  2  0  0  0
 40 52  1  0  0  0
 40 53  2  0  0  0
 40 58  1  0  0  0
 41111  1  0  0  0
 41112  1  0  0  0
 41113  1  0  0  0
 41 48  1  0  0  0
 42 43  1  0  0  0
 42 66  1  0  0  0
 42114  1  0  0  0
 42115  1  0  0  0
 43 44  1  0  0  0
 44116  1  0  0  0
 45 46  2  0  0  0
 45117  1  0  0  0
 46118  1  0  0  0
 47119  1  0  0  0
 47120  1  0  0  0
 48 56  1  0  0  0
 48 65  1  0  0  0
 48121  1  0  0  0
 49 50  1  0  0  0
 49 53  1  0  0  0
 49 64  1  0  0  0
 49122  1  0  0  0
 50 51  1  0  0  0
 50123  1  0  0  0
 50124  1  0  0  0
 51 52  1  0  0  0
 51125  1  0  0  0
 51126  1  0  0  0
 52127  1  0  0  0
 52128  1  0  0  0
 53 54  1  0  0  0
 54 55  2  0  0  0
 54129  1  0  0  0
 55 57  1  0  0  0
 55130  1  0  0  0
 56 69  2  0  0  0
 57 58  2  0  0  0
 57131  1  0  0  0
 58132  1  0  0  0
 59 60  1  0  0  0
 59 61  1  0  0  0
 59 62  1  0  0  0
 60133  1  0  0  0
 60134  1  0  0  0
 60135  1  0  0  0
 61136  1  0  0  0
 61137  1  0  0  0
 61138  1  0  0  0
 62139  1  0  0  0
 62140  1  0  0  0
 62141  1  0  0  0
 63 65  1  0  0  0
 63142  1  0  0  0
 63143  1  0  0  0
 63144  1  0  0  0
 64145  1  0  0  0
 65146  1  0  0  0
 68 83  1  0  0  0
 71 72  1  0  0  0
 71 73  2  0  0  0
 71147  1  0  0  0
 72 74  2  0  0  0
 72 79  1  0  0  0
 73 84  1  0  0  0
 73 86  1  0  0  0
 74 75  1  0  0  0
 74 86  1  0  0  0
 75148  1  0  0  0
 75149  1  0  0  0
 75150  1  0  0  0
 76 80  1  0  0  0
 76151  1  0  0  0
 76152  1  0  0  0
 76153  1  0  0  0
 77154  1  0  0  0
 77155  1  0  0  0
 77156  1  0  0  0
 77 84  1  0  0  0
 78157  1  0  0  0
 78158  1  0  0  0
 78159  1  0  0  0
 78 85  1  0  0  0
 79 81  1  0  0  0
 79160  1  0  0  0
 79161  1  0  0  0
 80 85  1  0  0  0
 80162  1  0  0  0
 80163  1  0  0  0
 81 82  1  0  0  0
 81164  1  0  0  0
 81165  1  0  0  0
 82 83  1  0  0  0
 82166  1  0  0  0
 82167  1  0  0  0
 83168  1  0  0  0
 83169  1  0  0  0
 84 87  1  0  0  0
 84170  1  0  0  0
 85 86  1  0  0  0
 85171  1  0  0  0
 87172  1  0  0  0
M  ISO  4   1 100  68 101  83 101  87 100
M  END
> <chiral flag>
0

> <version>
0

> <s_m_source_file>
/data/baiqing/PycharmProjects/Reinvent-master-3.2/result/LINK_invent/BTK/process_docking_weight1_custom_sum_contain_oxygen_bond_distance_aromatic_linkinvent_7_9_3/rearranged_h_0092.sdf

> <i_m_source_file_index>
31

> <r_mmod_Potential_Energy-OPLS-2005>
156.111801147461

> <r_mmod_Stretch_Energy-OPLS-2005>
58.6590766906738

> <r_mmod_Bend_Energy-OPLS-2005>
188.775924682617

> <r_mmod_Torsional_Energy-OPLS-2005>
373.286376953125

> <r_mmod_Improper_Torsional_Energy-OPLS-2005>
5.26059246063232

> <r_mmod_Van_der_Waal_Energy-OPLS-2005>
144.866806030273

> <r_mmod_Electrostatic_Energy-OPLS-2005>
-458.604187011719

> <r_mmod_Solvation_Energy-OPLS-2005>
-188.110427856445

> <b_mmod_Minimization_Converged-OPLS-2005>
0

> <r_mmod_RMS_Derivative-OPLS-2005>
3.51185703277588

$$$$
32
                    3D
 Structure written by MMmdl.
169177  0  0  1  0            999 V2000
  -30.6777  -14.4770   20.6058 C   0  0  0  0  0  0
  -30.4420  -12.3263   19.4130 C   0  0  0  0  0  0
  -29.5049  -12.5292   18.2045 C   0  0  0  0  0  0
  -28.0246  -12.3827   18.6123 C   0  0  0  0  0  0
  -27.6699  -13.1983   19.8826 C   0  0  2  0  0  0
  -28.7097  -12.9508   20.9974 C   0  0  0  0  0  0
  -25.2635  -13.8125   20.5588 C   0  0  0  0  0  0
  -24.1903  -13.0455   20.9162 C   0  0  0  0  0  0
  -24.6428  -11.6894   20.8734 C   0  0  0  0  0  0
  -23.9091  -10.4305   21.0435 C   0  0  0  0  0  0
  -24.3637   -9.4202   21.9199 C   0  0  0  0  0  0
  -23.6298   -8.2248   22.0761 C   0  0  0  0  0  0
  -22.4270   -8.0304   21.3563 C   0  0  0  0  0  0
  -21.9938   -9.0281   20.4662 C   0  0  0  0  0  0
  -22.7274  -10.2151   20.3087 C   0  0  0  0  0  0
  -21.6857   -6.0769   22.5278 C   0  0  0  0  0  0
  -21.4008   -6.5662   23.8214 C   0  0  0  0  0  0
  -21.3654   -5.6804   24.9170 C   0  0  0  0  0  0
  -21.6042   -4.3069   24.7197 C   0  0  0  0  0  0
  -21.8826   -3.8171   23.4315 C   0  0  0  0  0  0
  -21.9182   -4.7005   22.3378 C   0  0  0  0  0  0
  -22.7942  -13.5282   21.1814 C   0  0  0  0  0  0
  -22.1670   -4.2204   21.0957 F   0  0  0  0  0  0
  -21.5607   -3.4542   25.7703 F   0  0  0  0  0  0
  -30.0411  -13.2835   20.4541 N   0  0  0  0  0  0
  -26.3083  -12.9276   20.3377 N   0  0  0  0  0  0
  -25.9350  -11.6451   20.5779 N   0  0  0  0  0  0
  -22.0550  -12.8313   22.0366 N   0  0  0  0  0  0
  -25.4365  -15.1814   20.3758 N   0  0  0  0  0  0
  -31.7877  -14.7224   20.1237 O   0  0  0  0  0  0
  -21.6627   -6.8905   21.4253 O   0  0  0  0  0  0
  -22.3671  -14.5583   20.6615 O   0  0  0  0  0  0
  -24.6151  -31.8663   23.2071 C   0  0  0  0  0  0
  -25.9057  -32.4799   23.8379 C   0  0  1  0  0  0
  -27.2675  -27.4184   20.1161 C   0  0  0  0  0  0
  -25.5927  -33.8590   24.2317 N   0  0  0  0  0  0
  -23.4088  -30.4873   21.5407 C   0  0  2  0  0  0
  -24.8674  -28.9454   20.1132 C   0  0  0  0  0  0
  -22.7416  -29.4662   22.4933 C   0  0  0  0  0  0
  -18.0264  -28.1361   22.8491 C   0  0  0  0  0  0
  -24.1499  -36.7280   23.2637 C   0  0  0  0  0  0
  -25.9390  -30.8272   21.3672 C   0  0  0  0  0  0
  -26.0209  -29.4601   20.7154 C   0  0  0  0  0  0
  -27.2156  -28.7040   20.7132 C   0  0  0  0  0  0
  -26.0894  -26.9159   19.5180 C   0  0  0  0  0  0
  -24.8993  -27.6741   19.5111 C   0  0  0  0  0  0
  -23.6268  -29.8127   20.1573 C   0  0  0  0  0  0
  -25.4118  -36.3065   24.0330 C   0  0  1  0  0  0
  -20.5856  -28.3673   23.1300 C   0  0  2  0  0  0
  -20.6777  -26.9419   22.5376 C   0  0  0  0  0  0
  -19.5742  -26.6388   21.5207 C   0  0  0  0  0  0
  -18.1926  -26.7916   22.1609 C   0  0  0  0  0  0
  -19.1496  -28.8827   23.2902 C   0  0  0  0  0  0
  -18.9418  -30.1419   23.8923 C   0  0  0  0  0  0
  -17.6408  -30.6561   24.0565 C   0  0  0  0  0  0
  -25.9051  -34.9443   23.5112 C   0  0  0  0  0  0
  -16.5313  -29.9050   23.6291 C   0  0  0  0  0  0
  -16.7246  -28.6480   23.0319 C   0  0  0  0  0  0
  -26.4468  -31.6587   25.0722 C   0  0  0  0  0  0
  -25.3727  -31.3744   26.1483 C   0  0  0  0  0  0
  -27.0329  -30.3020   24.6155 C   0  0  0  0  0  0
  -27.6033  -32.4308   25.7484 C   0  0  0  0  0  0
  -27.5572  -37.1799   24.8463 C   0  0  0  0  0  0
  -21.4129  -29.3067   22.3703 N   0  0  0  0  0  0
  -26.4281  -37.3758   23.9408 N   0  0  0  0  0  0
  -24.6709  -31.0753   22.0963 N   0  0  0  0  0  0
  -23.4162  -28.8232   23.3018 O   0  0  0  0  0  0
  -28.4712  -26.7276   20.1623 O   0  0  0  0  0  0
  -26.5593  -34.8887   22.4661 O   0  0  0  0  0  0
  -23.5331  -32.1415   23.7469 O   0  0  0  0  0  0
  -29.4186  -20.3402   20.3370 C   0  0  0  0  0  0
  -28.9107  -19.1519   20.9295 C   0  0  0  0  0  0
  -27.8516  -19.2907   21.8671 C   0  0  0  0  0  0
  -28.8140  -21.5912   20.6273 C   0  0  0  0  0  0
  -27.3418  -20.5894   22.1341 C   0  0  0  0  0  0
  -26.8447  -24.0710   25.1880 C   0  0  0  0  0  0
  -29.3423  -17.7440   20.4502 C   0  0  0  0  0  0
  -29.1671  -22.8877   19.8692 C   0  0  0  0  0  0
  -26.1376  -20.8170   23.0552 C   0  0  0  0  0  0
  -27.1273  -22.6870   24.5858 C   0  0  0  0  0  0
  -28.6095  -24.2264   20.4693 C   0  0  0  0  0  0
  -25.9875  -22.2348   23.6587 C   0  0  0  0  0  0
  -30.1830  -16.8586   21.4206 C   0  0  0  0  0  0
  -28.6871  -25.4537   19.5179 C   0  0  0  0  0  0
  -27.7798  -21.6828   21.4820 N   0  0  0  0  0  0
  -27.2585  -18.1640   22.4439 N   0  0  0  0  0  0
  -29.9328  -15.4174   21.2173 N   0  0  0  0  0  0
  -31.4819  -12.4598   19.1067 H   0  0  0  0  0  0
  -30.3725  -11.3052   19.7879 H   0  0  0  0  0  0
  -29.7510  -11.8195   17.4144 H   0  0  0  0  0  0
  -29.6675  -13.5210   17.7786 H   0  0  0  0  0  0
  -27.8250  -11.3230   18.7792 H   0  0  0  0  0  0
  -27.3810  -12.6879   17.7867 H   0  0  0  0  0  0
  -27.7245  -14.2509   19.6058 H   0  0  0  0  0  0
  -28.6954  -11.9068   21.3149 H   0  0  0  0  0  0
  -28.4607  -13.5200   21.8927 H   0  0  0  0  0  0
  -25.2791   -9.5653   22.4778 H   0  0  0  0  0  0
  -23.9997   -7.4643   22.7478 H   0  0  0  0  0  0
  -21.0877   -8.8816   19.8964 H   0  0  0  0  0  0
  -22.3758  -10.9699   19.6197 H   0  0  0  0  0  0
  -21.2019   -7.6177   23.9738 H   0  0  0  0  0  0
  -21.1470   -6.0523   25.9074 H   0  0  0  0  0  0
  -22.0605   -2.7640   23.2780 H   0  0  0  0  0  0
  -22.4150  -11.9960   22.4754 H   0  0  0  0  0  0
  -21.1185  -13.1387   22.2560 H   0  0  0  0  0  0
  -24.6339  -15.8006   20.3600 H   0  0  0  0  0  0
  -26.2344  -15.5621   19.8819 H   0  0  0  0  0  0
  -26.7157  -32.5526   23.1168 H   0  0  0  0  0  0
  -25.0128  -33.9758   25.0500 H   0  0  0  0  0  0
  -22.6973  -31.3026   21.3914 H   0  0  0  0  0  0
  -23.3738  -35.9634   23.3315 H   0  0  0  0  0  0
  -24.3587  -36.8875   22.2041 H   0  0  0  0  0  0
  -23.7275  -37.6499   23.6652 H   0  0  0  0  0  0
  -26.0608  -31.5947   20.6011 H   0  0  0  0  0  0
  -26.8215  -30.8813   21.9928 H   0  0  0  0  0  0
  -28.1022  -29.1088   21.1816 H   0  0  0  0  0  0
  -26.0723  -25.9330   19.0732 H   0  0  0  0  0  0
  -24.0128  -27.2700   19.0434 H   0  0  0  0  0  0
  -23.7392  -30.5853   19.3945 H   0  0  0  0  0  0
  -22.7577  -29.2240   19.8592 H   0  0  0  0  0  0
  -25.1289  -36.1898   25.0814 H   0  0  0  0  0  0
  -20.9951  -28.3231   24.1417 H   0  0  0  0  0  0
  -20.5776  -26.2243   23.3548 H   0  0  0  0  0  0
  -21.6630  -26.7522   22.1106 H   0  0  0  0  0  0
  -19.6911  -25.6315   21.1185 H   0  0  0  0  0  0
  -19.6655  -27.3240   20.6780 H   0  0  0  0  0  0
  -17.4201  -26.6697   21.3992 H   0  0  0  0  0  0
  -18.0291  -26.0031   22.8971 H   0  0  0  0  0  0
  -19.7874  -30.7239   24.2333 H   0  0  0  0  0  0
  -17.4928  -31.6233   24.5155 H   0  0  0  0  0  0
  -15.5305  -30.2955   23.7577 H   0  0  0  0  0  0
  -15.8655  -28.0810   22.6988 H   0  0  0  0  0  0
  -24.5860  -30.7130   25.7841 H   0  0  0  0  0  0
  -24.8979  -32.2939   26.4916 H   0  0  0  0  0  0
  -25.8059  -30.8910   27.0255 H   0  0  0  0  0  0
  -26.2943  -29.6773   24.1125 H   0  0  0  0  0  0
  -27.4011  -29.7239   25.4645 H   0  0  0  0  0  0
  -27.8793  -30.4325   23.9407 H   0  0  0  0  0  0
  -27.2643  -33.3583   26.2111 H   0  0  0  0  0  0
  -28.3821  -32.6917   25.0306 H   0  0  0  0  0  0
  -28.0750  -31.8417   26.5364 H   0  0  0  0  0  0
  -28.2577  -38.0102   24.7474 H   0  0  0  0  0  0
  -28.1076  -36.2620   24.6326 H   0  0  0  0  0  0
  -27.2292  -37.1486   25.8868 H   0  0  0  0  0  0
  -20.9303  -29.8705   21.6853 H   0  0  0  0  0  0
  -26.0152  -38.2824   24.1406 H   0  0  0  0  0  0
  -30.2104  -20.2811   19.6029 H   0  0  0  0  0  0
  -27.7016  -24.4337   25.7573 H   0  0  0  0  0  0
  -25.9872  -24.0441   25.8641 H   0  0  0  0  0  0
  -26.6261  -24.8032   24.4073 H   0  0  0  0  0  0
  -28.4169  -17.2134   20.2268 H   0  0  0  0  0  0
  -29.8567  -17.8218   19.4928 H   0  0  0  0  0  0
  -28.7981  -22.7662   18.8518 H   0  0  0  0  0  0
  -30.2542  -22.9630   19.7916 H   0  0  0  0  0  0
  -26.1639  -20.0974   23.8746 H   0  0  0  0  0  0
  -25.2438  -20.5840   22.4787 H   0  0  0  0  0  0
  -27.2742  -21.9548   25.3814 H   0  0  0  0  0  0
  -28.0642  -22.7282   24.0272 H   0  0  0  0  0  0
  -29.1279  -24.4402   21.4049 H   0  0  0  0  0  0
  -27.5587  -24.0992   20.7249 H   0  0  0  0  0  0
  -25.0504  -22.2697   24.2168 H   0  0  0  0  0  0
  -25.8782  -22.9574   22.8496 H   0  0  0  0  0  0
  -29.8884  -17.0697   22.4487 H   0  0  0  0  0  0
  -31.2455  -17.0981   21.3485 H   0  0  0  0  0  0
  -28.0564  -25.3060   18.6432 H   0  0  0  0  0  0
  -29.7023  -25.5128   19.1204 H   0  0  0  0  0  0
  -27.2771  -17.3092   21.8991 H   0  0  0  0  0  0
  -26.3480  -18.2993   22.8686 H   0  0  0  0  0  0
  -29.0278  -15.0843   21.5192 H   0  0  0  0  0  0
  1 25  1  0  0  0
  1 30  2  0  0  0
  1 87  1  0  0  0
  2  3  1  0  0  0
  2 25  1  0  0  0
  2 88  1  0  0  0
  2 89  1  0  0  0
  3  4  1  0  0  0
  3 90  1  0  0  0
  3 91  1  0  0  0
  4  5  1  0  0  0
  4 92  1  0  0  0
  4 93  1  0  0  0
  5  6  1  0  0  0
  5 26  1  0  0  0
  5 94  1  0  0  0
  6 25  1  0  0  0
  6 95  1  0  0  0
  6 96  1  0  0  0
  7  8  2  0  0  0
  7 26  1  0  0  0
  7 29  1  0  0  0
  8  9  1  0  0  0
  8 22  1  0  0  0
  9 10  1  0  0  0
  9 27  2  0  0  0
 10 11  2  0  0  0
 10 15  1  0  0  0
 11 12  1  0  0  0
 11 97  1  0  0  0
 12 13  2  0  0  0
 12 98  1  0  0  0
 13 14  1  0  0  0
 13 31  1  0  0  0
 14 15  2  0  0  0
 14 99  1  0  0  0
 15100  1  0  0  0
 16 17  2  0  0  0
 16 21  1  0  0  0
 16 31  1  0  0  0
 17 18  1  0  0  0
 17101  1  0  0  0
 18 19  2  0  0  0
 18102  1  0  0  0
 19 20  1  0  0  0
 19 24  1  0  0  0
 20 21  2  0  0  0
 20103  1  0  0  0
 21 23  1  0  0  0
 22 28  1  0  0  0
 22 32  2  0  0  0
 26 27  1  0  0  0
 28104  1  0  0  0
 28105  1  0  0  0
 29106  1  0  0  0
 29107  1  0  0  0
 33 34  1  0  0  0
 33 66  1  0  0  0
 33 70  2  0  0  0
 34 36  1  0  0  0
 34 59  1  0  0  0
 34108  1  0  0  0
 35 44  2  0  0  0
 35 45  1  0  0  0
 35 68  1  0  0  0
 36 56  1  0  0  0
 36109  1  0  0  0
 37 39  1  0  0  0
 37 47  1  0  0  0
 37 66  1  0  0  0
 37110  1  0  0  0
 38 43  2  0  0  0
 38 46  1  0  0  0
 38 47  1  0  0  0
 39 64  1  0  0  0
 39 67  2  0  0  0
 40 52  1  0  0  0
 40 53  2  0  0  0
 40 58  1  0  0  0
 41111  1  0  0  0
 41112  1  0  0  0
 41113  1  0  0  0
 41 48  1  0  0  0
 42 43  1  0  0  0
 42 66  1  0  0  0
 42114  1  0  0  0
 42115  1  0  0  0
 43 44  1  0  0  0
 44116  1  0  0  0
 45 46  2  0  0  0
 45117  1  0  0  0
 46118  1  0  0  0
 47119  1  0  0  0
 47120  1  0  0  0
 48 56  1  0  0  0
 48 65  1  0  0  0
 48121  1  0  0  0
 49 50  1  0  0  0
 49 53  1  0  0  0
 49 64  1  0  0  0
 49122  1  0  0  0
 50 51  1  0  0  0
 50123  1  0  0  0
 50124  1  0  0  0
 51 52  1  0  0  0
 51125  1  0  0  0
 51126  1  0  0  0
 52127  1  0  0  0
 52128  1  0  0  0
 53 54  1  0  0  0
 54 55  2  0  0  0
 54129  1  0  0  0
 55 57  1  0  0  0
 55130  1  0  0  0
 56 69  2  0  0  0
 57 58  2  0  0  0
 57131  1  0  0  0
 58132  1  0  0  0
 59 60  1  0  0  0
 59 61  1  0  0  0
 59 62  1  0  0  0
 60133  1  0  0  0
 60134  1  0  0  0
 60135  1  0  0  0
 61136  1  0  0  0
 61137  1  0  0  0
 61138  1  0  0  0
 62139  1  0  0  0
 62140  1  0  0  0
 62141  1  0  0  0
 63 65  1  0  0  0
 63142  1  0  0  0
 63143  1  0  0  0
 63144  1  0  0  0
 64145  1  0  0  0
 65146  1  0  0  0
 68 84  1  0  0  0
 71 72  2  0  0  0
 71 74  1  0  0  0
 71147  1  0  0  0
 72 73  1  0  0  0
 72 77  1  0  0  0
 73 75  2  0  0  0
 73 86  1  0  0  0
 74 78  1  0  0  0
 74 85  2  0  0  0
 75 79  1  0  0  0
 75 85  1  0  0  0
 76 80  1  0  0  0
 76148  1  0  0  0
 76149  1  0  0  0
 76150  1  0  0  0
 77 83  1  0  0  0
 77151  1  0  0  0
 77152  1  0  0  0
 78 81  1  0  0  0
 78153  1  0  0  0
 78154  1  0  0  0
 79 82  1  0  0  0
 79155  1  0  0  0
 79156  1  0  0  0
 80 82  1  0  0  0
 80157  1  0  0  0
 80158  1  0  0  0
 81 84  1  0  0  0
 81159  1  0  0  0
 81160  1  0  0  0
 82161  1  0  0  0
 82162  1  0  0  0
 83 87  1  0  0  0
 83163  1  0  0  0
 83164  1  0  0  0
 84165  1  0  0  0
 84166  1  0  0  0
 86167  1  0  0  0
 86168  1  0  0  0
 87169  1  0  0  0
M  ISO  4   1 100  68 101  84 101  87 100
M  END
> <chiral flag>
0

> <version>
0

> <s_m_source_file>
/data/baiqing/PycharmProjects/Reinvent-master-3.2/result/LINK_invent/BTK/process_docking_weight1_custom_sum_contain_oxygen_bond_distance_aromatic_linkinvent_7_9_3/rearranged_h_0092.sdf

> <i_m_source_file_index>
32

> <r_mmod_Potential_Energy-OPLS-2005>
-168.589584350586

> <r_mmod_Stretch_Energy-OPLS-2005>
46.336986541748

> <r_mmod_Bend_Energy-OPLS-2005>
120.456451416016

> <r_mmod_Torsional_Energy-OPLS-2005>
216.299865722656

> <r_mmod_Improper_Torsional_Energy-OPLS-2005>
11.0620908737183

> <r_mmod_Van_der_Waal_Energy-OPLS-2005>
151.297348022461

> <r_mmod_Electrostatic_Energy-OPLS-2005>
-511.756805419922

> <r_mmod_Solvation_Energy-OPLS-2005>
-217.513900756836

> <b_mmod_Minimization_Converged-OPLS-2005>
0

> <r_mmod_RMS_Derivative-OPLS-2005>
4.60893058776855

$$$$
33
                    3D
 Structure written by MMmdl.
166174  0  0  1  0            999 V2000
  -30.6897  -14.4717   20.5790 C   0  0  0  0  0  0
  -30.4226  -12.3101   19.4190 C   0  0  0  0  0  0
  -29.4931  -12.5065   18.2037 C   0  0  0  0  0  0
  -28.0150  -12.3674   18.6163 C   0  0  0  0  0  0
  -27.6601  -13.2061   19.8738 C   0  0  2  0  0  0
  -28.7001  -12.9803   20.9938 C   0  0  0  0  0  0
  -25.2543  -13.8128   20.5621 C   0  0  0  0  0  0
  -24.1824  -13.0417   20.9177 C   0  0  0  0  0  0
  -24.6379  -11.6890   20.8760 C   0  0  0  0  0  0
  -23.9055  -10.4281   21.0409 C   0  0  0  0  0  0
  -24.3607   -9.4196   21.9189 C   0  0  0  0  0  0
  -23.6283   -8.2227   22.0754 C   0  0  0  0  0  0
  -22.4257   -8.0278   21.3552 C   0  0  0  0  0  0
  -21.9900   -9.0249   20.4642 C   0  0  0  0  0  0
  -22.7227  -10.2129   20.3056 C   0  0  0  0  0  0
  -21.6858   -6.0730   22.5277 C   0  0  0  0  0  0
  -21.4006   -6.5635   23.8209 C   0  0  0  0  0  0
  -21.3659   -5.6788   24.9181 C   0  0  0  0  0  0
  -21.6043   -4.3050   24.7226 C   0  0  0  0  0  0
  -21.8824   -3.8145   23.4347 C   0  0  0  0  0  0
  -21.9184   -4.6960   22.3406 C   0  0  0  0  0  0
  -22.7855  -13.5227   21.1841 C   0  0  0  0  0  0
  -22.1665   -4.2142   21.0984 F   0  0  0  0  0  0
  -21.5625   -3.4538   25.7743 F   0  0  0  0  0  0
  -30.0304  -13.2899   20.4436 N   0  0  0  0  0  0
  -26.3007  -12.9308   20.3353 N   0  0  0  0  0  0
  -25.9313  -11.6470   20.5782 N   0  0  0  0  0  0
  -22.0506  -12.8223   22.0400 N   0  0  0  0  0  0
  -25.4179  -15.1816   20.3874 N   0  0  0  0  0  0
  -31.8084  -14.6754   20.0971 O   0  0  0  0  0  0
  -21.6628   -6.8871   21.4239 O   0  0  0  0  0  0
  -22.3546  -14.5544   20.6700 O   0  0  0  0  0  0
  -24.6172  -31.8675   23.2069 C   0  0  0  0  0  0
  -25.9061  -32.4818   23.8386 C   0  0  1  0  0  0
  -27.2277  -27.4172   20.0953 C   0  0  0  0  0  0
  -25.5907  -33.8612   24.2328 N   0  0  0  0  0  0
  -23.4063  -30.4920   21.5459 C   0  0  2  0  0  0
  -24.8476  -28.9542   20.1160 C   0  0  0  0  0  0
  -22.7423  -29.4667   22.4952 C   0  0  0  0  0  0
  -18.0288  -28.1383   22.8494 C   0  0  0  0  0  0
  -24.1490  -36.7312   23.2638 C   0  0  0  0  0  0
  -25.9362  -30.8285   21.3634 C   0  0  0  0  0  0
  -26.0084  -29.4597   20.7133 C   0  0  0  0  0  0
  -27.1983  -28.6957   20.7030 C   0  0  0  0  0  0
  -26.0440  -26.9346   19.4893 C   0  0  0  0  0  0
  -24.8587  -27.6905   19.5054 C   0  0  0  0  0  0
  -23.6150  -29.8249   20.1609 C   0  0  0  0  0  0
  -25.4113  -36.3102   24.0340 C   0  0  1  0  0  0
  -20.5880  -28.3674   23.1301 C   0  0  2  0  0  0
  -20.6770  -26.9405   22.5402 C   0  0  0  0  0  0
  -19.5746  -26.6390   21.5203 C   0  0  0  0  0  0
  -18.1931  -26.7934   22.1626 C   0  0  0  0  0  0
  -19.1533  -28.8849   23.2905 C   0  0  0  0  0  0
  -18.9456  -30.1450   23.8920 C   0  0  0  0  0  0
  -17.6458  -30.6577   24.0571 C   0  0  0  0  0  0
  -25.9031  -34.9465   23.5127 C   0  0  0  0  0  0
  -16.5353  -29.9082   23.6314 C   0  0  0  0  0  0
  -16.7279  -28.6498   23.0344 C   0  0  0  0  0  0
  -26.4487  -31.6601   25.0728 C   0  0  0  0  0  0
  -25.3752  -31.3714   26.1480 C   0  0  0  0  0  0
  -27.0320  -30.3036   24.6121 C   0  0  0  0  0  0
  -27.6062  -32.4316   25.7500 C   0  0  0  0  0  0
  -27.5577  -37.1810   24.8464 C   0  0  0  0  0  0
  -21.4148  -29.3038   22.3692 N   0  0  0  0  0  0
  -26.4294  -37.3787   23.9398 N   0  0  0  0  0  0
  -24.6711  -31.0797   22.0952 N   0  0  0  0  0  0
  -23.4191  -28.8206   23.2996 O   0  0  0  0  0  0
  -28.4065  -26.6931   20.1173 O   0  0  0  0  0  0
  -26.5590  -34.8920   22.4686 O   0  0  0  0  0  0
  -23.5346  -32.1431   23.7436 O   0  0  0  0  0  0
  -26.2402  -18.4572   21.9276 C   0  0  0  0  0  0
  -27.3745  -17.8003   21.4336 C   0  0  0  0  0  0
  -26.1843  -19.8631   21.8709 C   0  0  0  0  0  0
  -28.4190  -18.5630   20.8877 C   0  0  0  0  0  0
  -27.2799  -20.5674   21.3155 C   0  0  0  0  0  0
  -25.0046  -20.8127   23.9098 C   0  0  0  0  0  0
  -27.2108  -22.5245   18.8879 C   0  0  0  0  0  0
  -24.9308  -20.5506   22.4008 C   0  0  0  0  0  0
  -29.6536  -17.8570   20.3195 C   0  0  0  0  0  0
  -27.7636  -24.3128   20.6434 C   0  0  0  0  0  0
  -30.3795  -16.8801   21.2919 C   0  0  0  0  0  0
  -28.4298  -25.3245   19.6621 C   0  0  0  0  0  0
  -27.8692  -22.8042   20.2544 C   0  0  1  0  0  0
  -28.3730  -19.9234   20.8340 N   0  0  0  0  0  0
  -27.2499  -21.9748   21.2961 N   0  0  0  0  0  0
  -29.9846  -15.4614   21.1589 N   0  0  0  0  0  0
  -31.4665  -12.4141   19.1177 H   0  0  0  0  0  0
  -30.3282  -11.2974   19.8156 H   0  0  0  0  0  0
  -29.7322  -11.7810   17.4261 H   0  0  0  0  0  0
  -29.6604  -13.4912   17.7653 H   0  0  0  0  0  0
  -27.8242  -11.3116   18.8120 H   0  0  0  0  0  0
  -27.3627  -12.6418   17.7867 H   0  0  0  0  0  0
  -27.7050  -14.2551   19.5802 H   0  0  0  0  0  0
  -28.6771  -11.9420   21.3292 H   0  0  0  0  0  0
  -28.4582  -13.5723   21.8779 H   0  0  0  0  0  0
  -25.2757   -9.5674   22.4769 H   0  0  0  0  0  0
  -23.9990   -7.4616   22.7470 H   0  0  0  0  0  0
  -21.0831   -8.8765   19.8949 H   0  0  0  0  0  0
  -22.3686  -10.9669   19.6170 H   0  0  0  0  0  0
  -21.2008   -7.6143   23.9715 H   0  0  0  0  0  0
  -21.1479   -6.0521   25.9078 H   0  0  0  0  0  0
  -22.0602   -2.7600   23.2856 H   0  0  0  0  0  0
  -22.4103  -11.9881   22.4790 H   0  0  0  0  0  0
  -21.1129  -13.1255   22.2614 H   0  0  0  0  0  0
  -24.6373  -15.8241   20.4616 H   0  0  0  0  0  0
  -26.2482  -15.6133   20.0042 H   0  0  0  0  0  0
  -26.7158  -32.5518   23.1170 H   0  0  0  0  0  0
  -25.0093  -33.9785   25.0497 H   0  0  0  0  0  0
  -22.6991  -31.3098   21.4023 H   0  0  0  0  0  0
  -23.3731  -35.9654   23.3305 H   0  0  0  0  0  0
  -24.3589  -36.8916   22.2044 H   0  0  0  0  0  0
  -23.7254  -37.6529   23.6649 H   0  0  0  0  0  0
  -26.0581  -31.5926   20.5937 H   0  0  0  0  0  0
  -26.8226  -30.8784   21.9850 H   0  0  0  0  0  0
  -28.0928  -29.0799   21.1733 H   0  0  0  0  0  0
  -26.0074  -25.9720   19.0017 H   0  0  0  0  0  0
  -23.9642  -27.2964   19.0437 H   0  0  0  0  0  0
  -23.7323  -30.5974   19.3991 H   0  0  0  0  0  0
  -22.7414  -29.2445   19.8590 H   0  0  0  0  0  0
  -25.1282  -36.1967   25.0829 H   0  0  0  0  0  0
  -21.0005  -28.3234   24.1410 H   0  0  0  0  0  0
  -20.5652  -26.2283   23.3593 H   0  0  0  0  0  0
  -21.6645  -26.7422   22.1203 H   0  0  0  0  0  0
  -19.6890  -25.6300   21.1227 H   0  0  0  0  0  0
  -19.6678  -27.3200   20.6736 H   0  0  0  0  0  0
  -17.4191  -26.6689   21.4031 H   0  0  0  0  0  0
  -18.0329  -26.0079   22.9027 H   0  0  0  0  0  0
  -19.7936  -30.7264   24.2289 H   0  0  0  0  0  0
  -17.5012  -31.6258   24.5171 H   0  0  0  0  0  0
  -15.5351  -30.2989   23.7624 H   0  0  0  0  0  0
  -15.8695  -28.0828   22.7037 H   0  0  0  0  0  0
  -24.5932  -30.7065   25.7816 H   0  0  0  0  0  0
  -24.8951  -32.2867   26.4932 H   0  0  0  0  0  0
  -25.8105  -30.8885   27.0235 H   0  0  0  0  0  0
  -26.2869  -29.6808   24.1167 H   0  0  0  0  0  0
  -27.4070  -29.7270   25.4586 H   0  0  0  0  0  0
  -27.8714  -30.4345   23.9292 H   0  0  0  0  0  0
  -27.2691  -33.3598   26.2119 H   0  0  0  0  0  0
  -28.3861  -32.6899   25.0330 H   0  0  0  0  0  0
  -28.0760  -31.8425   26.5387 H   0  0  0  0  0  0
  -28.2600  -38.0106   24.7498 H   0  0  0  0  0  0
  -28.1074  -36.2628   24.6302 H   0  0  0  0  0  0
  -27.2302  -37.1479   25.8875 H   0  0  0  0  0  0
  -20.9290  -29.8807   21.6968 H   0  0  0  0  0  0
  -26.0178  -38.2861   24.1390 H   0  0  0  0  0  0
  -25.4239  -17.8860   22.3451 H   0  0  0  0  0  0
  -27.4309  -16.7235   21.4799 H   0  0  0  0  0  0
  -24.0886  -21.2856   24.2665 H   0  0  0  0  0  0
  -25.8362  -21.4717   24.1609 H   0  0  0  0  0  0
  -25.1334  -19.8839   24.4680 H   0  0  0  0  0  0
  -27.7196  -23.0536   18.0821 H   0  0  0  0  0  0
  -26.1633  -22.8262   18.8695 H   0  0  0  0  0  0
  -27.2506  -21.4659   18.6326 H   0  0  0  0  0  0
  -24.0687  -19.9156   22.1916 H   0  0  0  0  0  0
  -24.7388  -21.4780   21.8622 H   0  0  0  0  0  0
  -30.3627  -18.6306   20.0259 H   0  0  0  0  0  0
  -29.3804  -17.3499   19.3940 H   0  0  0  0  0  0
  -26.7120  -24.5718   20.7691 H   0  0  0  0  0  0
  -28.2191  -24.4534   21.6261 H   0  0  0  0  0  0
  -31.4522  -16.9648   21.1119 H   0  0  0  0  0  0
  -30.2403  -17.2054   22.3236 H   0  0  0  0  0  0
  -29.4790  -25.0471   19.5516 H   0  0  0  0  0  0
  -28.0187  -25.2565   18.6558 H   0  0  0  0  0  0
  -28.9263  -22.5353   20.1982 H   0  0  0  0  0  0
  -26.4353  -22.3829   21.7378 H   0  0  0  0  0  0
  -29.0774  -15.2018   21.5189 H   0  0  0  0  0  0
  1 25  1  0  0  0
  1 30  2  0  0  0
  1 86  1  0  0  0
  2  3  1  0  0  0
  2 25  1  0  0  0
  2 87  1  0  0  0
  2 88  1  0  0  0
  3  4  1  0  0  0
  3 89  1  0  0  0
  3 90  1  0  0  0
  4  5  1  0  0  0
  4 91  1  0  0  0
  4 92  1  0  0  0
  5  6  1  0  0  0
  5 26  1  0  0  0
  5 93  1  0  0  0
  6 25  1  0  0  0
  6 94  1  0  0  0
  6 95  1  0  0  0
  7  8  2  0  0  0
  7 26  1  0  0  0
  7 29  1  0  0  0
  8  9  1  0  0  0
  8 22  1  0  0  0
  9 10  1  0  0  0
  9 27  2  0  0  0
 10 11  2  0  0  0
 10 15  1  0  0  0
 11 12  1  0  0  0
 11 96  1  0  0  0
 12 13  2  0  0  0
 12 97  1  0  0  0
 13 14  1  0  0  0
 13 31  1  0  0  0
 14 15  2  0  0  0
 14 98  1  0  0  0
 15 99  1  0  0  0
 16 17  2  0  0  0
 16 21  1  0  0  0
 16 31  1  0  0  0
 17 18  1  0  0  0
 17100  1  0  0  0
 18 19  2  0  0  0
 18101  1  0  0  0
 19 20  1  0  0  0
 19 24  1  0  0  0
 20 21  2  0  0  0
 20102  1  0  0  0
 21 23  1  0  0  0
 22 28  1  0  0  0
 22 32  2  0  0  0
 26 27  1  0  0  0
 28103  1  0  0  0
 28104  1  0  0  0
 29105  1  0  0  0
 29106  1  0  0  0
 33 34  1  0  0  0
 33 66  1  0  0  0
 33 70  2  0  0  0
 34 36  1  0  0  0
 34 59  1  0  0  0
 34107  1  0  0  0
 35 44  2  0  0  0
 35 45  1  0  0  0
 35 68  1  0  0  0
 36 56  1  0  0  0
 36108  1  0  0  0
 37 39  1  0  0  0
 37 47  1  0  0  0
 37 66  1  0  0  0
 37109  1  0  0  0
 38 43  2  0  0  0
 38 46  1  0  0  0
 38 47  1  0  0  0
 39 64  1  0  0  0
 39 67  2  0  0  0
 40 52  1  0  0  0
 40 53  2  0  0  0
 40 58  1  0  0  0
 41110  1  0  0  0
 41111  1  0  0  0
 41112  1  0  0  0
 41 48  1  0  0  0
 42 43  1  0  0  0
 42 66  1  0  0  0
 42113  1  0  0  0
 42114  1  0  0  0
 43 44  1  0  0  0
 44115  1  0  0  0
 45 46  2  0  0  0
 45116  1  0  0  0
 46117  1  0  0  0
 47118  1  0  0  0
 47119  1  0  0  0
 48 56  1  0  0  0
 48 65  1  0  0  0
 48120  1  0  0  0
 49 50  1  0  0  0
 49 53  1  0  0  0
 49 64  1  0  0  0
 49121  1  0  0  0
 50 51  1  0  0  0
 50122  1  0  0  0
 50123  1  0  0  0
 51 52  1  0  0  0
 51124  1  0  0  0
 51125  1  0  0  0
 52126  1  0  0  0
 52127  1  0  0  0
 53 54  1  0  0  0
 54 55  2  0  0  0
 54128  1  0  0  0
 55 57  1  0  0  0
 55129  1  0  0  0
 56 69  2  0  0  0
 57 58  2  0  0  0
 57130  1  0  0  0
 58131  1  0  0  0
 59 60  1  0  0  0
 59 61  1  0  0  0
 59 62  1  0  0  0
 60132  1  0  0  0
 60133  1  0  0  0
 60134  1  0  0  0
 61135  1  0  0  0
 61136  1  0  0  0
 61137  1  0  0  0
 62138  1  0  0  0
 62139  1  0  0  0
 62140  1  0  0  0
 63 65  1  0  0  0
 63141  1  0  0  0
 63142  1  0  0  0
 63143  1  0  0  0
 64144  1  0  0  0
 65145  1  0  0  0
 68 82  1  0  0  0
 71 72  2  0  0  0
 71 73  1  0  0  0
 71146  1  0  0  0
 72 74  1  0  0  0
 72147  1  0  0  0
 73 75  2  0  0  0
 73 78  1  0  0  0
 74 79  1  0  0  0
 74 84  2  0  0  0
 75 84  1  0  0  0
 75 85  1  0  0  0
 76 78  1  0  0  0
 76148  1  0  0  0
 76149  1  0  0  0
 76150  1  0  0  0
 77151  1  0  0  0
 77152  1  0  0  0
 77153  1  0  0  0
 77 83  1  0  0  0
 78154  1  0  0  0
 78155  1  0  0  0
 79 81  1  0  0  0
 79156  1  0  0  0
 79157  1  0  0  0
 80 82  1  0  0  0
 80 83  1  0  0  0
 80158  1  0  0  0
 80159  1  0  0  0
 81 86  1  0  0  0
 81160  1  0  0  0
 81161  1  0  0  0
 82162  1  0  0  0
 82163  1  0  0  0
 83 85  1  0  0  0
 83164  1  0  0  0
 85165  1  0  0  0
 86166  1  0  0  0
M  ISO  4   1 100  68 101  82 101  86 100
M  END
> <chiral flag>
0

> <version>
0

> <s_m_source_file>
/data/baiqing/PycharmProjects/Reinvent-master-3.2/result/LINK_invent/BTK/process_docking_weight1_custom_sum_contain_oxygen_bond_distance_aromatic_linkinvent_7_9_3/rearranged_h_0092.sdf

> <i_m_source_file_index>
33

> <r_mmod_Potential_Energy-OPLS-2005>
-254.2431640625

> <r_mmod_Stretch_Energy-OPLS-2005>
40.8962478637695

> <r_mmod_Bend_Energy-OPLS-2005>
115.820373535156

> <r_mmod_Torsional_Energy-OPLS-2005>
195.51628112793

> <r_mmod_Improper_Torsional_Energy-OPLS-2005>
5.42557382583618

> <r_mmod_Van_der_Waal_Energy-OPLS-2005>
149.782638549805

> <r_mmod_Electrostatic_Energy-OPLS-2005>
-550.945434570312

> <r_mmod_Solvation_Energy-OPLS-2005>
-224.323287963867

> <b_mmod_Minimization_Converged-OPLS-2005>
0

> <r_mmod_RMS_Derivative-OPLS-2005>
2.7144787311554

$$$$
34
                    3D
 Structure written by MMmdl.
160168  0  0  1  0            999 V2000
  -30.5282  -14.9904   20.4165 C   0  0  0  0  0  0
  -30.4555  -12.6241   19.4827 C   0  0  0  0  0  0
  -29.5295  -12.5431   18.2473 C   0  0  0  0  0  0
  -28.0641  -12.3197   18.6711 C   0  0  0  0  0  0
  -27.6319  -13.2493   19.8350 C   0  0  2  0  0  0
  -28.6815  -13.2904   20.9648 C   0  0  0  0  0  0
  -25.2487  -13.8200   20.5713 C   0  0  0  0  0  0
  -24.1792  -13.0420   20.9229 C   0  0  0  0  0  0
  -24.6405  -11.6916   20.8728 C   0  0  0  0  0  0
  -23.9068  -10.4287   21.0386 C   0  0  0  0  0  0
  -24.3613   -9.4216   21.9172 C   0  0  0  0  0  0
  -23.6301   -8.2242   22.0728 C   0  0  0  0  0  0
  -22.4280   -8.0264   21.3530 C   0  0  0  0  0  0
  -21.9917   -9.0233   20.4634 C   0  0  0  0  0  0
  -22.7230  -10.2128   20.3051 C   0  0  0  0  0  0
  -21.6863   -6.0722   22.5275 C   0  0  0  0  0  0
  -21.4014   -6.5628   23.8203 C   0  0  0  0  0  0
  -21.3667   -5.6787   24.9172 C   0  0  0  0  0  0
  -21.6048   -4.3046   24.7227 C   0  0  0  0  0  0
  -21.8820   -3.8134   23.4344 C   0  0  0  0  0  0
  -21.9199   -4.6951   22.3404 C   0  0  0  0  0  0
  -22.7823  -13.5213   21.1879 C   0  0  0  0  0  0
  -22.1665   -4.2130   21.0982 F   0  0  0  0  0  0
  -21.5637   -3.4538   25.7744 F   0  0  0  0  0  0
  -29.9472  -13.7212   20.3532 N   0  0  0  0  0  0
  -26.2911  -12.9428   20.3241 N   0  0  0  0  0  0
  -25.9339  -11.6558   20.5692 N   0  0  0  0  0  0
  -22.0459  -12.8199   22.0435 N   0  0  0  0  0  0
  -25.4140  -15.1917   20.4104 N   0  0  0  0  0  0
  -31.7459  -15.0613   20.2195 O   0  0  0  0  0  0
  -21.6646   -6.8862   21.4232 O   0  0  0  0  0  0
  -22.3515  -14.5509   20.6715 O   0  0  0  0  0  0
  -24.6500  -31.8377   23.1839 C   0  0  0  0  0  0
  -25.9240  -32.4683   23.8274 C   0  0  1  0  0  0
  -27.2200  -27.0865   20.1717 C   0  0  0  0  0  0
  -25.5981  -33.8498   24.2178 N   0  0  0  0  0  0
  -23.4592  -30.4531   21.5266 C   0  0  2  0  0  0
  -24.9120  -28.8721   20.1132 C   0  0  0  0  0  0
  -22.7643  -29.4462   22.4793 C   0  0  0  0  0  0
  -18.0331  -28.1397   22.8493 C   0  0  0  0  0  0
  -24.1467  -36.7231   23.2632 C   0  0  0  0  0  0
  -26.0168  -30.7002   21.3864 C   0  0  0  0  0  0
  -26.0899  -29.3025   20.7371 C   0  0  0  0  0  0
  -27.2452  -28.4264   20.7483 C   0  0  0  0  0  0
  -26.0160  -26.7725   19.5028 C   0  0  0  0  0  0
  -24.8894  -27.6231   19.4784 C   0  0  0  0  0  0
  -23.6938  -29.7795   20.1484 C   0  0  0  0  0  0
  -25.4107  -36.3013   24.0301 C   0  0  1  0  0  0
  -20.5953  -28.3700   23.1238 C   0  0  2  0  0  0
  -20.6791  -26.9392   22.5413 C   0  0  0  0  0  0
  -19.5743  -26.6365   21.5231 C   0  0  0  0  0  0
  -18.1935  -26.7938   22.1648 C   0  0  0  0  0  0
  -19.1596  -28.8870   23.2861 C   0  0  0  0  0  0
  -18.9495  -30.1475   23.8868 C   0  0  0  0  0  0
  -17.6480  -30.6582   24.0560 C   0  0  0  0  0  0
  -25.9071  -34.9396   23.5027 C   0  0  0  0  0  0
  -16.5380  -29.9071   23.6334 C   0  0  0  0  0  0
  -16.7310  -28.6506   23.0340 C   0  0  0  0  0  0
  -26.4530  -31.6586   25.0743 C   0  0  0  0  0  0
  -25.3703  -31.3800   26.1432 C   0  0  0  0  0  0
  -27.0363  -30.2984   24.6298 C   0  0  0  0  0  0
  -27.6050  -32.4362   25.7553 C   0  0  0  0  0  0
  -27.5553  -37.1764   24.8475 C   0  0  0  0  0  0
  -21.4319  -29.3019   22.3604 N   0  0  0  0  0  0
  -26.4252  -37.3749   23.9431 N   0  0  0  0  0  0
  -24.7295  -31.0191   22.0889 N   0  0  0  0  0  0
  -23.4274  -28.7968   23.2923 O   0  0  0  0  0  0
  -28.2585  -26.0692   20.2500 O   0  0  0  0  0  0
  -26.5633  -34.8900   22.4594 O   0  0  0  0  0  0
  -23.5608  -32.1234   23.7033 O   0  0  0  0  0  0
  -30.7531  -18.5618   18.6777 C   0  0  0  0  0  0
  -30.8302  -19.6099   17.7441 C   0  0  0  0  0  0
  -29.9793  -18.9128   19.7436 C   0  0  0  0  0  0
  -30.0790  -20.6415   18.2264 C   0  0  0  0  0  0
  -31.5709  -19.5623   16.4333 C   0  0  0  0  0  0
  -29.7852  -21.8857   17.4427 C   0  0  0  0  0  0
  -27.1374  -24.2710   21.5823 C   0  0  0  0  0  0
  -29.8188  -17.7133   20.8293 C   0  0  0  0  0  0
  -29.0842  -23.2266   20.2187 C   0  0  0  0  0  0
  -28.7713  -21.5280   20.2606 C   0  0  0  0  0  0
  -27.9677  -24.5120   20.3078 C   0  0  1  0  0  0
  -29.6089  -20.3732   19.5325 N   0  0  0  0  0  0
  -29.7066  -16.1536   20.4978 N   0  0  0  0  0  0
  -30.4657  -11.6747   20.0195 H   0  0  0  0  0  0
  -31.4846  -12.8035   19.1645 H   0  0  0  0  0  0
  -29.8544  -11.7432   17.5807 H   0  0  0  0  0  0
  -29.6083  -13.4662   17.6729 H   0  0  0  0  0  0
  -27.9703  -11.2782   18.9774 H   0  0  0  0  0  0
  -27.3976  -12.4408   17.8175 H   0  0  0  0  0  0
  -27.5890  -14.2493   19.4054 H   0  0  0  0  0  0
  -28.7829  -12.3137   21.4397 H   0  0  0  0  0  0
  -28.3776  -13.9878   21.7483 H   0  0  0  0  0  0
  -25.2748   -9.5704   22.4757 H   0  0  0  0  0  0
  -24.0007   -7.4639   22.7447 H   0  0  0  0  0  0
  -21.0848   -8.8747   19.8948 H   0  0  0  0  0  0
  -22.3662  -10.9659   19.6164 H   0  0  0  0  0  0
  -21.1999   -7.6140   23.9705 H   0  0  0  0  0  0
  -21.1493   -6.0516   25.9075 H   0  0  0  0  0  0
  -22.0594   -2.7592   23.2858 H   0  0  0  0  0  0
  -22.4074  -11.9904   22.4889 H   0  0  0  0  0  0
  -21.1054  -13.1188   22.2585 H   0  0  0  0  0  0
  -24.6368  -15.8357   20.5019 H   0  0  0  0  0  0
  -26.2460  -15.6279   20.0341 H   0  0  0  0  0  0
  -26.7312  -32.5253   23.1012 H   0  0  0  0  0  0
  -25.0268  -33.9643   25.0421 H   0  0  0  0  0  0
  -22.7639  -31.2789   21.3615 H   0  0  0  0  0  0
  -23.3735  -35.9556   23.3290 H   0  0  0  0  0  0
  -24.3534  -36.8868   22.2045 H   0  0  0  0  0  0
  -23.7205  -37.6416   23.6678 H   0  0  0  0  0  0
  -26.1585  -31.4408   20.5977 H   0  0  0  0  0  0
  -26.8964  -30.7742   22.0150 H   0  0  0  0  0  0
  -28.1381  -28.7458   21.2670 H   0  0  0  0  0  0
  -25.9038  -25.8201   19.0110 H   0  0  0  0  0  0
  -23.9914  -27.2892   18.9760 H   0  0  0  0  0  0
  -23.8511  -30.5491   19.3921 H   0  0  0  0  0  0
  -22.8114  -29.2278   19.8207 H   0  0  0  0  0  0
  -25.1281  -36.1810   25.0787 H   0  0  0  0  0  0
  -21.0081  -28.3249   24.1342 H   0  0  0  0  0  0
  -20.5662  -26.2295   23.3627 H   0  0  0  0  0  0
  -21.6640  -26.7333   22.1198 H   0  0  0  0  0  0
  -19.6875  -25.6267   21.1257 H   0  0  0  0  0  0
  -19.6679  -27.3176   20.6763 H   0  0  0  0  0  0
  -17.4207  -26.6726   21.4049 H   0  0  0  0  0  0
  -18.0290  -26.0090   22.9047 H   0  0  0  0  0  0
  -19.7961  -30.7334   24.2194 H   0  0  0  0  0  0
  -17.5016  -31.6252   24.5171 H   0  0  0  0  0  0
  -15.5368  -30.2949   23.7668 H   0  0  0  0  0  0
  -15.8730  -28.0827   22.7008 H   0  0  0  0  0  0
  -24.5927  -30.7089   25.7761 H   0  0  0  0  0  0
  -24.8838  -32.2982   26.4743 H   0  0  0  0  0  0
  -25.7984  -30.9085   27.0280 H   0  0  0  0  0  0
  -26.2952  -29.6765   24.1255 H   0  0  0  0  0  0
  -27.3924  -29.7236   25.4850 H   0  0  0  0  0  0
  -27.8888  -30.4225   23.9619 H   0  0  0  0  0  0
  -27.2648  -33.3718   26.2008 H   0  0  0  0  0  0
  -28.3940  -32.6832   25.0444 H   0  0  0  0  0  0
  -28.0615  -31.8563   26.5584 H   0  0  0  0  0  0
  -28.2551  -38.0075   24.7501 H   0  0  0  0  0  0
  -28.1051  -36.2591   24.6291 H   0  0  0  0  0  0
  -27.2269  -37.1406   25.8881 H   0  0  0  0  0  0
  -20.9537  -29.8843   21.6872 H   0  0  0  0  0  0
  -26.0088  -38.2786   24.1512 H   0  0  0  0  0  0
  -31.2189  -17.5898   18.5714 H   0  0  0  0  0  0
  -32.1978  -20.4466   16.3162 H   0  0  0  0  0  0
  -30.8646  -19.5211   15.6042 H   0  0  0  0  0  0
  -32.2115  -18.6807   16.3800 H   0  0  0  0  0  0
  -30.5469  -22.6471   17.6104 H   0  0  0  0  0  0
  -28.7958  -22.2858   17.6603 H   0  0  0  0  0  0
  -29.7984  -21.6796   16.3715 H   0  0  0  0  0  0
  -27.7649  -24.2527   22.4737 H   0  0  0  0  0  0
  -26.6080  -23.3178   21.5349 H   0  0  0  0  0  0
  -26.3799  -25.0393   21.7256 H   0  0  0  0  0  0
  -30.6619  -17.7901   21.5173 H   0  0  0  0  0  0
  -28.9504  -17.9481   21.4449 H   0  0  0  0  0  0
  -29.7941  -23.3902   21.0280 H   0  0  0  0  0  0
  -29.6768  -23.4740   19.3510 H   0  0  0  0  0  0
  -27.7620  -21.4136   19.8652 H   0  0  0  0  0  0
  -28.6784  -21.2369   21.3066 H   0  0  0  0  0  0
  -27.3068  -24.3211   19.4657 H   0  0  0  0  0  0
  -28.7370  -15.8807   20.4845 H   0  0  0  0  0  0
  1 25  1  0  0  0
  1 30  2  0  0  0
  1 83  1  0  0  0
  2  3  1  0  0  0
  2 25  1  0  0  0
  2 84  1  0  0  0
  2 85  1  0  0  0
  3  4  1  0  0  0
  3 86  1  0  0  0
  3 87  1  0  0  0
  4  5  1  0  0  0
  4 88  1  0  0  0
  4 89  1  0  0  0
  5  6  1  0  0  0
  5 26  1  0  0  0
  5 90  1  0  0  0
  6 25  1  0  0  0
  6 91  1  0  0  0
  6 92  1  0  0  0
  7  8  2  0  0  0
  7 26  1  0  0  0
  7 29  1  0  0  0
  8  9  1  0  0  0
  8 22  1  0  0  0
  9 10  1  0  0  0
  9 27  2  0  0  0
 10 11  2  0  0  0
 10 15  1  0  0  0
 11 12  1  0  0  0
 11 93  1  0  0  0
 12 13  2  0  0  0
 12 94  1  0  0  0
 13 14  1  0  0  0
 13 31  1  0  0  0
 14 15  2  0  0  0
 14 95  1  0  0  0
 15 96  1  0  0  0
 16 17  2  0  0  0
 16 21  1  0  0  0
 16 31  1  0  0  0
 17 18  1  0  0  0
 17 97  1  0  0  0
 18 19  2  0  0  0
 18 98  1  0  0  0
 19 20  1  0  0  0
 19 24  1  0  0  0
 20 21  2  0  0  0
 20 99  1  0  0  0
 21 23  1  0  0  0
 22 28  1  0  0  0
 22 32  2  0  0  0
 26 27  1  0  0  0
 28100  1  0  0  0
 28101  1  0  0  0
 29102  1  0  0  0
 29103  1  0  0  0
 33 34  1  0  0  0
 33 66  1  0  0  0
 33 70  2  0  0  0
 34 36  1  0  0  0
 34 59  1  0  0  0
 34104  1  0  0  0
 35 44  2  0  0  0
 35 45  1  0  0  0
 35 68  1  0  0  0
 36 56  1  0  0  0
 36105  1  0  0  0
 37 39  1  0  0  0
 37 47  1  0  0  0
 37 66  1  0  0  0
 37106  1  0  0  0
 38 43  2  0  0  0
 38 46  1  0  0  0
 38 47  1  0  0  0
 39 64  1  0  0  0
 39 67  2  0  0  0
 40 52  1  0  0  0
 40 53  2  0  0  0
 40 58  1  0  0  0
 41107  1  0  0  0
 41108  1  0  0  0
 41109  1  0  0  0
 41 48  1  0  0  0
 42 43  1  0  0  0
 42 66  1  0  0  0
 42110  1  0  0  0
 42111  1  0  0  0
 43 44  1  0  0  0
 44112  1  0  0  0
 45 46  2  0  0  0
 45113  1  0  0  0
 46114  1  0  0  0
 47115  1  0  0  0
 47116  1  0  0  0
 48 56  1  0  0  0
 48 65  1  0  0  0
 48117  1  0  0  0
 49 50  1  0  0  0
 49 53  1  0  0  0
 49 64  1  0  0  0
 49118  1  0  0  0
 50 51  1  0  0  0
 50119  1  0  0  0
 50120  1  0  0  0
 51 52  1  0  0  0
 51121  1  0  0  0
 51122  1  0  0  0
 52123  1  0  0  0
 52124  1  0  0  0
 53 54  1  0  0  0
 54 55  2  0  0  0
 54125  1  0  0  0
 55 57  1  0  0  0
 55126  1  0  0  0
 56 69  2  0  0  0
 57 58  2  0  0  0
 57127  1  0  0  0
 58128  1  0  0  0
 59 60  1  0  0  0
 59 61  1  0  0  0
 59 62  1  0  0  0
 60129  1  0  0  0
 60130  1  0  0  0
 60131  1  0  0  0
 61132  1  0  0  0
 61133  1  0  0  0
 61134  1  0  0  0
 62135  1  0  0  0
 62136  1  0  0  0
 62137  1  0  0  0
 63 65  1  0  0  0
 63138  1  0  0  0
 63139  1  0  0  0
 63140  1  0  0  0
 64141  1  0  0  0
 65142  1  0  0  0
 68 81  1  0  0  0
 71 72  1  0  0  0
 71 73  2  0  0  0
 71143  1  0  0  0
 72 74  2  0  0  0
 72 75  1  0  0  0
 73 78  1  0  0  0
 73 82  1  0  0  0
 74 76  1  0  0  0
 74 82  1  0  0  0
 75144  1  0  0  0
 75145  1  0  0  0
 75146  1  0  0  0
 76147  1  0  0  0
 76148  1  0  0  0
 76149  1  0  0  0
 77150  1  0  0  0
 77151  1  0  0  0
 77152  1  0  0  0
 77 81  1  0  0  0
 78 83  1  0  0  0
 78153  1  0  0  0
 78154  1  0  0  0
 79 80  1  0  0  0
 79 81  1  0  0  0
 79155  1  0  0  0
 79156  1  0  0  0
 80 82  1  0  0  0
 80157  1  0  0  0
 80158  1  0  0  0
 81159  1  0  0  0
 83160  1  0  0  0
M  ISO  4   1 100  68 101  81 101  83 100
M  END
> <chiral flag>
0

> <version>
0

> <s_m_source_file>
/data/baiqing/PycharmProjects/Reinvent-master-3.2/result/LINK_invent/BTK/process_docking_weight1_custom_sum_contain_oxygen_bond_distance_aromatic_linkinvent_7_9_3/rearranged_h_0092.sdf

> <i_m_source_file_index>
34

> <r_mmod_Potential_Energy-OPLS-2005>
605.815490722656

> <r_mmod_Stretch_Energy-OPLS-2005>
333.575531005859

> <r_mmod_Bend_Energy-OPLS-2005>
350.615386962891

> <r_mmod_Torsional_Energy-OPLS-2005>
228.748626708984

> <r_mmod_Improper_Torsional_Energy-OPLS-2005>
5.7449631690979

> <r_mmod_Van_der_Waal_Energy-OPLS-2005>
114.681060791016

> <r_mmod_Electrostatic_Energy-OPLS-2005>
-441.818511962891

> <r_mmod_Solvation_Energy-OPLS-2005>
-220.704559326172

> <b_mmod_Minimization_Converged-OPLS-2005>
0

> <r_mmod_RMS_Derivative-OPLS-2005>
3.29683184623718

$$$$
35
                    3D
 Structure written by MMmdl.
175183  0  0  1  0            999 V2000
  -30.7463  -14.3823   20.6357 C   0  0  0  0  0  0
  -30.4115  -12.2792   19.3954 C   0  0  0  0  0  0
  -29.4808  -12.5155   18.1908 C   0  0  0  0  0  0
  -28.0036  -12.3843   18.6073 C   0  0  0  0  0  0
  -27.6643  -13.2031   19.8805 C   0  0  2  0  0  0
  -28.7031  -12.9433   20.9932 C   0  0  0  0  0  0
  -25.2598  -13.8167   20.5677 C   0  0  0  0  0  0
  -24.1845  -13.0446   20.9196 C   0  0  0  0  0  0
  -24.6385  -11.6911   20.8745 C   0  0  0  0  0  0
  -23.9056  -10.4297   21.0417 C   0  0  0  0  0  0
  -24.3609   -9.4217   21.9196 C   0  0  0  0  0  0
  -23.6287   -8.2251   22.0762 C   0  0  0  0  0  0
  -22.4274   -8.0283   21.3545 C   0  0  0  0  0  0
  -21.9913   -9.0260   20.4646 C   0  0  0  0  0  0
  -22.7237  -10.2142   20.3058 C   0  0  0  0  0  0
  -21.6850   -6.0738   22.5277 C   0  0  0  0  0  0
  -21.4015   -6.5642   23.8213 C   0  0  0  0  0  0
  -21.3660   -5.6796   24.9175 C   0  0  0  0  0  0
  -21.6042   -4.3056   24.7224 C   0  0  0  0  0  0
  -21.8818   -3.8147   23.4343 C   0  0  0  0  0  0
  -21.9192   -4.6967   22.3399 C   0  0  0  0  0  0
  -22.7869  -13.5257   21.1849 C   0  0  0  0  0  0
  -22.1662   -4.2151   21.0976 F   0  0  0  0  0  0
  -21.5630   -3.4540   25.7738 F   0  0  0  0  0  0
  -30.0415  -13.2364   20.4479 N   0  0  0  0  0  0
  -26.3030  -12.9326   20.3383 N   0  0  0  0  0  0
  -25.9305  -11.6490   20.5760 N   0  0  0  0  0  0
  -22.0496  -12.8234   22.0383 N   0  0  0  0  0  0
  -25.4333  -15.1881   20.4036 N   0  0  0  0  0  0
  -31.8233  -14.6147   20.0793 O   0  0  0  0  0  0
  -21.6634   -6.8880   21.4236 O   0  0  0  0  0  0
  -22.3568  -14.5571   20.6704 O   0  0  0  0  0  0
  -24.6106  -31.8711   23.2130 C   0  0  0  0  0  0
  -25.9007  -32.4857   23.8421 C   0  0  1  0  0  0
  -27.2288  -27.4682   20.0837 C   0  0  0  0  0  0
  -25.5871  -33.8655   24.2344 N   0  0  0  0  0  0
  -23.3972  -30.4931   21.5545 C   0  0  2  0  0  0
  -24.8442  -28.9686   20.1104 C   0  0  0  0  0  0
  -22.7396  -29.4653   22.5022 C   0  0  0  0  0  0
  -18.0255  -28.1381   22.8498 C   0  0  0  0  0  0
  -24.1489  -36.7335   23.2643 C   0  0  0  0  0  0
  -25.9220  -30.8472   21.3604 C   0  0  0  0  0  0
  -26.0023  -29.4844   20.7077 C   0  0  0  0  0  0
  -27.1999  -28.7369   20.6998 C   0  0  0  0  0  0
  -26.0656  -26.9728   19.4627 C   0  0  0  0  0  0
  -24.8689  -27.7098   19.4858 C   0  0  0  0  0  0
  -23.6020  -29.8266   20.1679 C   0  0  0  0  0  0
  -25.4115  -36.3136   24.0336 C   0  0  1  0  0  0
  -20.5843  -28.3663   23.1344 C   0  0  2  0  0  0
  -20.6742  -26.9403   22.5433 C   0  0  0  0  0  0
  -19.5727  -26.6387   21.5225 C   0  0  0  0  0  0
  -18.1897  -26.7934   22.1620 C   0  0  0  0  0  0
  -19.1502  -28.8838   23.2915 C   0  0  0  0  0  0
  -18.9434  -30.1440   23.8936 C   0  0  0  0  0  0
  -17.6444  -30.6593   24.0575 C   0  0  0  0  0  0
  -25.9025  -34.9498   23.5136 C   0  0  0  0  0  0
  -16.5329  -29.9094   23.6325 C   0  0  0  0  0  0
  -16.7244  -28.6506   23.0363 C   0  0  0  0  0  0
  -26.4457  -31.6636   25.0743 C   0  0  0  0  0  0
  -25.3708  -31.3692   26.1468 C   0  0  0  0  0  0
  -27.0327  -30.3105   24.6091 C   0  0  0  0  0  0
  -27.6010  -32.4382   25.7509 C   0  0  0  0  0  0
  -27.5588  -37.1829   24.8473 C   0  0  0  0  0  0
  -21.4122  -29.3034   22.3767 N   0  0  0  0  0  0
  -26.4316  -37.3807   23.9391 N   0  0  0  0  0  0
  -24.6615  -31.0831   22.1023 N   0  0  0  0  0  0
  -23.4188  -28.8183   23.3036 O   0  0  0  0  0  0
  -28.3631  -26.6983   20.1240 O   0  0  0  0  0  0
  -26.5598  -34.8940   22.4708 O   0  0  0  0  0  0
  -23.5303  -32.1439   23.7541 O   0  0  0  0  0  0
  -29.0226  -20.4532   21.2714 C   0  0  0  0  0  0
  -28.7585  -19.1117   21.1480 C   0  0  0  0  0  0
  -27.6073  -19.9018   22.8912 C   0  0  0  0  0  0
  -27.2056  -19.0032   25.2052 C   0  0  0  0  0  0
  -25.2503  -19.5547   23.6757 C   0  0  0  0  0  0
  -25.4289  -23.9535   20.8364 C   0  0  0  0  0  0
  -29.2875  -18.0913   20.1911 C   0  0  0  0  0  0
  -30.6897  -17.6085   20.6047 C   0  0  0  0  0  0
  -27.0857  -23.1071   22.5486 C   0  0  0  0  0  0
  -27.9313  -24.2588   20.3647 C   0  0  0  0  0  0
  -28.3459  -22.2848   22.8824 C   0  0  0  0  0  0
  -30.7252  -16.6008   21.7764 C   0  0  0  0  0  0
  -28.2490  -25.6101   21.0490 C   0  0  0  0  0  0
  -26.6877  -19.9153   24.0823 C   0  0  0  0  0  0
  -26.8422  -23.3847   21.0455 C   0  0  2  0  0  0
  -28.3163  -20.9122   22.3535 N   0  0  0  0  0  0
  -27.8737  -18.8178   22.1532 N   0  3  0  0  0  0
  -30.1675  -15.2903   21.4338 N   0  0  0  0  0  0
  -31.4545  -12.3741   19.0883 H   0  0  0  0  0  0
  -30.3027  -11.2583   19.7642 H   0  0  0  0  0  0
  -29.7051  -11.8063   17.3933 H   0  0  0  0  0  0
  -29.6582  -13.5083   17.7740 H   0  0  0  0  0  0
  -27.7987  -11.3273   18.7807 H   0  0  0  0  0  0
  -27.3530  -12.6875   17.7853 H   0  0  0  0  0  0
  -27.7248  -14.2578   19.6102 H   0  0  0  0  0  0
  -28.6639  -11.8996   21.3073 H   0  0  0  0  0  0
  -28.4618  -13.5190   21.8874 H   0  0  0  0  0  0
  -25.2753   -9.5693   22.4777 H   0  0  0  0  0  0
  -23.9993   -7.4643   22.7484 H   0  0  0  0  0  0
  -21.0852   -8.8777   19.8945 H   0  0  0  0  0  0
  -22.3700  -10.9682   19.6165 H   0  0  0  0  0  0
  -21.2010   -7.6151   23.9715 H   0  0  0  0  0  0
  -21.1482   -6.0524   25.9078 H   0  0  0  0  0  0
  -22.0595   -2.7606   23.2839 H   0  0  0  0  0  0
  -22.4093  -11.9866   22.4728 H   0  0  0  0  0  0
  -21.1116  -13.1262   22.2592 H   0  0  0  0  0  0
  -24.6542  -15.8345   20.4663 H   0  0  0  0  0  0
  -26.2627  -15.6043   20.0013 H   0  0  0  0  0  0
  -26.7091  -32.5590   23.1204 H   0  0  0  0  0  0
  -25.0024  -33.9832   25.0491 H   0  0  0  0  0  0
  -22.6827  -31.3076   21.4194 H   0  0  0  0  0  0
  -23.3762  -35.9663   23.3330 H   0  0  0  0  0  0
  -24.3571  -36.8939   22.2056 H   0  0  0  0  0  0
  -23.7242  -37.6539   23.6663 H   0  0  0  0  0  0
  -26.0216  -31.6137   20.5910 H   0  0  0  0  0  0
  -26.8139  -30.9094   21.9720 H   0  0  0  0  0  0
  -28.0918  -29.1181   21.1786 H   0  0  0  0  0  0
  -26.0833  -26.0163   18.9657 H   0  0  0  0  0  0
  -23.9802  -27.3106   19.0156 H   0  0  0  0  0  0
  -23.6968  -30.6027   19.4070 H   0  0  0  0  0  0
  -22.7294  -29.2370   19.8798 H   0  0  0  0  0  0
  -25.1295  -36.2019   25.0832 H   0  0  0  0  0  0
  -20.9918  -28.3235   24.1475 H   0  0  0  0  0  0
  -20.5658  -26.2266   23.3613 H   0  0  0  0  0  0
  -21.6612  -26.7453   22.1232 H   0  0  0  0  0  0
  -19.6886  -25.6306   21.1247 H   0  0  0  0  0  0
  -19.6673  -27.3200   20.6761 H   0  0  0  0  0  0
  -17.4176  -26.6717   21.4004 H   0  0  0  0  0  0
  -18.0257  -26.0062   22.8995 H   0  0  0  0  0  0
  -19.7915  -30.7231   24.2341 H   0  0  0  0  0  0
  -17.5006  -31.6272   24.5183 H   0  0  0  0  0  0
  -15.5335  -30.3018   23.7628 H   0  0  0  0  0  0
  -15.8641  -28.0825   22.7088 H   0  0  0  0  0  0
  -24.5949  -30.6972   25.7795 H   0  0  0  0  0  0
  -24.8806  -32.2813   26.4877 H   0  0  0  0  0  0
  -25.8055  -30.8916   27.0254 H   0  0  0  0  0  0
  -26.2882  -29.6841   24.1172 H   0  0  0  0  0  0
  -27.4172  -29.7365   25.4531 H   0  0  0  0  0  0
  -27.8665  -30.4495   23.9205 H   0  0  0  0  0  0
  -27.2619  -33.3688   26.2076 H   0  0  0  0  0  0
  -28.3807  -32.6942   25.0324 H   0  0  0  0  0  0
  -28.0699  -31.8532   26.5426 H   0  0  0  0  0  0
  -28.2616  -38.0116   24.7521 H   0  0  0  0  0  0
  -28.1064  -36.2645   24.6314 H   0  0  0  0  0  0
  -27.2288  -37.1509   25.8870 H   0  0  0  0  0  0
  -20.9275  -29.8802   21.7036 H   0  0  0  0  0  0
  -26.0216  -38.2895   24.1376 H   0  0  0  0  0  0
  -29.6681  -21.0967   20.6880 H   0  0  0  0  0  0
  -28.2013  -19.3077   25.5295 H   0  0  0  0  0  0
  -27.2634  -17.9624   24.8881 H   0  0  0  0  0  0
  -26.5527  -19.0459   26.0773 H   0  0  0  0  0  0
  -24.8784  -20.2353   22.9082 H   0  0  0  0  0  0
  -24.5725  -19.6203   24.5270 H   0  0  0  0  0  0
  -25.1839  -18.5412   23.2792 H   0  0  0  0  0  0
  -24.6689  -23.2939   21.2562 H   0  0  0  0  0  0
  -25.1992  -24.0607   19.7768 H   0  0  0  0  0  0
  -25.3086  -24.9285   21.3097 H   0  0  0  0  0  0
  -29.3400  -18.5516   19.2035 H   0  0  0  0  0  0
  -28.5930  -17.2554   20.1016 H   0  0  0  0  0  0
  -31.3045  -18.4743   20.8545 H   0  0  0  0  0  0
  -31.1727  -17.1622   19.7351 H   0  0  0  0  0  0
  -27.1215  -24.0463   23.1008 H   0  0  0  0  0  0
  -26.2148  -22.5857   22.9476 H   0  0  0  0  0  0
  -28.8570  -23.6875   20.2916 H   0  0  0  0  0  0
  -27.6443  -24.4313   19.3278 H   0  0  0  0  0  0
  -28.4893  -22.2260   23.9621 H   0  0  0  0  0  0
  -29.2375  -22.7779   22.4955 H   0  0  0  0  0  0
  -30.1911  -16.9996   22.6396 H   0  0  0  0  0  0
  -31.7577  -16.4653   22.1035 H   0  0  0  0  0  0
  -29.1922  -25.5219   21.5894 H   0  0  0  0  0  0
  -27.5052  -25.8435   21.8133 H   0  0  0  0  0  0
  -26.6785  -20.9322   24.4694 H   0  0  0  0  0  0
  -26.8469  -22.4235   20.5297 H   0  0  0  0  0  0
  -27.4712  -17.9048   22.3302 H   0  0  0  0  0  0
  -29.2958  -15.0205   21.8652 H   0  0  0  0  0  0
  1 25  1  0  0  0
  1 30  2  0  0  0
  1 88  1  0  0  0
  2  3  1  0  0  0
  2 25  1  0  0  0
  2 89  1  0  0  0
  2 90  1  0  0  0
  3  4  1  0  0  0
  3 91  1  0  0  0
  3 92  1  0  0  0
  4  5  1  0  0  0
  4 93  1  0  0  0
  4 94  1  0  0  0
  5  6  1  0  0  0
  5 26  1  0  0  0
  5 95  1  0  0  0
  6 25  1  0  0  0
  6 96  1  0  0  0
  6 97  1  0  0  0
  7  8  2  0  0  0
  7 26  1  0  0  0
  7 29  1  0  0  0
  8  9  1  0  0  0
  8 22  1  0  0  0
  9 10  1  0  0  0
  9 27  2  0  0  0
 10 11  2  0  0  0
 10 15  1  0  0  0
 11 12  1  0  0  0
 11 98  1  0  0  0
 12 13  2  0  0  0
 12 99  1  0  0  0
 13 14  1  0  0  0
 13 31  1  0  0  0
 14 15  2  0  0  0
 14100  1  0  0  0
 15101  1  0  0  0
 16 17  2  0  0  0
 16 21  1  0  0  0
 16 31  1  0  0  0
 17 18  1  0  0  0
 17102  1  0  0  0
 18 19  2  0  0  0
 18103  1  0  0  0
 19 20  1  0  0  0
 19 24  1  0  0  0
 20 21  2  0  0  0
 20104  1  0  0  0
 21 23  1  0  0  0
 22 28  1  0  0  0
 22 32  2  0  0  0
 26 27  1  0  0  0
 28105  1  0  0  0
 28106  1  0  0  0
 29107  1  0  0  0
 29108  1  0  0  0
 33 34  1  0  0  0
 33 66  1  0  0  0
 33 70  2  0  0  0
 34 36  1  0  0  0
 34 59  1  0  0  0
 34109  1  0  0  0
 35 44  2  0  0  0
 35 45  1  0  0  0
 35 68  1  0  0  0
 36 56  1  0  0  0
 36110  1  0  0  0
 37 39  1  0  0  0
 37 47  1  0  0  0
 37 66  1  0  0  0
 37111  1  0  0  0
 38 43  2  0  0  0
 38 46  1  0  0  0
 38 47  1  0  0  0
 39 64  1  0  0  0
 39 67  2  0  0  0
 40 52  1  0  0  0
 40 53  2  0  0  0
 40 58  1  0  0  0
 41112  1  0  0  0
 41113  1  0  0  0
 41114  1  0  0  0
 41 48  1  0  0  0
 42 43  1  0  0  0
 42 66  1  0  0  0
 42115  1  0  0  0
 42116  1  0  0  0
 43 44  1  0  0  0
 44117  1  0  0  0
 45 46  2  0  0  0
 45118  1  0  0  0
 46119  1  0  0  0
 47120  1  0  0  0
 47121  1  0  0  0
 48 56  1  0  0  0
 48 65  1  0  0  0
 48122  1  0  0  0
 49 50  1  0  0  0
 49 53  1  0  0  0
 49 64  1  0  0  0
 49123  1  0  0  0
 50 51  1  0  0  0
 50124  1  0  0  0
 50125  1  0  0  0
 51 52  1  0  0  0
 51126  1  0  0  0
 51127  1  0  0  0
 52128  1  0  0  0
 52129  1  0  0  0
 53 54  1  0  0  0
 54 55  2  0  0  0
 54130  1  0  0  0
 55 57  1  0  0  0
 55131  1  0  0  0
 56 69  2  0  0  0
 57 58  2  0  0  0
 57132  1  0  0  0
 58133  1  0  0  0
 59 60  1  0  0  0
 59 61  1  0  0  0
 59 62  1  0  0  0
 60134  1  0  0  0
 60135  1  0  0  0
 60136  1  0  0  0
 61137  1  0  0  0
 61138  1  0  0  0
 61139  1  0  0  0
 62140  1  0  0  0
 62141  1  0  0  0
 62142  1  0  0  0
 63 65  1  0  0  0
 63143  1  0  0  0
 63144  1  0  0  0
 63145  1  0  0  0
 64146  1  0  0  0
 65147  1  0  0  0
 68 83  1  0  0  0
 71 72  2  0  0  0
 71 86  1  0  0  0
 71148  1  0  0  0
 72 77  1  0  0  0
 72 87  1  0  0  0
 73 84  1  0  0  0
 73 86  1  0  0  0
 73 87  2  0  0  0
 74149  1  0  0  0
 74150  1  0  0  0
 74151  1  0  0  0
 74 84  1  0  0  0
 75 84  1  0  0  0
 75152  1  0  0  0
 75153  1  0  0  0
 75154  1  0  0  0
 76155  1  0  0  0
 76156  1  0  0  0
 76157  1  0  0  0
 76 85  1  0  0  0
 77 78  1  0  0  0
 77158  1  0  0  0
 77159  1  0  0  0
 78 82  1  0  0  0
 78160  1  0  0  0
 78161  1  0  0  0
 79 81  1  0  0  0
 79 85  1  0  0  0
 79162  1  0  0  0
 79163  1  0  0  0
 80 83  1  0  0  0
 80 85  1  0  0  0
 80164  1  0  0  0
 80165  1  0  0  0
 81 86  1  0  0  0
 81166  1  0  0  0
 81167  1  0  0  0
 82 88  1  0  0  0
 82168  1  0  0  0
 82169  1  0  0  0
 83170  1  0  0  0
 83171  1  0  0  0
 84172  1  0  0  0
 85173  1  0  0  0
 87174  1  0  0  0
 88175  1  0  0  0
M  CHG  1  87   1
M  ISO  4   1 100  68 101  83 101  88 100
M  END
> <chiral flag>
0

> <version>
0

> <s_m_source_file>
/data/baiqing/PycharmProjects/Reinvent-master-3.2/result/LINK_invent/BTK/process_docking_weight1_custom_sum_contain_oxygen_bond_distance_aromatic_linkinvent_7_9_3/rearranged_h_0092.sdf

> <i_m_source_file_index>
35

> <r_mmod_Potential_Energy-OPLS-2005>
-69.2728118896484

> <r_mmod_Stretch_Energy-OPLS-2005>
32.4394798278809

> <r_mmod_Bend_Energy-OPLS-2005>
93.3673400878906

> <r_mmod_Torsional_Energy-OPLS-2005>
273.617401123047

> <r_mmod_Improper_Torsional_Energy-OPLS-2005>
2.57158350944519

> <r_mmod_Van_der_Waal_Energy-OPLS-2005>
115.382972717285

> <r_mmod_Electrostatic_Energy-OPLS-2005>
-182.907897949219

> <r_mmod_Solvation_Energy-OPLS-2005>
-412.361053466797

> <b_mmod_Minimization_Converged-OPLS-2005>
0

> <r_mmod_RMS_Derivative-OPLS-2005>
1.57464516162872

$$$$
36
                    3D
 Structure written by MMmdl.
161168  0  0  1  0            999 V2000
  -30.7003  -14.4956   20.5378 C   0  0  0  0  0  0
  -30.4201  -12.3098   19.4354 C   0  0  0  0  0  0
  -29.4970  -12.4959   18.2134 C   0  0  0  0  0  0
  -28.0185  -12.3568   18.6250 C   0  0  0  0  0  0
  -27.6598  -13.2096   19.8719 C   0  0  2  0  0  0
  -28.7025  -13.0202   20.9986 C   0  0  0  0  0  0
  -25.2582  -13.8164   20.5679 C   0  0  0  0  0  0
  -24.1836  -13.0439   20.9176 C   0  0  0  0  0  0
  -24.6392  -11.6905   20.8730 C   0  0  0  0  0  0
  -23.9059  -10.4292   21.0399 C   0  0  0  0  0  0
  -24.3611   -9.4208   21.9179 C   0  0  0  0  0  0
  -23.6287   -8.2245   22.0753 C   0  0  0  0  0  0
  -22.4272   -8.0279   21.3543 C   0  0  0  0  0  0
  -21.9905   -9.0251   20.4644 C   0  0  0  0  0  0
  -22.7230  -10.2132   20.3051 C   0  0  0  0  0  0
  -21.6855   -6.0733   22.5276 C   0  0  0  0  0  0
  -21.4015   -6.5636   23.8208 C   0  0  0  0  0  0
  -21.3657   -5.6792   24.9170 C   0  0  0  0  0  0
  -21.6047   -4.3054   24.7224 C   0  0  0  0  0  0
  -21.8819   -3.8143   23.4344 C   0  0  0  0  0  0
  -21.9192   -4.6961   22.3399 C   0  0  0  0  0  0
  -22.7859  -13.5235   21.1839 C   0  0  0  0  0  0
  -22.1662   -4.2145   21.0978 F   0  0  0  0  0  0
  -21.5628   -3.4537   25.7737 F   0  0  0  0  0  0
  -30.0318  -13.3134   20.4403 N   0  0  0  0  0  0
  -26.3019  -12.9340   20.3360 N   0  0  0  0  0  0
  -25.9322  -11.6497   20.5770 N   0  0  0  0  0  0
  -22.0503  -12.8227   22.0395 N   0  0  0  0  0  0
  -25.4302  -15.1885   20.4091 N   0  0  0  0  0  0
  -31.8428  -14.6478   20.0993 O   0  0  0  0  0  0
  -21.6638   -6.8875   21.4237 O   0  0  0  0  0  0
  -22.3544  -14.5541   20.6687 O   0  0  0  0  0  0
  -24.6178  -31.8672   23.2101 C   0  0  0  0  0  0
  -25.9067  -32.4817   23.8395 C   0  0  1  0  0  0
  -27.2237  -27.4048   20.0950 C   0  0  0  0  0  0
  -25.5920  -33.8617   24.2329 N   0  0  0  0  0  0
  -23.4061  -30.4932   21.5521 C   0  0  2  0  0  0
  -24.8494  -28.9644   20.1098 C   0  0  0  0  0  0
  -22.7435  -29.4650   22.4977 C   0  0  0  0  0  0
  -18.0278  -28.1366   22.8486 C   0  0  0  0  0  0
  -24.1490  -36.7309   23.2633 C   0  0  0  0  0  0
  -25.9392  -30.8240   21.3685 C   0  0  0  0  0  0
  -26.0140  -29.4592   20.7098 C   0  0  0  0  0  0
  -27.2039  -28.6882   20.6988 C   0  0  0  0  0  0
  -26.0373  -26.9452   19.4713 C   0  0  0  0  0  0
  -24.8579  -27.7080   19.4864 C   0  0  0  0  0  0
  -23.6135  -29.8340   20.1637 C   0  0  0  0  0  0
  -25.4109  -36.3111   24.0333 C   0  0  1  0  0  0
  -20.5872  -28.3665   23.1303 C   0  0  2  0  0  0
  -20.6775  -26.9401   22.5410 C   0  0  0  0  0  0
  -19.5752  -26.6381   21.5207 C   0  0  0  0  0  0
  -18.1928  -26.7915   22.1618 C   0  0  0  0  0  0
  -19.1527  -28.8832   23.2892 C   0  0  0  0  0  0
  -18.9456  -30.1437   23.8907 C   0  0  0  0  0  0
  -17.6459  -30.6580   24.0553 C   0  0  0  0  0  0
  -25.9041  -34.9474   23.5129 C   0  0  0  0  0  0
  -16.5349  -29.9078   23.6320 C   0  0  0  0  0  0
  -16.7268  -28.6490   23.0349 C   0  0  0  0  0  0
  -26.4486  -31.6593   25.0725 C   0  0  0  0  0  0
  -25.3742  -31.3697   26.1469 C   0  0  0  0  0  0
  -27.0317  -30.3033   24.6104 C   0  0  0  0  0  0
  -27.6059  -32.4315   25.7493 C   0  0  0  0  0  0
  -27.5585  -37.1814   24.8464 C   0  0  0  0  0  0
  -21.4160  -29.3032   22.3717 N   0  0  0  0  0  0
  -26.4297  -37.3794   23.9405 N   0  0  0  0  0  0
  -24.6729  -31.0756   22.1014 N   0  0  0  0  0  0
  -23.4201  -28.8180   23.3015 O   0  0  0  0  0  0
  -28.3714  -26.6231   20.1409 O   0  0  0  0  0  0
  -26.5599  -34.8927   22.4689 O   0  0  0  0  0  0
  -23.5367  -32.1436   23.7485 O   0  0  0  0  0  0
  -32.0550  -19.4328   21.3138 C   0  0  0  0  0  0
  -30.7029  -19.8515   23.3688 C   0  0  0  0  0  0
  -29.0058  -22.7764   20.4037 C   0  0  0  0  0  0
  -30.0328  -21.8425   21.0975 C   0  0  0  0  0  0
  -29.3179  -24.3002   20.5264 C   0  0  0  0  0  0
  -29.6714  -20.3184   21.0964 C   0  0  0  0  0  0
  -30.1268  -17.8786   21.9568 C   0  0  0  0  0  0
  -30.3119  -16.9788   20.7054 C   0  0  0  0  0  0
  -28.1880  -25.1978   19.9618 C   0  0  0  0  0  0
  -30.6296  -19.3703   21.9012 C   0  0  0  0  0  0
  -29.9712  -15.5567   20.9465 N   0  0  0  0  0  0
  -31.4662  -12.3968   19.1366 H   0  0  0  0  0  0
  -30.3129  -11.3057   19.8489 H   0  0  0  0  0  0
  -29.7401  -11.7635   17.4423 H   0  0  0  0  0  0
  -29.6649  -13.4775   17.7673 H   0  0  0  0  0  0
  -27.8333  -11.3023   18.8330 H   0  0  0  0  0  0
  -27.3679  -12.6191   17.7898 H   0  0  0  0  0  0
  -27.6956  -14.2526   19.5566 H   0  0  0  0  0  0
  -28.6800  -11.9957   21.3723 H   0  0  0  0  0  0
  -28.4695  -13.6524   21.8565 H   0  0  0  0  0  0
  -25.2759   -9.5687   22.4749 H   0  0  0  0  0  0
  -23.9997   -7.4640   22.7475 H   0  0  0  0  0  0
  -21.0837   -8.8766   19.8951 H   0  0  0  0  0  0
  -22.3686  -10.9668   19.6156 H   0  0  0  0  0  0
  -21.2009   -7.6147   23.9710 H   0  0  0  0  0  0
  -21.1481   -6.0523   25.9075 H   0  0  0  0  0  0
  -22.0601   -2.7606   23.2845 H   0  0  0  0  0  0
  -22.4121  -11.9889   22.4782 H   0  0  0  0  0  0
  -21.1119  -13.1248   22.2600 H   0  0  0  0  0  0
  -24.6638  -15.8440   20.5163 H   0  0  0  0  0  0
  -26.2841  -15.6282   20.0893 H   0  0  0  0  0  0
  -26.7136  -32.5519   23.1151 H   0  0  0  0  0  0
  -25.0098  -33.9774   25.0496 H   0  0  0  0  0  0
  -22.6949  -31.3107   21.4174 H   0  0  0  0  0  0
  -23.3758  -35.9639   23.3304 H   0  0  0  0  0  0
  -24.3588  -36.8918   22.2049 H   0  0  0  0  0  0
  -23.7238  -37.6512   23.6646 H   0  0  0  0  0  0
  -26.0596  -31.5933   20.6045 H   0  0  0  0  0  0
  -26.8239  -30.8711   21.9912 H   0  0  0  0  0  0
  -28.0991  -29.0635   21.1753 H   0  0  0  0  0  0
  -25.9930  -25.9908   18.9676 H   0  0  0  0  0  0
  -23.9650  -27.3248   19.0117 H   0  0  0  0  0  0
  -23.7232  -30.6135   19.4088 H   0  0  0  0  0  0
  -22.7361  -29.2571   19.8661 H   0  0  0  0  0  0
  -25.1286  -36.1982   25.0826 H   0  0  0  0  0  0
  -20.9958  -28.3236   24.1423 H   0  0  0  0  0  0
  -20.5687  -26.2268   23.3597 H   0  0  0  0  0  0
  -21.6644  -26.7448   22.1194 H   0  0  0  0  0  0
  -19.6916  -25.6297   21.1225 H   0  0  0  0  0  0
  -19.6689  -27.3201   20.6743 H   0  0  0  0  0  0
  -17.4201  -26.6660   21.4017 H   0  0  0  0  0  0
  -18.0327  -26.0047   22.9004 H   0  0  0  0  0  0
  -19.7934  -30.7239   24.2290 H   0  0  0  0  0  0
  -17.5016  -31.6260   24.5155 H   0  0  0  0  0  0
  -15.5349  -30.2982   23.7637 H   0  0  0  0  0  0
  -15.8666  -28.0809   22.7065 H   0  0  0  0  0  0
  -24.5922  -30.7040   25.7802 H   0  0  0  0  0  0
  -24.8923  -32.2851   26.4916 H   0  0  0  0  0  0
  -25.8088  -30.8869   27.0228 H   0  0  0  0  0  0
  -26.2860  -29.6801   24.1156 H   0  0  0  0  0  0
  -27.4087  -29.7265   25.4557 H   0  0  0  0  0  0
  -27.8698  -30.4348   23.9254 H   0  0  0  0  0  0
  -27.2679  -33.3611   26.2087 H   0  0  0  0  0  0
  -28.3865  -32.6886   25.0319 H   0  0  0  0  0  0
  -28.0732  -31.8428   26.5397 H   0  0  0  0  0  0
  -28.2606  -38.0111   24.7530 H   0  0  0  0  0  0
  -28.1087  -36.2649   24.6278 H   0  0  0  0  0  0
  -27.2306  -37.1445   25.8867 H   0  0  0  0  0  0
  -20.9329  -29.8763   21.6942 H   0  0  0  0  0  0
  -26.0193  -38.2875   24.1413 H   0  0  0  0  0  0
  -32.5072  -20.4158   21.4473 H   0  0  0  0  0  0
  -32.0622  -19.2247   20.2431 H   0  0  0  0  0  0
  -32.7156  -18.7121   21.7976 H   0  0  0  0  0  0
  -31.1718  -20.8301   23.4650 H   0  0  0  0  0  0
  -31.2977  -19.1765   23.9855 H   0  0  0  0  0  0
  -29.7114  -19.9137   23.8190 H   0  0  0  0  0  0
  -28.0225  -22.5847   20.8357 H   0  0  0  0  0  0
  -28.9261  -22.5086   19.3490 H   0  0  0  0  0  0
  -30.1328  -22.1928   22.1232 H   0  0  0  0  0  0
  -31.0073  -21.9894   20.6313 H   0  0  0  0  0  0
  -30.2556  -24.5291   20.0192 H   0  0  0  0  0  0
  -29.4687  -24.5495   21.5771 H   0  0  0  0  0  0
  -29.6121  -19.9734   20.0631 H   0  0  0  0  0  0
  -28.6619  -20.2083   21.4957 H   0  0  0  0  0  0
  -30.6539  -17.3734   22.7679 H   0  0  0  0  0  0
  -29.0769  -17.8671   22.2529 H   0  0  0  0  0  0
  -31.3390  -17.0550   20.3492 H   0  0  0  0  0  0
  -29.6868  -17.3495   19.8923 H   0  0  0  0  0  0
  -27.2711  -24.8815   20.4633 H   0  0  0  0  0  0
  -28.0636  -24.9888   18.8978 H   0  0  0  0  0  0
  -29.0375  -15.3551   21.2724 H   0  0  0  0  0  0
  1 25  1  0  0  0
  1 30  2  0  0  0
  1 81  1  0  0  0
  2  3  1  0  0  0
  2 25  1  0  0  0
  2 82  1  0  0  0
  2 83  1  0  0  0
  3  4  1  0  0  0
  3 84  1  0  0  0
  3 85  1  0  0  0
  4  5  1  0  0  0
  4 86  1  0  0  0
  4 87  1  0  0  0
  5  6  1  0  0  0
  5 26  1  0  0  0
  5 88  1  0  0  0
  6 25  1  0  0  0
  6 89  1  0  0  0
  6 90  1  0  0  0
  7  8  2  0  0  0
  7 26  1  0  0  0
  7 29  1  0  0  0
  8  9  1  0  0  0
  8 22  1  0  0  0
  9 10  1  0  0  0
  9 27  2  0  0  0
 10 11  2  0  0  0
 10 15  1  0  0  0
 11 12  1  0  0  0
 11 91  1  0  0  0
 12 13  2  0  0  0
 12 92  1  0  0  0
 13 14  1  0  0  0
 13 31  1  0  0  0
 14 15  2  0  0  0
 14 93  1  0  0  0
 15 94  1  0  0  0
 16 17  2  0  0  0
 16 21  1  0  0  0
 16 31  1  0  0  0
 17 18  1  0  0  0
 17 95  1  0  0  0
 18 19  2  0  0  0
 18 96  1  0  0  0
 19 20  1  0  0  0
 19 24  1  0  0  0
 20 21  2  0  0  0
 20 97  1  0  0  0
 21 23  1  0  0  0
 22 28  1  0  0  0
 22 32  2  0  0  0
 26 27  1  0  0  0
 28 98  1  0  0  0
 28 99  1  0  0  0
 29100  1  0  0  0
 29101  1  0  0  0
 33 34  1  0  0  0
 33 66  1  0  0  0
 33 70  2  0  0  0
 34 36  1  0  0  0
 34 59  1  0  0  0
 34102  1  0  0  0
 35 44  2  0  0  0
 35 45  1  0  0  0
 35 68  1  0  0  0
 36 56  1  0  0  0
 36103  1  0  0  0
 37 39  1  0  0  0
 37 47  1  0  0  0
 37 66  1  0  0  0
 37104  1  0  0  0
 38 43  2  0  0  0
 38 46  1  0  0  0
 38 47  1  0  0  0
 39 64  1  0  0  0
 39 67  2  0  0  0
 40 52  1  0  0  0
 40 53  2  0  0  0
 40 58  1  0  0  0
 41105  1  0  0  0
 41106  1  0  0  0
 41107  1  0  0  0
 41 48  1  0  0  0
 42 43  1  0  0  0
 42 66  1  0  0  0
 42108  1  0  0  0
 42109  1  0  0  0
 43 44  1  0  0  0
 44110  1  0  0  0
 45 46  2  0  0  0
 45111  1  0  0  0
 46112  1  0  0  0
 47113  1  0  0  0
 47114  1  0  0  0
 48 56  1  0  0  0
 48 65  1  0  0  0
 48115  1  0  0  0
 49 50  1  0  0  0
 49 53  1  0  0  0
 49 64  1  0  0  0
 49116  1  0  0  0
 50 51  1  0  0  0
 50117  1  0  0  0
 50118  1  0  0  0
 51 52  1  0  0  0
 51119  1  0  0  0
 51120  1  0  0  0
 52121  1  0  0  0
 52122  1  0  0  0
 53 54  1  0  0  0
 54 55  2  0  0  0
 54123  1  0  0  0
 55 57  1  0  0  0
 55124  1  0  0  0
 56 69  2  0  0  0
 57 58  2  0  0  0
 57125  1  0  0  0
 58126  1  0  0  0
 59 60  1  0  0  0
 59 61  1  0  0  0
 59 62  1  0  0  0
 60127  1  0  0  0
 60128  1  0  0  0
 60129  1  0  0  0
 61130  1  0  0  0
 61131  1  0  0  0
 61132  1  0  0  0
 62133  1  0  0  0
 62134  1  0  0  0
 62135  1  0  0  0
 63 65  1  0  0  0
 63136  1  0  0  0
 63137  1  0  0  0
 63138  1  0  0  0
 64139  1  0  0  0
 65140  1  0  0  0
 68 79  1  0  0  0
 71141  1  0  0  0
 71142  1  0  0  0
 71143  1  0  0  0
 71 80  1  0  0  0
 72 80  1  0  0  0
 72144  1  0  0  0
 72145  1  0  0  0
 72146  1  0  0  0
 73 74  1  0  0  0
 73 75  1  0  0  0
 73147  1  0  0  0
 73148  1  0  0  0
 74 76  1  0  0  0
 74149  1  0  0  0
 74150  1  0  0  0
 75 79  1  0  0  0
 75151  1  0  0  0
 75152  1  0  0  0
 76 80  1  0  0  0
 76153  1  0  0  0
 76154  1  0  0  0
 77 78  1  0  0  0
 77 80  1  0  0  0
 77155  1  0  0  0
 77156  1  0  0  0
 78 81  1  0  0  0
 78157  1  0  0  0
 78158  1  0  0  0
 79159  1  0  0  0
 79160  1  0  0  0
 81161  1  0  0  0
M  ISO  4   1 100  68 101  79 101  81 100
M  END
> <chiral flag>
0

> <version>
0

> <s_m_source_file>
/data/baiqing/PycharmProjects/Reinvent-master-3.2/result/LINK_invent/BTK/process_docking_weight1_custom_sum_contain_oxygen_bond_distance_aromatic_linkinvent_7_9_3/rearranged_h_0092.sdf

> <i_m_source_file_index>
36

> <r_mmod_Potential_Energy-OPLS-2005>
-31.3835468292236

> <r_mmod_Stretch_Energy-OPLS-2005>
44.4404258728027

> <r_mmod_Bend_Energy-OPLS-2005>
104.688529968262

> <r_mmod_Torsional_Energy-OPLS-2005>
210.48991394043

> <r_mmod_Improper_Torsional_Energy-OPLS-2005>
5.05648136138916

> <r_mmod_Van_der_Waal_Energy-OPLS-2005>
143.020370483398

> <r_mmod_Electrostatic_Energy-OPLS-2005>
-364.665649414062

> <r_mmod_Solvation_Energy-OPLS-2005>
-193.253280639648

> <b_mmod_Minimization_Converged-OPLS-2005>
0

> <r_mmod_RMS_Derivative-OPLS-2005>
0.749481379985809

$$$$
37
                    3D
 Structure written by MMmdl.
169177  0  0  1  0            999 V2000
  -29.6950  -16.6520   20.3391 C   0  0  0  0  0  0
  -30.2446  -13.8971   19.5352 C   0  0  0  0  0  0
  -29.5495  -12.9910   18.4260 C   0  0  0  0  0  0
  -28.2428  -12.3750   18.9248 C   0  0  0  0  0  0
  -27.5517  -13.4047   19.8244 C   0  0  2  0  0  0
  -28.4476  -14.1205   20.8941 C   0  0  0  0  0  0
  -25.2093  -13.8431   20.5940 C   0  0  0  0  0  0
  -24.1615  -13.0454   20.9318 C   0  0  0  0  0  0
  -24.6459  -11.6995   20.8753 C   0  0  0  0  0  0
  -23.9195  -10.4314   21.0388 C   0  0  0  0  0  0
  -24.3718   -9.4239   21.9184 C   0  0  0  0  0  0
  -23.6356   -8.2297   22.0772 C   0  0  0  0  0  0
  -22.4340   -8.0329   21.3548 C   0  0  0  0  0  0
  -22.0002   -9.0312   20.4641 C   0  0  0  0  0  0
  -22.7362  -10.2169   20.3033 C   0  0  0  0  0  0
  -21.6887   -6.0771   22.5280 C   0  0  0  0  0  0
  -21.4030   -6.5656   23.8220 C   0  0  0  0  0  0
  -21.3660   -5.6800   24.9169 C   0  0  0  0  0  0
  -21.6045   -4.3066   24.7218 C   0  0  0  0  0  0
  -21.8814   -3.8164   23.4334 C   0  0  0  0  0  0
  -21.9206   -4.6989   22.3396 C   0  0  0  0  0  0
  -22.7617  -13.5129   21.1925 C   0  0  0  0  0  0
  -22.1672   -4.2170   21.0978 F   0  0  0  0  0  0
  -21.5628   -3.4543   25.7731 F   0  0  0  0  0  0
  -29.3898  -15.0953   20.2037 N   0  0  0  0  0  0
  -26.2631  -12.9930   20.3439 N   0  0  0  0  0  0
  -25.9423  -11.6873   20.5620 N   0  0  0  0  0  0
  -22.0314  -12.8101   22.0471 N   0  0  0  0  0  0
  -25.3562  -15.2177   20.4386 N   0  0  0  0  0  0
  -30.9524  -16.4908   20.2051 O   0  0  0  0  0  0
  -21.6677   -6.8932   21.4251 O   0  0  0  0  0  0
  -22.3326  -14.5454   20.6784 O   0  0  0  0  0  0
  -24.6895  -31.6640   23.1070 C   0  0  0  0  0  0
  -25.9348  -32.3685   23.7746 C   0  0  1  0  0  0
  -27.9221  -26.8096   19.5458 C   0  0  0  0  0  0
  -25.5587  -33.7722   24.1223 N   0  0  0  0  0  0
  -23.5603  -30.1126   21.4972 C   0  0  2  0  0  0
  -24.9090  -27.9274   20.4133 C   0  0  0  0  0  0
  -22.7497  -29.3377   22.5394 C   0  0  0  0  0  0
  -18.0168  -28.1417   22.8406 C   0  0  0  0  0  0
  -24.1483  -36.6944   23.2675 C   0  0  0  0  0  0
  -26.0498  -29.8587   21.9126 C   0  0  0  0  0  0
  -26.1321  -28.3861   21.2105 C   0  0  0  0  0  0
  -27.5562  -27.7518   20.8808 C   0  0  0  0  0  0
  -26.5137  -26.3045   18.5683 C   0  0  0  0  0  0
  -25.0335  -26.8414   19.2335 C   0  0  0  0  0  0
  -23.8054  -29.0854   20.3062 C   0  0  0  0  0  0
  -25.4149  -36.2523   24.0189 C   0  0  1  0  0  0
  -20.5684  -28.3604   23.1356 C   0  0  2  0  0  0
  -20.6548  -26.9283   22.5583 C   0  0  0  0  0  0
  -19.5685  -26.6355   21.5204 C   0  0  0  0  0  0
  -18.1813  -26.7969   22.1506 C   0  0  0  0  0  0
  -19.1407  -28.8862   23.2845 C   0  0  0  0  0  0
  -18.9388  -30.1435   23.8910 C   0  0  0  0  0  0
  -17.6412  -30.6615   24.0534 C   0  0  0  0  0  0
  -25.9135  -34.8885   23.4707 C   0  0  0  0  0  0
  -16.5293  -29.9153   23.6293 C   0  0  0  0  0  0
  -16.7166  -28.6573   23.0290 C   0  0  0  0  0  0
  -26.4831  -31.6646   25.0947 C   0  0  0  0  0  0
  -25.3795  -31.4000   26.1434 C   0  0  0  0  0  0
  -27.1844  -30.3147   24.8471 C   0  0  0  0  0  0
  -27.5805  -32.5424   25.7445 C   0  0  0  0  0  0
  -27.5526  -37.1563   24.8438 C   0  0  0  0  0  0
  -21.4190  -29.2697   22.3767 N   0  0  0  0  0  0
  -26.4191  -37.3390   23.9422 N   0  0  0  0  0  0
  -24.7957  -30.6690   22.1345 N   0  0  0  0  0  0
  -23.3468  -28.7360   23.4299 O   0  0  0  0  0  0
  -29.1545  -26.3569   19.4138 O   0  0  0  0  0  0
  -26.6134  -34.8641   22.4574 O   0  0  0  0  0  0
  -23.5835  -32.0577   23.5195 O   0  0  0  0  0  0
  -27.5495  -24.0578   20.9738 C   0  0  0  0  0  0
  -25.8841  -24.2602   20.1664 C   0  0  0  0  0  0
  -26.5048  -25.4774   20.6537 C   0  0  0  0  0  0
  -27.6197  -22.4176   20.6240 C   0  0  0  0  0  0
  -27.1121  -28.0941   16.1508 C   0  0  0  0  0  0
  -26.7676  -30.0632   19.1903 C   0  0  0  0  0  0
  -30.8292  -25.6279   18.1386 C   0  0  0  0  0  0
  -28.6455  -20.3728   20.5663 C   0  0  0  0  0  0
  -27.6413  -28.5683   17.5224 C   0  0  0  0  0  0
  -27.4120  -23.5477   17.3090 C   0  0  0  0  0  0
  -28.7648  -24.3909   17.4744 C   0  0  0  0  0  0
  -26.6488  -22.6318   18.3381 C   0  0  0  0  0  0
  -26.6465  -28.5010   18.8542 C   0  0  1  0  0  0
  -29.4727  -25.1298   18.6991 C   0  0  2  0  0  0
  -26.6889  -23.0593   19.7255 N   0  0  0  0  0  0
  -28.8376  -18.2437   20.4546 N   0  0  0  0  0  0
  -31.0819  -14.3619   19.0124 H   0  0  0  0  0  0
  -30.7201  -13.2669   20.2929 H   0  0  0  0  0  0
  -30.2308  -12.2045   18.1041 H   0  0  0  0  0  0
  -29.3387  -13.5878   17.5344 H   0  0  0  0  0  0
  -28.4867  -11.4902   19.5100 H   0  0  0  0  0  0
  -27.6112  -12.0433   18.1021 H   0  0  0  0  0  0
  -27.3019  -14.1854   19.1069 H   0  0  0  0  0  0
  -28.9363  -13.4219   21.5735 H   0  0  0  0  0  0
  -27.8156  -14.7234   21.5457 H   0  0  0  0  0  0
  -25.2862   -9.5724   22.4755 H   0  0  0  0  0  0
  -24.0051   -7.4705   22.7526 H   0  0  0  0  0  0
  -21.0932   -8.8860   19.8944 H   0  0  0  0  0  0
  -22.3854  -10.9714   19.6130 H   0  0  0  0  0  0
  -21.2018   -7.6161   23.9721 H   0  0  0  0  0  0
  -21.1484   -6.0528   25.9074 H   0  0  0  0  0  0
  -22.0585   -2.7622   23.2833 H   0  0  0  0  0  0
  -22.4013  -11.9779   22.4826 H   0  0  0  0  0  0
  -21.0899  -13.1043   22.2633 H   0  0  0  0  0  0
  -24.5816  -15.8596   20.5508 H   0  0  0  0  0  0
  -26.2007  -15.6668   20.1098 H   0  0  0  0  0  0
  -26.7347  -32.3914   23.0325 H   0  0  0  0  0  0
  -24.9204  -33.8706   24.8974 H   0  0  0  0  0  0
  -22.9605  -30.9430   21.1242 H   0  0  0  0  0  0
  -23.3764  -35.9243   23.3068 H   0  0  0  0  0  0
  -24.3529  -36.8968   22.2146 H   0  0  0  0  0  0
  -23.7206  -37.5983   23.7047 H   0  0  0  0  0  0
  -26.9150  -30.4832   21.6973 H   0  0  0  0  0  0
  -26.2291  -29.4340   22.8682 H   0  0  0  0  0  0
  -28.4122  -28.1114   21.4376 H   0  0  0  0  0  0
  -26.5512  -25.7647   17.6604 H   0  0  0  0  0  0
  -24.1587  -26.6561   18.6353 H   0  0  0  0  0  0
  -23.9850  -29.6385   19.3884 H   0  0  0  0  0  0
  -22.8834  -28.5546   20.0925 H   0  0  0  0  0  0
  -25.1392  -36.1137   25.0668 H   0  0  0  0  0  0
  -20.9604  -28.3179   24.1538 H   0  0  0  0  0  0
  -20.5163  -26.2231   23.3785 H   0  0  0  0  0  0
  -21.6480  -26.7113   22.1583 H   0  0  0  0  0  0
  -19.6821  -25.6260   21.1214 H   0  0  0  0  0  0
  -19.6761  -27.3215   20.6779 H   0  0  0  0  0  0
  -17.4129  -26.6753   21.3830 H   0  0  0  0  0  0
  -18.0122  -26.0087   22.8854 H   0  0  0  0  0  0
  -19.7877  -30.7171   24.2361 H   0  0  0  0  0  0
  -17.4969  -31.6271   24.5193 H   0  0  0  0  0  0
  -15.5305  -30.3067   23.7575 H   0  0  0  0  0  0
  -15.8541  -28.0883   22.7013 H   0  0  0  0  0  0
  -24.6208  -30.7101   25.7727 H   0  0  0  0  0  0
  -24.8741  -32.3204   26.4373 H   0  0  0  0  0  0
  -25.7935  -30.9549   27.0489 H   0  0  0  0  0  0
  -26.4839  -29.4816   24.8373 H   0  0  0  0  0  0
  -27.8457  -30.0599   25.6766 H   0  0  0  0  0  0
  -27.8287  -30.3237   23.9675 H   0  0  0  0  0  0
  -27.2023  -33.5126   26.0667 H   0  0  0  0  0  0
  -28.3992  -32.7286   25.0486 H   0  0  0  0  0  0
  -28.0104  -32.0805   26.6329 H   0  0  0  0  0  0
  -28.2362  -38.0016   24.7566 H   0  0  0  0  0  0
  -28.1192  -36.2528   24.6147 H   0  0  0  0  0  0
  -27.2278  -37.1029   25.8841 H   0  0  0  0  0  0
  -20.9856  -29.8101   21.6378 H   0  0  0  0  0  0
  -25.9919  -38.2387   24.1503 H   0  0  0  0  0  0
  -28.4781  -24.3404   21.4540 H   0  0  0  0  0  0
  -25.0336  -24.3536   19.5017 H   0  0  0  0  0  0
  -27.7511  -28.4713   15.3528 H   0  0  0  0  0  0
  -26.1099  -28.4538   15.9461 H   0  0  0  0  0  0
  -27.1242  -27.0126   16.0374 H   0  0  0  0  0  0
  -25.9207  -30.5202   19.6851 H   0  0  0  0  0  0
  -26.6678  -30.6742   18.2884 H   0  0  0  0  0  0
  -27.7139  -30.3603   19.6490 H   0  0  0  0  0  0
  -31.5032  -24.8133   17.8879 H   0  0  0  0  0  0
  -31.3660  -26.2739   18.8371 H   0  0  0  0  0  0
  -30.6941  -26.2229   17.2302 H   0  0  0  0  0  0
  -29.1773  -20.4368   21.5107 H   0  0  0  0  0  0
  -29.4185  -20.5780   19.8308 H   0  0  0  0  0  0
  -27.9956  -29.5727   17.2940 H   0  0  0  0  0  0
  -28.6114  -28.0998   17.6624 H   0  0  0  0  0  0
  -27.6723  -22.8407   16.5214 H   0  0  0  0  0  0
  -26.6787  -24.0844   16.7141 H   0  0  0  0  0  0
  -28.8340  -25.0568   16.6129 H   0  0  0  0  0  0
  -29.4902  -23.6144   17.2328 H   0  0  0  0  0  0
  -27.0349  -21.6170   18.2632 H   0  0  0  0  0  0
  -25.6035  -22.5535   18.0393 H   0  0  0  0  0  0
  -25.7488  -28.7021   18.2408 H   0  0  0  0  0  0
  -29.7067  -24.3892   19.4570 H   0  0  0  0  0  0
  -27.8893  -17.9394   20.6207 H   0  0  0  0  0  0
  1 25  1  0  0  0
  1 30  2  0  0  0
  1 86  1  0  0  0
  2  3  1  0  0  0
  2 25  1  0  0  0
  2 87  1  0  0  0
  2 88  1  0  0  0
  3  4  1  0  0  0
  3 89  1  0  0  0
  3 90  1  0  0  0
  4  5  1  0  0  0
  4 91  1  0  0  0
  4 92  1  0  0  0
  5  6  1  0  0  0
  5 26  1  0  0  0
  5 93  1  0  0  0
  6 25  1  0  0  0
  6 94  1  0  0  0
  6 95  1  0  0  0
  7  8  2  0  0  0
  7 26  1  0  0  0
  7 29  1  0  0  0
  8  9  1  0  0  0
  8 22  1  0  0  0
  9 10  1  0  0  0
  9 27  2  0  0  0
 10 11  2  0  0  0
 10 15  1  0  0  0
 11 12  1  0  0  0
 11 96  1  0  0  0
 12 13  2  0  0  0
 12 97  1  0  0  0
 13 14  1  0  0  0
 13 31  1  0  0  0
 14 15  2  0  0  0
 14 98  1  0  0  0
 15 99  1  0  0  0
 16 17  2  0  0  0
 16 21  1  0  0  0
 16 31  1  0  0  0
 17 18  1  0  0  0
 17100  1  0  0  0
 18 19  2  0  0  0
 18101  1  0  0  0
 19 20  1  0  0  0
 19 24  1  0  0  0
 20 21  2  0  0  0
 20102  1  0  0  0
 21 23  1  0  0  0
 22 28  1  0  0  0
 22 32  2  0  0  0
 26 27  1  0  0  0
 28103  1  0  0  0
 28104  1  0  0  0
 29105  1  0  0  0
 29106  1  0  0  0
 33 34  1  0  0  0
 33 66  1  0  0  0
 33 70  2  0  0  0
 34 36  1  0  0  0
 34 59  1  0  0  0
 34107  1  0  0  0
 35 44  2  0  0  0
 35 45  1  0  0  0
 35 68  1  0  0  0
 36 56  1  0  0  0
 36108  1  0  0  0
 37 39  1  0  0  0
 37 47  1  0  0  0
 37 66  1  0  0  0
 37109  1  0  0  0
 38 43  2  0  0  0
 38 46  1  0  0  0
 38 47  1  0  0  0
 39 64  1  0  0  0
 39 67  2  0  0  0
 40 52  1  0  0  0
 40 53  2  0  0  0
 40 58  1  0  0  0
 41110  1  0  0  0
 41111  1  0  0  0
 41112  1  0  0  0
 41 48  1  0  0  0
 42 43  1  0  0  0
 42 66  1  0  0  0
 42113  1  0  0  0
 42114  1  0  0  0
 43 44  1  0  0  0
 44115  1  0  0  0
 45 46  2  0  0  0
 45116  1  0  0  0
 46117  1  0  0  0
 47118  1  0  0  0
 47119  1  0  0  0
 48 56  1  0  0  0
 48 65  1  0  0  0
 48120  1  0  0  0
 49 50  1  0  0  0
 49 53  1  0  0  0
 49 64  1  0  0  0
 49121  1  0  0  0
 50 51  1  0  0  0
 50122  1  0  0  0
 50123  1  0  0  0
 51 52  1  0  0  0
 51124  1  0  0  0
 51125  1  0  0  0
 52126  1  0  0  0
 52127  1  0  0  0
 53 54  1  0  0  0
 54 55  2  0  0  0
 54128  1  0  0  0
 55 57  1  0  0  0
 55129  1  0  0  0
 56 69  2  0  0  0
 57 58  2  0  0  0
 57130  1  0  0  0
 58131  1  0  0  0
 59 60  1  0  0  0
 59 61  1  0  0  0
 59 62  1  0  0  0
 60132  1  0  0  0
 60133  1  0  0  0
 60134  1  0  0  0
 61135  1  0  0  0
 61136  1  0  0  0
 61137  1  0  0  0
 62138  1  0  0  0
 62139  1  0  0  0
 62140  1  0  0  0
 63 65  1  0  0  0
 63141  1  0  0  0
 63142  1  0  0  0
 63143  1  0  0  0
 64144  1  0  0  0
 65145  1  0  0  0
 68 84  1  0  0  0
 71 73  1  0  0  0
 71 74  2  0  0  0
 71146  1  0  0  0
 72 73  2  0  0  0
 72 85  1  0  0  0
 72147  1  0  0  0
 73 83  1  0  0  0
 74 78  1  0  0  0
 74 85  1  0  0  0
 75 79  1  0  0  0
 75148  1  0  0  0
 75149  1  0  0  0
 75150  1  0  0  0
 76151  1  0  0  0
 76152  1  0  0  0
 76153  1  0  0  0
 76 83  1  0  0  0
 77154  1  0  0  0
 77155  1  0  0  0
 77156  1  0  0  0
 77 84  1  0  0  0
 78 86  1  0  0  0
 78157  1  0  0  0
 78158  1  0  0  0
 79 83  1  0  0  0
 79159  1  0  0  0
 79160  1  0  0  0
 80 81  1  0  0  0
 80 82  1  0  0  0
 80161  1  0  0  0
 80162  1  0  0  0
 81 84  1  0  0  0
 81163  1  0  0  0
 81164  1  0  0  0
 82 85  1  0  0  0
 82165  1  0  0  0
 82166  1  0  0  0
 83167  1  0  0  0
 84168  1  0  0  0
 86169  1  0  0  0
M  ISO  4   1 100  68 101  84 101  86 100
M  END
> <chiral flag>
0

> <version>
0

> <s_m_source_file>
/data/baiqing/PycharmProjects/Reinvent-master-3.2/result/LINK_invent/BTK/process_docking_weight1_custom_sum_contain_oxygen_bond_distance_aromatic_linkinvent_7_9_3/rearranged_h_0092.sdf

> <i_m_source_file_index>
37

> <r_mmod_Potential_Energy-OPLS-2005>
15060.2919921875

> <r_mmod_Stretch_Energy-OPLS-2005>
8472.88671875

> <r_mmod_Bend_Energy-OPLS-2005>
1547.76318359375

> <r_mmod_Torsional_Energy-OPLS-2005>
504.518859863281

> <r_mmod_Improper_Torsional_Energy-OPLS-2005>
60.4430313110352

> <r_mmod_Van_der_Waal_Energy-OPLS-2005>
2034.94494628906

> <r_mmod_Electrostatic_Energy-OPLS-2005>
-390.174468994141

> <r_mmod_Solvation_Energy-OPLS-2005>
-227.669845581055

> <b_mmod_Minimization_Converged-OPLS-2005>
0

> <r_mmod_RMS_Derivative-OPLS-2005>
20.3404064178467

$$$$
38
                    3D
 Structure written by MMmdl.
161169  0  0  1  0            999 V2000
  -30.6393  -14.6831   20.4818 C   0  0  0  0  0  0
  -30.4276  -12.4218   19.4679 C   0  0  0  0  0  0
  -29.5092  -12.5091   18.2309 C   0  0  0  0  0  0
  -28.0330  -12.3457   18.6406 C   0  0  0  0  0  0
  -27.6444  -13.2320   19.8553 C   0  0  2  0  0  0
  -28.6848  -13.1421   20.9921 C   0  0  0  0  0  0
  -25.2504  -13.8196   20.5701 C   0  0  0  0  0  0
  -24.1793  -13.0449   20.9202 C   0  0  0  0  0  0
  -24.6383  -11.6924   20.8740 C   0  0  0  0  0  0
  -23.9057  -10.4303   21.0396 C   0  0  0  0  0  0
  -24.3611   -9.4217   21.9171 C   0  0  0  0  0  0
  -23.6293   -8.2248   22.0735 C   0  0  0  0  0  0
  -22.4280   -8.0270   21.3520 C   0  0  0  0  0  0
  -21.9915   -9.0246   20.4623 C   0  0  0  0  0  0
  -22.7236  -10.2130   20.3036 C   0  0  0  0  0  0
  -21.6850   -6.0726   22.5271 C   0  0  0  0  0  0
  -21.4017   -6.5631   23.8205 C   0  0  0  0  0  0
  -21.3668   -5.6785   24.9170 C   0  0  0  0  0  0
  -21.6041   -4.3044   24.7227 C   0  0  0  0  0  0
  -21.8819   -3.8136   23.4348 C   0  0  0  0  0  0
  -21.9202   -4.6953   22.3403 C   0  0  0  0  0  0
  -22.7811  -13.5216   21.1879 C   0  0  0  0  0  0
  -22.1663   -4.2133   21.0980 F   0  0  0  0  0  0
  -21.5644   -3.4534   25.7743 F   0  0  0  0  0  0
  -29.9936  -13.4727   20.4170 N   0  0  0  0  0  0
  -26.2938  -12.9411   20.3296 N   0  0  0  0  0  0
  -25.9312  -11.6546   20.5745 N   0  0  0  0  0  0
  -22.0468  -12.8186   22.0415 N   0  0  0  0  0  0
  -25.4217  -15.1938   20.4145 N   0  0  0  0  0  0
  -31.8169  -14.7788   20.1308 O   0  0  0  0  0  0
  -21.6634   -6.8872   21.4228 O   0  0  0  0  0  0
  -22.3484  -14.5520   20.6718 O   0  0  0  0  0  0
  -24.6293  -31.8598   23.1976 C   0  0  0  0  0  0
  -25.9113  -32.4788   23.8334 C   0  0  1  0  0  0
  -27.2250  -27.2703   20.1193 C   0  0  0  0  0  0
  -25.5926  -33.8585   24.2282 N   0  0  0  0  0  0
  -23.4238  -30.4783   21.5462 C   0  0  2  0  0  0
  -24.8682  -28.9241   20.1112 C   0  0  0  0  0  0
  -22.7502  -29.4595   22.4983 C   0  0  0  0  0  0
  -18.0300  -28.1362   22.8553 C   0  0  0  0  0  0
  -24.1483  -36.7285   23.2642 C   0  0  0  0  0  0
  -25.9679  -30.7705   21.3756 C   0  0  0  0  0  0
  -26.0395  -29.3930   20.7190 C   0  0  0  0  0  0
  -27.2140  -28.5771   20.7160 C   0  0  0  0  0  0
  -26.0230  -26.8666   19.4885 C   0  0  0  0  0  0
  -24.8655  -27.6675   19.4899 C   0  0  0  0  0  0
  -23.6369  -29.8085   20.1630 C   0  0  0  0  0  0
  -25.4123  -36.3102   24.0334 C   0  0  1  0  0  0
  -20.5908  -28.3660   23.1299 C   0  0  2  0  0  0
  -20.6768  -26.9434   22.5264 C   0  0  0  0  0  0
  -19.5693  -26.6473   21.5123 C   0  0  0  0  0  0
  -18.1927  -26.7906   22.1677 C   0  0  0  0  0  0
  -19.1568  -28.8828   23.2929 C   0  0  0  0  0  0
  -18.9523  -30.1444   23.8916 C   0  0  0  0  0  0
  -17.6548  -30.6603   24.0592 C   0  0  0  0  0  0
  -25.9062  -34.9464   23.5120 C   0  0  0  0  0  0
  -16.5427  -29.9111   23.6396 C   0  0  0  0  0  0
  -16.7298  -28.6509   23.0436 C   0  0  0  0  0  0
  -26.4473  -31.6591   25.0718 C   0  0  0  0  0  0
  -25.3686  -31.3694   26.1424 C   0  0  0  0  0  0
  -27.0346  -30.3025   24.6191 C   0  0  0  0  0  0
  -27.6032  -32.4322   25.7500 C   0  0  0  0  0  0
  -27.5581  -37.1811   24.8475 C   0  0  0  0  0  0
  -21.4201  -29.3102   22.3811 N   0  0  0  0  0  0
  -26.4311  -37.3794   23.9390 N   0  0  0  0  0  0
  -24.6930  -31.0554   22.0953 N   0  0  0  0  0  0
  -23.4239  -28.8056   23.2995 O   0  0  0  0  0  0
  -28.3552  -26.4214   20.2013 O   0  0  0  0  0  0
  -26.5650  -34.8936   22.4696 O   0  0  0  0  0  0
  -23.5443  -32.1422   23.7271 O   0  0  0  0  0  0
  -29.6512  -19.8195   20.2966 C   0  0  0  0  0  0
  -27.2749  -19.0857   21.3722 C   0  0  0  0  0  0
  -28.6661  -20.8707   20.4274 C   0  0  0  0  0  0
  -27.4261  -20.4412   20.9820 C   0  0  0  0  0  0
  -29.3853  -18.4505   20.6760 C   0  0  0  0  0  0
  -25.5979  -21.3987   22.4934 C   0  0  0  0  0  0
  -25.1356  -20.9438   20.0437 C   0  0  0  0  0  0
  -28.8358  -22.3118   19.7656 C   0  0  0  0  0  0
  -30.3706  -17.2404   20.4592 C   0  0  0  0  0  0
  -28.7555  -23.7257   20.5500 C   0  0  0  0  0  0
  -28.4051  -25.0249   19.6542 C   0  0  0  0  0  0
  -26.1953  -21.3505   21.0763 C   0  0  0  0  0  0
  -28.2030  -18.1178   21.2216 N   0  0  0  0  0  0
  -29.9052  -15.8200   20.7134 N   0  0  0  0  0  0
  -31.4695  -12.5373   19.1633 H   0  0  0  0  0  0
  -30.3549  -11.4382   19.9342 H   0  0  0  0  0  0
  -29.7852  -11.7469   17.5005 H   0  0  0  0  0  0
  -29.6505  -13.4714   17.7359 H   0  0  0  0  0  0
  -27.8767  -11.2954   18.8881 H   0  0  0  0  0  0
  -27.3799  -12.5580   17.7933 H   0  0  0  0  0  0
  -27.6468  -14.2617   19.4933 H   0  0  0  0  0  0
  -28.6988  -12.1428   21.4296 H   0  0  0  0  0  0
  -28.4269  -13.8258   21.8025 H   0  0  0  0  0  0
  -25.2763   -9.5705   22.4732 H   0  0  0  0  0  0
  -24.0010   -7.4641   22.7448 H   0  0  0  0  0  0
  -21.0853   -8.8752   19.8920 H   0  0  0  0  0  0
  -22.3692  -10.9656   19.6132 H   0  0  0  0  0  0
  -21.1980   -7.6136   23.9712 H   0  0  0  0  0  0
  -21.1499   -6.0508   25.9076 H   0  0  0  0  0  0
  -22.0595   -2.7596   23.2852 H   0  0  0  0  0  0
  -22.4105  -11.9860   22.4816 H   0  0  0  0  0  0
  -21.1056  -13.1130   22.2584 H   0  0  0  0  0  0
  -24.6583  -15.8526   20.5223 H   0  0  0  0  0  0
  -26.2852  -15.6378   20.1289 H   0  0  0  0  0  0
  -26.7160  -32.5422   23.1058 H   0  0  0  0  0  0
  -25.0038  -33.9734   25.0403 H   0  0  0  0  0  0
  -22.7161  -31.2982   21.4016 H   0  0  0  0  0  0
  -23.3775  -35.9594   23.3334 H   0  0  0  0  0  0
  -24.3553  -36.8878   22.2045 H   0  0  0  0  0  0
  -23.7209  -37.6485   23.6645 H   0  0  0  0  0  0
  -26.1061  -31.5287   20.6039 H   0  0  0  0  0  0
  -26.8470  -30.8197   22.0074 H   0  0  0  0  0  0
  -28.1090  -28.9324   21.2082 H   0  0  0  0  0  0
  -25.9134  -25.9123   19.0038 H   0  0  0  0  0  0
  -23.9656  -27.2957   19.0201 H   0  0  0  0  0  0
  -23.7528  -30.5818   19.4027 H   0  0  0  0  0  0
  -22.7551  -29.2397   19.8689 H   0  0  0  0  0  0
  -25.1301  -36.1979   25.0836 H   0  0  0  0  0  0
  -20.9985  -28.3105   24.1416 H   0  0  0  0  0  0
  -20.5758  -26.2235   23.3387 H   0  0  0  0  0  0
  -21.6597  -26.7503   22.0936 H   0  0  0  0  0  0
  -19.6870  -25.6445   21.0974 H   0  0  0  0  0  0
  -19.6511  -27.3430   20.6766 H   0  0  0  0  0  0
  -17.4095  -26.6601   21.4183 H   0  0  0  0  0  0
  -18.0518  -26.0032   22.9103 H   0  0  0  0  0  0
  -19.8011  -30.7265   24.2259 H   0  0  0  0  0  0
  -17.5143  -31.6316   24.5147 H   0  0  0  0  0  0
  -15.5456  -30.3070   23.7756 H   0  0  0  0  0  0
  -15.8658  -28.0849   22.7197 H   0  0  0  0  0  0
  -24.5878  -30.7053   25.7693 H   0  0  0  0  0  0
  -24.8864  -32.2846   26.4867 H   0  0  0  0  0  0
  -25.7991  -30.8824   27.0188 H   0  0  0  0  0  0
  -26.2954  -29.6761   24.1202 H   0  0  0  0  0  0
  -27.4016  -29.7292   25.4709 H   0  0  0  0  0  0
  -27.8817  -30.4315   23.9463 H   0  0  0  0  0  0
  -27.2661  -33.3638   26.2060 H   0  0  0  0  0  0
  -28.3864  -32.6852   25.0342 H   0  0  0  0  0  0
  -28.0690  -31.8461   26.5432 H   0  0  0  0  0  0
  -28.2625  -38.0084   24.7548 H   0  0  0  0  0  0
  -28.1069  -36.2629   24.6321 H   0  0  0  0  0  0
  -27.2295  -37.1478   25.8878 H   0  0  0  0  0  0
  -20.9319  -29.9096   21.7289 H   0  0  0  0  0  0
  -26.0210  -38.2889   24.1360 H   0  0  0  0  0  0
  -30.6055  -20.0482   19.8380 H   0  0  0  0  0  0
  -26.3343  -18.7387   21.7724 H   0  0  0  0  0  0
  -26.3323  -21.7239   23.2316 H   0  0  0  0  0  0
  -25.2130  -20.4293   22.8088 H   0  0  0  0  0  0
  -24.7620  -22.0980   22.5379 H   0  0  0  0  0  0
  -25.5282  -21.0144   19.0288 H   0  0  0  0  0  0
  -24.2642  -21.5972   20.1028 H   0  0  0  0  0  0
  -24.7898  -19.9216   20.1990 H   0  0  0  0  0  0
  -28.0623  -22.3386   18.9965 H   0  0  0  0  0  0
  -29.7673  -22.3016   19.1989 H   0  0  0  0  0  0
  -31.2598  -17.4155   21.0636 H   0  0  0  0  0  0
  -30.7067  -17.2969   19.4225 H   0  0  0  0  0  0
  -29.7091  -23.8801   21.0573 H   0  0  0  0  0  0
  -28.0294  -23.6739   21.3564 H   0  0  0  0  0  0
  -27.5259  -24.7668   19.0795 H   0  0  0  0  0  0
  -29.1830  -25.0757   18.8933 H   0  0  0  0  0  0
  -26.4611  -22.3710   20.8271 H   0  0  0  0  0  0
  -28.9367  -15.7289   20.9804 H   0  0  0  0  0  0
  1 25  1  0  0  0
  1 30  2  0  0  0
  1 84  1  0  0  0
  2  3  1  0  0  0
  2 25  1  0  0  0
  2 85  1  0  0  0
  2 86  1  0  0  0
  3  4  1  0  0  0
  3 87  1  0  0  0
  3 88  1  0  0  0
  4  5  1  0  0  0
  4 89  1  0  0  0
  4 90  1  0  0  0
  5  6  1  0  0  0
  5 26  1  0  0  0
  5 91  1  0  0  0
  6 25  1  0  0  0
  6 92  1  0  0  0
  6 93  1  0  0  0
  7  8  2  0  0  0
  7 26  1  0  0  0
  7 29  1  0  0  0
  8  9  1  0  0  0
  8 22  1  0  0  0
  9 10  1  0  0  0
  9 27  2  0  0  0
 10 11  2  0  0  0
 10 15  1  0  0  0
 11 12  1  0  0  0
 11 94  1  0  0  0
 12 13  2  0  0  0
 12 95  1  0  0  0
 13 14  1  0  0  0
 13 31  1  0  0  0
 14 15  2  0  0  0
 14 96  1  0  0  0
 15 97  1  0  0  0
 16 17  2  0  0  0
 16 21  1  0  0  0
 16 31  1  0  0  0
 17 18  1  0  0  0
 17 98  1  0  0  0
 18 19  2  0  0  0
 18 99  1  0  0  0
 19 20  1  0  0  0
 19 24  1  0  0  0
 20 21  2  0  0  0
 20100  1  0  0  0
 21 23  1  0  0  0
 22 28  1  0  0  0
 22 32  2  0  0  0
 26 27  1  0  0  0
 28101  1  0  0  0
 28102  1  0  0  0
 29103  1  0  0  0
 29104  1  0  0  0
 33 34  1  0  0  0
 33 66  1  0  0  0
 33 70  2  0  0  0
 34 36  1  0  0  0
 34 59  1  0  0  0
 34105  1  0  0  0
 35 44  2  0  0  0
 35 45  1  0  0  0
 35 68  1  0  0  0
 36 56  1  0  0  0
 36106  1  0  0  0
 37 39  1  0  0  0
 37 47  1  0  0  0
 37 66  1  0  0  0
 37107  1  0  0  0
 38 43  2  0  0  0
 38 46  1  0  0  0
 38 47  1  0  0  0
 39 64  1  0  0  0
 39 67  2  0  0  0
 40 52  1  0  0  0
 40 53  2  0  0  0
 40 58  1  0  0  0
 41108  1  0  0  0
 41109  1  0  0  0
 41110  1  0  0  0
 41 48  1  0  0  0
 42 43  1  0  0  0
 42 66  1  0  0  0
 42111  1  0  0  0
 42112  1  0  0  0
 43 44  1  0  0  0
 44113  1  0  0  0
 45 46  2  0  0  0
 45114  1  0  0  0
 46115  1  0  0  0
 47116  1  0  0  0
 47117  1  0  0  0
 48 56  1  0  0  0
 48 65  1  0  0  0
 48118  1  0  0  0
 49 50  1  0  0  0
 49 53  1  0  0  0
 49 64  1  0  0  0
 49119  1  0  0  0
 50 51  1  0  0  0
 50120  1  0  0  0
 50121  1  0  0  0
 51 52  1  0  0  0
 51122  1  0  0  0
 51123  1  0  0  0
 52124  1  0  0  0
 52125  1  0  0  0
 53 54  1  0  0  0
 54 55  2  0  0  0
 54126  1  0  0  0
 55 57  1  0  0  0
 55127  1  0  0  0
 56 69  2  0  0  0
 57 58  2  0  0  0
 57128  1  0  0  0
 58129  1  0  0  0
 59 60  1  0  0  0
 59 61  1  0  0  0
 59 62  1  0  0  0
 60130  1  0  0  0
 60131  1  0  0  0
 60132  1  0  0  0
 61133  1  0  0  0
 61134  1  0  0  0
 61135  1  0  0  0
 62136  1  0  0  0
 62137  1  0  0  0
 62138  1  0  0  0
 63 65  1  0  0  0
 63139  1  0  0  0
 63140  1  0  0  0
 63141  1  0  0  0
 64142  1  0  0  0
 65143  1  0  0  0
 68 81  1  0  0  0
 71 73  2  0  0  0
 71 75  1  0  0  0
 71144  1  0  0  0
 72 74  2  0  0  0
 72 83  1  0  0  0
 72145  1  0  0  0
 73 74  1  0  0  0
 73 78  1  0  0  0
 74 82  1  0  0  0
 75 79  1  0  0  0
 75 83  2  0  0  0
 76146  1  0  0  0
 76147  1  0  0  0
 76148  1  0  0  0
 76 82  1  0  0  0
 77 82  1  0  0  0
 77149  1  0  0  0
 77150  1  0  0  0
 77151  1  0  0  0
 78 80  1  0  0  0
 78152  1  0  0  0
 78153  1  0  0  0
 79 84  1  0  0  0
 79154  1  0  0  0
 79155  1  0  0  0
 80 81  1  0  0  0
 80156  1  0  0  0
 80157  1  0  0  0
 81158  1  0  0  0
 81159  1  0  0  0
 82160  1  0  0  0
 84161  1  0  0  0
M  ISO  4   1 100  68 101  81 101  84 100
M  END
> <chiral flag>
0

> <version>
0

> <s_m_source_file>
/data/baiqing/PycharmProjects/Reinvent-master-3.2/result/LINK_invent/BTK/process_docking_weight1_custom_sum_contain_oxygen_bond_distance_aromatic_linkinvent_7_9_3/rearranged_h_0092.sdf

> <i_m_source_file_index>
38

> <r_mmod_Potential_Energy-OPLS-2005>
-151.361831665039

> <r_mmod_Stretch_Energy-OPLS-2005>
106.928573608398

> <r_mmod_Bend_Energy-OPLS-2005>
167.749816894531

> <r_mmod_Torsional_Energy-OPLS-2005>
203.412246704102

> <r_mmod_Improper_Torsional_Energy-OPLS-2005>
6.9816837310791

> <r_mmod_Van_der_Waal_Energy-OPLS-2005>
145.544250488281

> <r_mmod_Electrostatic_Energy-OPLS-2005>
-640.696838378906

> <r_mmod_Solvation_Energy-OPLS-2005>
-208.380966186523

> <b_mmod_Minimization_Converged-OPLS-2005>
0

> <r_mmod_RMS_Derivative-OPLS-2005>
3.39718890190125

$$$$
39
                    3D
 Structure written by MMmdl.
158166  0  0  1  0            999 V2000
  -30.7524  -14.5480   20.5422 C   0  0  0  0  0  0
  -30.4021  -12.3534   19.4570 C   0  0  0  0  0  0
  -29.5164  -12.4866   18.1952 C   0  0  0  0  0  0
  -28.0310  -12.8040   18.4978 C   0  0  0  0  0  0
  -27.7069  -12.7317   19.9892 C   0  0  2  0  0  0
  -28.7106  -13.1908   21.0456 C   0  0  0  0  0  0
  -25.3132  -13.7474   20.5552 C   0  0  0  0  0  0
  -24.1863  -13.0396   20.9111 C   0  0  0  0  0  0
  -24.5698  -11.6685   20.8930 C   0  0  0  0  0  0
  -23.8383  -10.4240   21.0663 C   0  0  0  0  0  0
  -24.3172   -9.4177   21.9334 C   0  0  0  0  0  0
  -23.6070   -8.2108   22.0778 C   0  0  0  0  0  0
  -22.4091   -8.0116   21.3535 C   0  0  0  0  0  0
  -21.9568   -9.0059   20.4691 C   0  0  0  0  0  0
  -22.6685  -10.2047   20.3204 C   0  0  0  0  0  0
  -21.6769   -6.0641   22.5286 C   0  0  0  0  0  0
  -21.3953   -6.5595   23.8199 C   0  0  0  0  0  0
  -21.3629   -5.6763   24.9176 C   0  0  0  0  0  0
  -21.6047   -4.3020   24.7251 C   0  0  0  0  0  0
  -21.8824   -3.8093   23.4386 C   0  0  0  0  0  0
  -21.9161   -4.6887   22.3428 C   0  0  0  0  0  0
  -22.8007  -13.5573   21.1709 C   0  0  0  0  0  0
  -22.1664   -4.2091   21.0996 F   0  0  0  0  0  0
  -21.5629   -3.4526   25.7778 F   0  0  0  0  0  0
  -30.0305  -13.4048   20.4253 N   0  0  0  0  0  0
  -26.3032  -12.7755   20.3695 N   0  0  0  0  0  0
  -25.8322  -11.5454   20.6066 N   0  0  0  0  0  0
  -22.0474  -12.8694   22.0224 N   0  0  0  0  0  0
  -25.5649  -15.1042   20.3741 N   0  0  0  0  0  0
  -31.8688  -14.6907   20.0452 O   0  0  0  0  0  0
  -21.6533   -6.8700   21.4210 O   0  0  0  0  0  0
  -22.3884  -14.5915   20.6511 O   0  0  0  0  0  0
  -24.6133  -31.8698   23.2121 C   0  0  0  0  0  0
  -25.9034  -32.4838   23.8410 C   0  0  1  0  0  0
  -27.2406  -27.4556   20.0946 C   0  0  0  0  0  0
  -25.5922  -33.8635   24.2363 N   0  0  0  0  0  0
  -23.4017  -30.4918   21.5522 C   0  0  2  0  0  0
  -24.8515  -28.9581   20.1168 C   0  0  0  0  0  0
  -22.7407  -29.4656   22.5010 C   0  0  0  0  0  0
  -18.0261  -28.1378   22.8492 C   0  0  0  0  0  0
  -24.1488  -36.7301   23.2634 C   0  0  0  0  0  0
  -25.9276  -30.8433   21.3608 C   0  0  0  0  0  0
  -26.0093  -29.4773   20.7096 C   0  0  0  0  0  0
  -27.2110  -28.7338   20.6945 C   0  0  0  0  0  0
  -26.0705  -26.9423   19.5015 C   0  0  0  0  0  0
  -24.8755  -27.6890   19.5092 C   0  0  0  0  0  0
  -23.6107  -29.8224   20.1668 C   0  0  0  0  0  0
  -25.4107  -36.3119   24.0349 C   0  0  1  0  0  0
  -20.5858  -28.3659   23.1328 C   0  0  2  0  0  0
  -20.6754  -26.9395   22.5428 C   0  0  0  0  0  0
  -19.5733  -26.6385   21.5218 C   0  0  0  0  0  0
  -18.1909  -26.7922   22.1622 C   0  0  0  0  0  0
  -19.1514  -28.8833   23.2907 C   0  0  0  0  0  0
  -18.9442  -30.1438   23.8918 C   0  0  0  0  0  0
  -17.6447  -30.6585   24.0566 C   0  0  0  0  0  0
  -25.9040  -34.9484   23.5142 C   0  0  0  0  0  0
  -16.5342  -29.9090   23.6318 C   0  0  0  0  0  0
  -16.7254  -28.6505   23.0350 C   0  0  0  0  0  0
  -26.4474  -31.6602   25.0720 C   0  0  0  0  0  0
  -25.3755  -31.3705   26.1491 C   0  0  0  0  0  0
  -27.0286  -30.3044   24.6060 C   0  0  0  0  0  0
  -27.6074  -32.4302   25.7480 C   0  0  0  0  0  0
  -27.5590  -37.1810   24.8469 C   0  0  0  0  0  0
  -21.4136  -29.3028   22.3737 N   0  0  0  0  0  0
  -26.4299  -37.3798   23.9420 N   0  0  0  0  0  0
  -24.6658  -31.0819   22.1007 N   0  0  0  0  0  0
  -23.4184  -28.8204   23.3053 O   0  0  0  0  0  0
  -28.3900  -26.7026   20.0784 O   0  0  0  0  0  0
  -26.5576  -34.8924   22.4690 O   0  0  0  0  0  0
  -23.5333  -32.1441   23.7538 O   0  0  0  0  0  0
  -29.0037  -23.9880   19.3080 C   0  0  0  0  0  0
  -29.1403  -22.6416   18.9107 C   0  0  0  0  0  0
  -28.6281  -24.2752   20.6359 C   0  0  0  0  0  0
  -28.8949  -21.6183   19.8470 C   0  0  0  0  0  0
  -28.4392  -23.1811   21.5163 C   0  0  0  0  0  0
  -28.0441  -23.3855   22.9678 C   0  0  0  0  0  0
  -28.4550  -25.7204   21.1201 C   0  0  0  0  0  0
  -28.9231  -20.1427   19.4535 C   0  0  0  0  0  0
  -30.4853  -17.0081   21.1374 C   0  0  0  0  0  0
  -29.4975  -17.8746   20.3078 C   0  0  0  0  0  0
  -28.5767  -21.8877   21.1335 N   0  0  0  0  0  0
  -30.1085  -15.5836   21.1143 N   0  0  0  0  0  0
  -29.7662  -19.3376   20.3620 N   0  3  0  0  0  0
  -31.4567  -12.3929   19.1805 H   0  0  0  0  0  0
  -30.2611  -11.3766   19.9223 H   0  0  0  0  0  0
  -29.5838  -11.5628   17.6194 H   0  0  0  0  0  0
  -29.9192  -13.2673   17.5485 H   0  0  0  0  0  0
  -27.3813  -12.1343   17.9321 H   0  0  0  0  0  0
  -27.7986  -13.8084   18.1432 H   0  0  0  0  0  0
  -27.9557  -11.6678   20.0677 H   0  0  0  0  0  0
  -28.8191  -12.4367   21.8288 H   0  0  0  0  0  0
  -28.2952  -14.0595   21.5537 H   0  0  0  0  0  0
  -25.2301   -9.5749   22.4908 H   0  0  0  0  0  0
  -23.9888   -7.4497   22.7432 H   0  0  0  0  0  0
  -21.0511   -8.8456   19.9004 H   0  0  0  0  0  0
  -22.3088  -10.9592   19.6360 H   0  0  0  0  0  0
  -21.1944   -7.6103   23.9679 H   0  0  0  0  0  0
  -21.1451   -6.0523   25.9070 H   0  0  0  0  0  0
  -22.0637   -2.7572   23.2899 H   0  0  0  0  0  0
  -22.3914  -12.0312   22.4667 H   0  0  0  0  0  0
  -21.1160  -13.1950   22.2396 H   0  0  0  0  0  0
  -24.8405  -15.8098   20.4400 H   0  0  0  0  0  0
  -26.4411  -15.4586   20.0120 H   0  0  0  0  0  0
  -26.7110  -32.5580   23.1189 H   0  0  0  0  0  0
  -25.0122  -33.9797   25.0539 H   0  0  0  0  0  0
  -22.6874  -31.3062   21.4132 H   0  0  0  0  0  0
  -23.3763  -35.9625   23.3310 H   0  0  0  0  0  0
  -24.3583  -36.8888   22.2045 H   0  0  0  0  0  0
  -23.7222  -37.6507   23.6619 H   0  0  0  0  0  0
  -26.0302  -31.6108   20.5922 H   0  0  0  0  0  0
  -26.8178  -30.9021   21.9755 H   0  0  0  0  0  0
  -28.1079  -29.1327   21.1476 H   0  0  0  0  0  0
  -26.0866  -25.9653   19.0420 H   0  0  0  0  0  0
  -23.9862  -27.2815   19.0501 H   0  0  0  0  0  0
  -23.7162  -30.5984   19.4066 H   0  0  0  0  0  0
  -22.7350  -29.2406   19.8735 H   0  0  0  0  0  0
  -25.1273  -36.1995   25.0841 H   0  0  0  0  0  0
  -20.9944  -28.3233   24.1454 H   0  0  0  0  0  0
  -20.5649  -26.2269   23.3626 H   0  0  0  0  0  0
  -21.6624  -26.7437   22.1227 H   0  0  0  0  0  0
  -19.6899  -25.6299   21.1238 H   0  0  0  0  0  0
  -19.6679  -27.3205   20.6761 H   0  0  0  0  0  0
  -17.4190  -26.6689   21.4024 H   0  0  0  0  0  0
  -18.0296  -26.0059   22.9007 H   0  0  0  0  0  0
  -19.7919  -30.7238   24.2321 H   0  0  0  0  0  0
  -17.5003  -31.6271   24.5156 H   0  0  0  0  0  0
  -15.5342  -30.3005   23.7613 H   0  0  0  0  0  0
  -15.8658  -28.0827   22.7061 H   0  0  0  0  0  0
  -24.5949  -30.7013   25.7860 H   0  0  0  0  0  0
  -24.8917  -32.2849   26.4927 H   0  0  0  0  0  0
  -25.8144  -30.8914   27.0246 H   0  0  0  0  0  0
  -26.2819  -29.6852   24.1075 H   0  0  0  0  0  0
  -27.4019  -29.7242   25.4504 H   0  0  0  0  0  0
  -27.8668  -30.4374   23.9219 H   0  0  0  0  0  0
  -27.2724  -33.3610   26.2070 H   0  0  0  0  0  0
  -28.3884  -32.6839   25.0300 H   0  0  0  0  0  0
  -28.0728  -31.8395   26.5379 H   0  0  0  0  0  0
  -28.2607  -38.0104   24.7518 H   0  0  0  0  0  0
  -28.1083  -36.2636   24.6294 H   0  0  0  0  0  0
  -27.2306  -37.1461   25.8871 H   0  0  0  0  0  0
  -20.9307  -29.8758   21.6958 H   0  0  0  0  0  0
  -26.0197  -38.2879   24.1428 H   0  0  0  0  0  0
  -29.1727  -24.7835   18.5945 H   0  0  0  0  0  0
  -29.4021  -22.4064   17.8878 H   0  0  0  0  0  0
  -28.7418  -24.0593   23.4656 H   0  0  0  0  0  0
  -28.0425  -22.4462   23.5213 H   0  0  0  0  0  0
  -27.0413  -23.8099   23.0303 H   0  0  0  0  0  0
  -29.3030  -25.9706   21.7584 H   0  0  0  0  0  0
  -27.5732  -25.7741   21.7619 H   0  0  0  0  0  0
  -29.2611  -20.0232   18.4233 H   0  0  0  0  0  0
  -27.8949  -19.7790   19.4897 H   0  0  0  0  0  0
  -30.4801  -17.3415   22.1770 H   0  0  0  0  0  0
  -31.5043  -17.1488   20.7748 H   0  0  0  0  0  0
  -28.4768  -17.7029   20.6554 H   0  0  0  0  0  0
  -29.5262  -17.5496   19.2655 H   0  0  0  0  0  0
  -29.2054  -15.3533   21.5018 H   0  0  0  0  0  0
  -30.7274  -19.5343   20.1416 H   0  0  0  0  0  0
  -29.5795  -19.7032   21.2831 H   0  0  0  0  0  0
  1 25  1  0  0  0
  1 30  2  0  0  0
  1 82  1  0  0  0
  2  3  1  0  0  0
  2 25  1  0  0  0
  2 84  1  0  0  0
  2 85  1  0  0  0
  3  4  1  0  0  0
  3 86  1  0  0  0
  3 87  1  0  0  0
  4  5  1  0  0  0
  4 88  1  0  0  0
  4 89  1  0  0  0
  5  6  1  0  0  0
  5 26  1  0  0  0
  5 90  1  0  0  0
  6 25  1  0  0  0
  6 91  1  0  0  0
  6 92  1  0  0  0
  7  8  2  0  0  0
  7 26  1  0  0  0
  7 29  1  0  0  0
  8  9  1  0  0  0
  8 22  1  0  0  0
  9 10  1  0  0  0
  9 27  2  0  0  0
 10 11  2  0  0  0
 10 15  1  0  0  0
 11 12  1  0  0  0
 11 93  1  0  0  0
 12 13  2  0  0  0
 12 94  1  0  0  0
 13 14  1  0  0  0
 13 31  1  0  0  0
 14 15  2  0  0  0
 14 95  1  0  0  0
 15 96  1  0  0  0
 16 17  2  0  0  0
 16 21  1  0  0  0
 16 31  1  0  0  0
 17 18  1  0  0  0
 17 97  1  0  0  0
 18 19  2  0  0  0
 18 98  1  0  0  0
 19 20  1  0  0  0
 19 24  1  0  0  0
 20 21  2  0  0  0
 20 99  1  0  0  0
 21 23  1  0  0  0
 22 28  1  0  0  0
 22 32  2  0  0  0
 26 27  1  0  0  0
 28100  1  0  0  0
 28101  1  0  0  0
 29102  1  0  0  0
 29103  1  0  0  0
 33 34  1  0  0  0
 33 66  1  0  0  0
 33 70  2  0  0  0
 34 36  1  0  0  0
 34 59  1  0  0  0
 34104  1  0  0  0
 35 44  2  0  0  0
 35 45  1  0  0  0
 35 68  1  0  0  0
 36 56  1  0  0  0
 36105  1  0  0  0
 37 39  1  0  0  0
 37 47  1  0  0  0
 37 66  1  0  0  0
 37106  1  0  0  0
 38 43  2  0  0  0
 38 46  1  0  0  0
 38 47  1  0  0  0
 39 64  1  0  0  0
 39 67  2  0  0  0
 40 52  1  0  0  0
 40 53  2  0  0  0
 40 58  1  0  0  0
 41107  1  0  0  0
 41108  1  0  0  0
 41109  1  0  0  0
 41 48  1  0  0  0
 42 43  1  0  0  0
 42 66  1  0  0  0
 42110  1  0  0  0
 42111  1  0  0  0
 43 44  1  0  0  0
 44112  1  0  0  0
 45 46  2  0  0  0
 45113  1  0  0  0
 46114  1  0  0  0
 47115  1  0  0  0
 47116  1  0  0  0
 48 56  1  0  0  0
 48 65  1  0  0  0
 48117  1  0  0  0
 49 50  1  0  0  0
 49 53  1  0  0  0
 49 64  1  0  0  0
 49118  1  0  0  0
 50 51  1  0  0  0
 50119  1  0  0  0
 50120  1  0  0  0
 51 52  1  0  0  0
 51121  1  0  0  0
 51122  1  0  0  0
 52123  1  0  0  0
 52124  1  0  0  0
 53 54  1  0  0  0
 54 55  2  0  0  0
 54125  1  0  0  0
 55 57  1  0  0  0
 55126  1  0  0  0
 56 69  2  0  0  0
 57 58  2  0  0  0
 57127  1  0  0  0
 58128  1  0  0  0
 59 60  1  0  0  0
 59 61  1  0  0  0
 59 62  1  0  0  0
 60129  1  0  0  0
 60130  1  0  0  0
 60131  1  0  0  0
 61132  1  0  0  0
 61133  1  0  0  0
 61134  1  0  0  0
 62135  1  0  0  0
 62136  1  0  0  0
 62137  1  0  0  0
 63 65  1  0  0  0
 63138  1  0  0  0
 63139  1  0  0  0
 63140  1  0  0  0
 64141  1  0  0  0
 65142  1  0  0  0
 68 77  1  0  0  0
 71 72  2  0  0  0
 71 73  1  0  0  0
 71143  1  0  0  0
 72 74  1  0  0  0
 72144  1  0  0  0
 73 75  2  0  0  0
 73 77  1  0  0  0
 74 78  1  0  0  0
 74 81  2  0  0  0
 75 76  1  0  0  0
 75 81  1  0  0  0
 76145  1  0  0  0
 76146  1  0  0  0
 76147  1  0  0  0
 77148  1  0  0  0
 77149  1  0  0  0
 78 83  1  0  0  0
 78150  1  0  0  0
 78151  1  0  0  0
 79 80  1  0  0  0
 79 82  1  0  0  0
 79152  1  0  0  0
 79153  1  0  0  0
 80 83  1  0  0  0
 80154  1  0  0  0
 80155  1  0  0  0
 82156  1  0  0  0
 83157  1  0  0  0
 83158  1  0  0  0
M  CHG  1  83   1
M  ISO  4   1 100  68 101  77 101  82 100
M  END
> <chiral flag>
0

> <version>
0

> <s_m_source_file>
/data/baiqing/PycharmProjects/Reinvent-master-3.2/result/LINK_invent/BTK/process_docking_weight1_custom_sum_contain_oxygen_bond_distance_aromatic_linkinvent_7_9_3/rearranged_h_0092.sdf

> <i_m_source_file_index>
39

> <r_mmod_Potential_Energy-OPLS-2005>
-374.242248535156

> <r_mmod_Stretch_Energy-OPLS-2005>
35.4795570373535

> <r_mmod_Bend_Energy-OPLS-2005>
142.322479248047

> <r_mmod_Torsional_Energy-OPLS-2005>
253.3017578125

> <r_mmod_Improper_Torsional_Energy-OPLS-2005>
3.04365301132202

> <r_mmod_Van_der_Waal_Energy-OPLS-2005>
165.219161987305

> <r_mmod_Electrostatic_Energy-OPLS-2005>
-575.1240234375

> <r_mmod_Solvation_Energy-OPLS-2005>
-477.003112792969

> <b_mmod_Minimization_Converged-OPLS-2005>
0

> <r_mmod_RMS_Derivative-OPLS-2005>
2.63179159164429

$$$$
40
                    3D
 Structure written by MMmdl.
183191  0  0  1  0            999 V2000
  -30.7582  -14.3837   20.5700 C   0  0  0  0  0  0
  -30.4172  -12.2573   19.3957 C   0  0  0  0  0  0
  -29.4942  -12.5192   18.1912 C   0  0  0  0  0  0
  -28.0151  -12.3820   18.5974 C   0  0  0  0  0  0
  -27.6725  -13.2030   19.8701 C   0  0  2  0  0  0
  -28.7169  -12.9560   20.9853 C   0  0  0  0  0  0
  -25.2661  -13.8134   20.5645 C   0  0  0  0  0  0
  -24.1921  -13.0421   20.9145 C   0  0  0  0  0  0
  -24.6460  -11.6876   20.8670 C   0  0  0  0  0  0
  -23.9106  -10.4276   21.0369 C   0  0  0  0  0  0
  -24.3628   -9.4217   21.9169 C   0  0  0  0  0  0
  -23.6289   -8.2270   22.0770 C   0  0  0  0  0  0
  -22.4279   -8.0278   21.3546 C   0  0  0  0  0  0
  -21.9935   -9.0269   20.4637 C   0  0  0  0  0  0
  -22.7270  -10.2122   20.3031 C   0  0  0  0  0  0
  -21.6855   -6.0727   22.5289 C   0  0  0  0  0  0
  -21.4038   -6.5656   23.8214 C   0  0  0  0  0  0
  -21.3657   -5.6810   24.9172 C   0  0  0  0  0  0
  -21.6049   -4.3070   24.7221 C   0  0  0  0  0  0
  -21.8834   -3.8147   23.4342 C   0  0  0  0  0  0
  -21.9218   -4.6959   22.3396 C   0  0  0  0  0  0
  -22.7934  -13.5231   21.1779 C   0  0  0  0  0  0
  -22.1674   -4.2146   21.0959 F   0  0  0  0  0  0
  -21.5620   -3.4542   25.7725 F   0  0  0  0  0  0
  -30.0561  -13.2304   20.4367 N   0  0  0  0  0  0
  -26.3118  -12.9312   20.3325 N   0  0  0  0  0  0
  -25.9391  -11.6468   20.5699 N   0  0  0  0  0  0
  -22.0544  -12.8243   22.0301 N   0  0  0  0  0  0
  -25.4405  -15.1849   20.4032 N   0  0  0  0  0  0
  -31.8662  -14.5644   20.0648 O   0  0  0  0  0  0
  -21.6648   -6.8870   21.4246 O   0  0  0  0  0  0
  -22.3631  -14.5542   20.6592 O   0  0  0  0  0  0
  -24.6157  -31.8708   23.2157 C   0  0  0  0  0  0
  -25.9080  -32.4823   23.8429 C   0  0  1  0  0  0
  -27.2268  -27.4509   20.0780 C   0  0  0  0  0  0
  -25.5956  -33.8618   24.2360 N   0  0  0  0  0  0
  -23.3993  -30.4994   21.5561 C   0  0  2  0  0  0
  -24.8421  -28.9775   20.1117 C   0  0  0  0  0  0
  -22.7420  -29.4666   22.5008 C   0  0  0  0  0  0
  -18.0267  -28.1360   22.8484 C   0  0  0  0  0  0
  -24.1483  -36.7299   23.2636 C   0  0  0  0  0  0
  -25.9303  -30.8370   21.3735 C   0  0  0  0  0  0
  -26.0030  -29.4770   20.7137 C   0  0  0  0  0  0
  -27.1947  -28.7183   20.7012 C   0  0  0  0  0  0
  -26.0415  -26.9737   19.4615 C   0  0  0  0  0  0
  -24.8567  -27.7247   19.4815 C   0  0  0  0  0  0
  -23.6060  -29.8427   20.1661 C   0  0  0  0  0  0
  -25.4101  -36.3092   24.0340 C   0  0  1  0  0  0
  -20.5867  -28.3648   23.1313 C   0  0  2  0  0  0
  -20.6768  -26.9379   22.5419 C   0  0  0  0  0  0
  -19.5738  -26.6376   21.5211 C   0  0  0  0  0  0
  -18.1907  -26.7910   22.1605 C   0  0  0  0  0  0
  -19.1517  -28.8820   23.2894 C   0  0  0  0  0  0
  -18.9447  -30.1436   23.8895 C   0  0  0  0  0  0
  -17.6446  -30.6566   24.0557 C   0  0  0  0  0  0
  -25.9046  -34.9462   23.5132 C   0  0  0  0  0  0
  -16.5336  -29.9065   23.6327 C   0  0  0  0  0  0
  -16.7255  -28.6482   23.0351 C   0  0  0  0  0  0
  -26.4518  -31.6598   25.0750 C   0  0  0  0  0  0
  -25.3818  -31.3689   26.1523 C   0  0  0  0  0  0
  -27.0376  -30.3033   24.6158 C   0  0  0  0  0  0
  -27.6080  -32.4328   25.7528 C   0  0  0  0  0  0
  -27.5571  -37.1797   24.8457 C   0  0  0  0  0  0
  -21.4148  -29.3032   22.3743 N   0  0  0  0  0  0
  -26.4276  -37.3786   23.9415 N   0  0  0  0  0  0
  -24.6662  -31.0839   22.1048 N   0  0  0  0  0  0
  -23.4211  -28.8194   23.3025 O   0  0  0  0  0  0
  -28.4020  -26.7256   20.0963 O   0  0  0  0  0  0
  -26.5564  -34.8910   22.4666 O   0  0  0  0  0  0
  -23.5365  -32.1452   23.7569 O   0  0  0  0  0  0
  -30.3056  -24.6885   21.0343 C   0  0  0  0  0  0
  -31.3768  -23.8154   21.2988 C   0  0  0  0  0  0
  -29.9028  -23.5285   18.9363 C   0  0  0  0  0  0
  -29.5682  -24.5506   19.8439 C   0  0  0  0  0  0
  -31.7142  -22.7818   20.3967 C   0  0  0  0  0  0
  -30.9703  -22.6374   19.1888 C   0  0  0  0  0  0
  -34.2208  -22.3863   20.2730 C   0  0  0  0  0  0
  -32.3356  -20.9704   15.9121 C   0  0  0  0  0  0
  -32.3169  -23.3626   16.6903 C   0  0  0  0  0  0
  -28.2558  -17.7336   20.7819 C   0  0  0  0  0  0
  -29.6470  -17.1778   18.7604 C   0  0  0  0  0  0
  -32.8717  -21.8654   20.7792 C   0  0  0  0  0  0
  -28.3437  -25.3992   19.5693 C   0  0  0  0  0  0
  -30.5575  -16.7892   21.1265 C   0  0  0  0  0  0
  -30.0262  -20.5192   18.1667 C   0  0  0  0  0  0
  -30.3344  -19.1204   20.2434 C   0  0  0  0  0  0
  -31.2236  -21.5086   18.1740 C   0  0  1  0  0  0
  -31.5587  -22.0177   16.7343 C   0  0  0  0  0  0
  -29.6919  -17.7046   20.2152 C   0  0  0  0  0  0
  -30.1058  -15.3932   21.1504 N   0  0  0  0  0  0
  -29.5553  -20.1525   19.5254 N   0  3  0  0  0  0
  -31.4649  -12.3312   19.0944 H   0  0  0  0  0  0
  -30.2871  -11.2387   19.7649 H   0  0  0  0  0  0
  -29.7286  -11.8375   17.3729 H   0  0  0  0  0  0
  -29.6704  -13.5241   17.8057 H   0  0  0  0  0  0
  -27.8182  -11.3244   18.7696 H   0  0  0  0  0  0
  -27.3723  -12.6839   17.7712 H   0  0  0  0  0  0
  -27.7245  -14.2513   19.5836 H   0  0  0  0  0  0
  -28.6747  -11.9173   21.3166 H   0  0  0  0  0  0
  -28.4948  -13.5573   21.8689 H   0  0  0  0  0  0
  -25.2778   -9.5692   22.4736 H   0  0  0  0  0  0
  -23.9983   -7.4687   22.7526 H   0  0  0  0  0  0
  -21.0872   -8.8821   19.8945 H   0  0  0  0  0  0
  -22.3762  -10.9673   19.6153 H   0  0  0  0  0  0
  -21.2048   -7.6157   23.9727 H   0  0  0  0  0  0
  -21.1462   -6.0510   25.9079 H   0  0  0  0  0  0
  -22.0608   -2.7599   23.2842 H   0  0  0  0  0  0
  -22.4107  -11.9873   22.4655 H   0  0  0  0  0  0
  -21.1186  -13.1325   22.2486 H   0  0  0  0  0  0
  -24.6787  -15.8396   20.5329 H   0  0  0  0  0  0
  -26.2867  -15.6165   20.0586 H   0  0  0  0  0  0
  -26.7150  -32.5529   23.1194 H   0  0  0  0  0  0
  -25.0213  -33.9790   25.0577 H   0  0  0  0  0  0
  -22.6847  -31.3154   21.4249 H   0  0  0  0  0  0
  -23.3755  -35.9625   23.3273 H   0  0  0  0  0  0
  -24.3577  -36.8947   22.2058 H   0  0  0  0  0  0
  -23.7231  -37.6488   23.6675 H   0  0  0  0  0  0
  -26.0618  -31.6087   20.6146 H   0  0  0  0  0  0
  -26.8120  -30.8724   22.0011 H   0  0  0  0  0  0
  -28.0897  -29.1015   21.1720 H   0  0  0  0  0  0
  -25.9990  -26.0283   18.9423 H   0  0  0  0  0  0
  -23.9696  -27.3406   18.9967 H   0  0  0  0  0  0
  -23.7148  -30.6245   19.4135 H   0  0  0  0  0  0
  -22.7281  -29.2685   19.8639 H   0  0  0  0  0  0
  -25.1275  -36.1940   25.0833 H   0  0  0  0  0  0
  -20.9942  -28.3211   24.1439 H   0  0  0  0  0  0
  -20.5671  -26.2250   23.3610 H   0  0  0  0  0  0
  -21.6639  -26.7438   22.1195 H   0  0  0  0  0  0
  -19.6901  -25.6294   21.1216 H   0  0  0  0  0  0
  -19.6679  -27.3210   20.6755 H   0  0  0  0  0  0
  -17.4201  -26.6694   21.3983 H   0  0  0  0  0  0
  -18.0269  -26.0041   22.8974 H   0  0  0  0  0  0
  -19.7934  -30.7256   24.2260 H   0  0  0  0  0  0
  -17.5001  -31.6243   24.5169 H   0  0  0  0  0  0
  -15.5331  -30.2957   23.7669 H   0  0  0  0  0  0
  -15.8653  -28.0795   22.7069 H   0  0  0  0  0  0
  -24.5956  -30.7071   25.7870 H   0  0  0  0  0  0
  -24.9080  -32.2859   26.5037 H   0  0  0  0  0  0
  -25.8216  -30.8807   27.0239 H   0  0  0  0  0  0
  -26.2933  -29.6742   24.1271 H   0  0  0  0  0  0
  -27.4197  -29.7303   25.4622 H   0  0  0  0  0  0
  -27.8742  -30.4316   23.9288 H   0  0  0  0  0  0
  -27.2662  -33.3596   26.2147 H   0  0  0  0  0  0
  -28.3888  -32.6953   25.0374 H   0  0  0  0  0  0
  -28.0772  -31.8454   26.5436 H   0  0  0  0  0  0
  -28.2570  -38.0111   24.7534 H   0  0  0  0  0  0
  -28.1086  -36.2649   24.6243 H   0  0  0  0  0  0
  -27.2296  -37.1394   25.8860 H   0  0  0  0  0  0
  -20.9304  -29.8776   21.6980 H   0  0  0  0  0  0
  -26.0153  -38.2853   24.1449 H   0  0  0  0  0  0
  -30.0410  -25.4526   21.7525 H   0  0  0  0  0  0
  -31.9352  -23.9338   22.2170 H   0  0  0  0  0  0
  -29.3180  -23.4219   18.0319 H   0  0  0  0  0  0
  -34.9976  -21.6316   20.3867 H   0  0  0  0  0  0
  -34.5320  -23.2684   20.8327 H   0  0  0  0  0  0
  -34.1775  -22.6572   19.2193 H   0  0  0  0  0  0
  -32.4601  -21.2939   14.8769 H   0  0  0  0  0  0
  -31.8211  -20.0107   15.8861 H   0  0  0  0  0  0
  -33.3318  -20.8030   16.3229 H   0  0  0  0  0  0
  -32.5710  -23.6433   15.6672 H   0  0  0  0  0  0
  -33.2451  -23.3213   17.2564 H   0  0  0  0  0  0
  -31.7249  -24.1823   17.0939 H   0  0  0  0  0  0
  -27.7952  -16.7467   20.7486 H   0  0  0  0  0  0
  -27.6010  -18.4042   20.2258 H   0  0  0  0  0  0
  -28.2516  -18.0552   21.8238 H   0  0  0  0  0  0
  -29.3191  -16.1417   18.7021 H   0  0  0  0  0  0
  -30.6254  -17.2442   18.2815 H   0  0  0  0  0  0
  -28.9509  -17.7499   18.1449 H   0  0  0  0  0  0
  -32.7162  -20.8417   20.4514 H   0  0  0  0  0  0
  -32.9122  -21.7828   21.8655 H   0  0  0  0  0  0
  -27.5089  -24.8452   20.0017 H   0  0  0  0  0  0
  -28.1838  -25.4551   18.4912 H   0  0  0  0  0  0
  -30.5365  -17.1559   22.1537 H   0  0  0  0  0  0
  -31.6035  -16.8598   20.8248 H   0  0  0  0  0  0
  -30.2629  -19.6291   17.5834 H   0  0  0  0  0  0
  -29.1806  -20.9896   17.6614 H   0  0  0  0  0  0
  -31.3522  -19.0773   19.8545 H   0  0  0  0  0  0
  -30.4243  -19.4483   21.2795 H   0  0  0  0  0  0
  -32.1029  -20.9508   18.4818 H   0  0  0  0  0  0
  -30.6148  -22.2003   16.2181 H   0  0  0  0  0  0
  -29.1933  -15.1928   21.5320 H   0  0  0  0  0  0
  -28.5973  -19.8416   19.4762 H   0  0  0  0  0  0
  -29.5716  -21.0012   20.0726 H   0  0  0  0  0  0
  1 25  1  0  0  0
  1 30  2  0  0  0
  1 90  1  0  0  0
  2  3  1  0  0  0
  2 25  1  0  0  0
  2 92  1  0  0  0
  2 93  1  0  0  0
  3  4  1  0  0  0
  3 94  1  0  0  0
  3 95  1  0  0  0
  4  5  1  0  0  0
  4 96  1  0  0  0
  4 97  1  0  0  0
  5  6  1  0  0  0
  5 26  1  0  0  0
  5 98  1  0  0  0
  6 25  1  0  0  0
  6 99  1  0  0  0
  6100  1  0  0  0
  7  8  2  0  0  0
  7 26  1  0  0  0
  7 29  1  0  0  0
  8  9  1  0  0  0
  8 22  1  0  0  0
  9 10  1  0  0  0
  9 27  2  0  0  0
 10 11  2  0  0  0
 10 15  1  0  0  0
 11 12  1  0  0  0
 11101  1  0  0  0
 12 13  2  0  0  0
 12102  1  0  0  0
 13 14  1  0  0  0
 13 31  1  0  0  0
 14 15  2  0  0  0
 14103  1  0  0  0
 15104  1  0  0  0
 16 17  2  0  0  0
 16 21  1  0  0  0
 16 31  1  0  0  0
 17 18  1  0  0  0
 17105  1  0  0  0
 18 19  2  0  0  0
 18106  1  0  0  0
 19 20  1  0  0  0
 19 24  1  0  0  0
 20 21  2  0  0  0
 20107  1  0  0  0
 21 23  1  0  0  0
 22 28  1  0  0  0
 22 32  2  0  0  0
 26 27  1  0  0  0
 28108  1  0  0  0
 28109  1  0  0  0
 29110  1  0  0  0
 29111  1  0  0  0
 33 34  1  0  0  0
 33 66  1  0  0  0
 33 70  2  0  0  0
 34 36  1  0  0  0
 34 59  1  0  0  0
 34112  1  0  0  0
 35 44  2  0  0  0
 35 45  1  0  0  0
 35 68  1  0  0  0
 36 56  1  0  0  0
 36113  1  0  0  0
 37 39  1  0  0  0
 37 47  1  0  0  0
 37 66  1  0  0  0
 37114  1  0  0  0
 38 43  2  0  0  0
 38 46  1  0  0  0
 38 47  1  0  0  0
 39 64  1  0  0  0
 39 67  2  0  0  0
 40 52  1  0  0  0
 40 53  2  0  0  0
 40 58  1  0  0  0
 41115  1  0  0  0
 41116  1  0  0  0
 41117  1  0  0  0
 41 48  1  0  0  0
 42 43  1  0  0  0
 42 66  1  0  0  0
 42118  1  0  0  0
 42119  1  0  0  0
 43 44  1  0  0  0
 44120  1  0  0  0
 45 46  2  0  0  0
 45121  1  0  0  0
 46122  1  0  0  0
 47123  1  0  0  0
 47124  1  0  0  0
 48 56  1  0  0  0
 48 65  1  0  0  0
 48125  1  0  0  0
 49 50  1  0  0  0
 49 53  1  0  0  0
 49 64  1  0  0  0
 49126  1  0  0  0
 50 51  1  0  0  0
 50127  1  0  0  0
 50128  1  0  0  0
 51 52  1  0  0  0
 51129  1  0  0  0
 51130  1  0  0  0
 52131  1  0  0  0
 52132  1  0  0  0
 53 54  1  0  0  0
 54 55  2  0  0  0
 54133  1  0  0  0
 55 57  1  0  0  0
 55134  1  0  0  0
 56 69  2  0  0  0
 57 58  2  0  0  0
 57135  1  0  0  0
 58136  1  0  0  0
 59 60  1  0  0  0
 59 61  1  0  0  0
 59 62  1  0  0  0
 60137  1  0  0  0
 60138  1  0  0  0
 60139  1  0  0  0
 61140  1  0  0  0
 61141  1  0  0  0
 61142  1  0  0  0
 62143  1  0  0  0
 62144  1  0  0  0
 62145  1  0  0  0
 63 65  1  0  0  0
 63146  1  0  0  0
 63147  1  0  0  0
 63148  1  0  0  0
 64149  1  0  0  0
 65150  1  0  0  0
 68 83  1  0  0  0
 71 72  2  0  0  0
 71 74  1  0  0  0
 71151  1  0  0  0
 72 75  1  0  0  0
 72152  1  0  0  0
 73 74  2  0  0  0
 73 76  1  0  0  0
 73153  1  0  0  0
 74 83  1  0  0  0
 75 76  2  0  0  0
 75 82  1  0  0  0
 76 87  1  0  0  0
 77 82  1  0  0  0
 77154  1  0  0  0
 77155  1  0  0  0
 77156  1  0  0  0
 78157  1  0  0  0
 78158  1  0  0  0
 78159  1  0  0  0
 78 88  1  0  0  0
 79 88  1  0  0  0
 79160  1  0  0  0
 79161  1  0  0  0
 79162  1  0  0  0
 80163  1  0  0  0
 80164  1  0  0  0
 80165  1  0  0  0
 80 89  1  0  0  0
 81 89  1  0  0  0
 81166  1  0  0  0
 81167  1  0  0  0
 81168  1  0  0  0
 82169  1  0  0  0
 82170  1  0  0  0
 83171  1  0  0  0
 83172  1  0  0  0
 84 89  1  0  0  0
 84 90  1  0  0  0
 84173  1  0  0  0
 84174  1  0  0  0
 85 91  1  0  0  0
 85175  1  0  0  0
 85176  1  0  0  0
 85 87  1  0  0  0
 86 89  1  0  0  0
 86 91  1  0  0  0
 86177  1  0  0  0
 86178  1  0  0  0
 87 88  1  0  0  0
 87179  1  0  0  0
 88180  1  0  0  0
 90181  1  0  0  0
 91182  1  0  0  0
 91183  1  0  0  0
M  CHG  1  91   1
M  ISO  4   1 100  68 101  83 101  90 100
M  END
> <chiral flag>
0

> <version>
0

> <s_m_source_file>
/data/baiqing/PycharmProjects/Reinvent-master-3.2/result/LINK_invent/BTK/process_docking_weight1_custom_sum_contain_oxygen_bond_distance_aromatic_linkinvent_7_9_3/rearranged_h_0092.sdf

> <i_m_source_file_index>
40

> <r_mmod_Potential_Energy-OPLS-2005>
-196.531860351562

> <r_mmod_Stretch_Energy-OPLS-2005>
39.0424346923828

> <r_mmod_Bend_Energy-OPLS-2005>
108.644462585449

> <r_mmod_Torsional_Energy-OPLS-2005>
255.364807128906

> <r_mmod_Improper_Torsional_Energy-OPLS-2005>
4.08881521224976

> <r_mmod_Van_der_Waal_Energy-OPLS-2005>
163.488021850586

> <r_mmod_Electrostatic_Energy-OPLS-2005>
-338.165863037109

> <r_mmod_Solvation_Energy-OPLS-2005>
-440.345733642578

> <b_mmod_Minimization_Converged-OPLS-2005>
0

> <r_mmod_RMS_Derivative-OPLS-2005>
4.48689126968384

$$$$
41
                    3D
 Structure written by MMmdl.
164172  0  0  1  0            999 V2000
  -30.7486  -14.4443   20.5436 C   0  0  0  0  0  0
  -30.4124  -12.2844   19.4185 C   0  0  0  0  0  0
  -29.4914  -12.4933   18.2010 C   0  0  0  0  0  0
  -28.0116  -12.3671   18.6118 C   0  0  0  0  0  0
  -27.6582  -13.2161   19.8626 C   0  0  2  0  0  0
  -28.7056  -13.0112   20.9825 C   0  0  0  0  0  0
  -25.2541  -13.8208   20.5690 C   0  0  0  0  0  0
  -24.1803  -13.0470   20.9198 C   0  0  0  0  0  0
  -24.6380  -11.6950   20.8744 C   0  0  0  0  0  0
  -23.9063  -10.4334   21.0404 C   0  0  0  0  0  0
  -24.3609   -9.4236   21.9163 C   0  0  0  0  0  0
  -23.6301   -8.2266   22.0731 C   0  0  0  0  0  0
  -22.4290   -8.0296   21.3521 C   0  0  0  0  0  0
  -21.9917   -9.0278   20.4632 C   0  0  0  0  0  0
  -22.7244  -10.2159   20.3045 C   0  0  0  0  0  0
  -21.6870   -6.0756   22.5273 C   0  0  0  0  0  0
  -21.4020   -6.5641   23.8214 C   0  0  0  0  0  0
  -21.3665   -5.6775   24.9163 C   0  0  0  0  0  0
  -21.6064   -4.3048   24.7208 C   0  0  0  0  0  0
  -21.8815   -3.8150   23.4327 C   0  0  0  0  0  0
  -21.9191   -4.6980   22.3388 C   0  0  0  0  0  0
  -22.7814  -13.5253   21.1849 C   0  0  0  0  0  0
  -22.1644   -4.2171   21.0968 F   0  0  0  0  0  0
  -21.5637   -3.4522   25.7715 F   0  0  0  0  0  0
  -30.0380  -13.2903   20.4219 N   0  0  0  0  0  0
  -26.3001  -12.9403   20.3337 N   0  0  0  0  0  0
  -25.9306  -11.6551   20.5744 N   0  0  0  0  0  0
  -22.0424  -12.8269   22.0419 N   0  0  0  0  0  0
  -25.4244  -15.1918   20.4058 N   0  0  0  0  0  0
  -31.8682  -14.5960   20.0532 O   0  0  0  0  0  0
  -21.6649   -6.8890   21.4236 O   0  0  0  0  0  0
  -22.3511  -14.5557   20.6683 O   0  0  0  0  0  0
  -24.6096  -31.8685   23.2108 C   0  0  0  0  0  0
  -25.8995  -32.4836   23.8390 C   0  0  1  0  0  0
  -27.2303  -27.4555   20.0800 C   0  0  0  0  0  0
  -25.5820  -33.8637   24.2288 N   0  0  0  0  0  0
  -23.3961  -30.4897   21.5557 C   0  0  2  0  0  0
  -24.8379  -28.9573   20.1201 C   0  0  0  0  0  0
  -22.7378  -29.4646   22.5061 C   0  0  0  0  0  0
  -18.0251  -28.1365   22.8527 C   0  0  0  0  0  0
  -24.1464  -36.7347   23.2643 C   0  0  0  0  0  0
  -25.9220  -30.8392   21.3599 C   0  0  0  0  0  0
  -25.9984  -29.4740   20.7101 C   0  0  0  0  0  0
  -27.1959  -28.7300   20.6874 C   0  0  0  0  0  0
  -26.0500  -26.9494   19.4862 C   0  0  0  0  0  0
  -24.8564  -27.6927   19.5092 C   0  0  0  0  0  0
  -23.5974  -29.8165   20.1722 C   0  0  0  0  0  0
  -25.4085  -36.3126   24.0327 C   0  0  1  0  0  0
  -20.5841  -28.3618   23.1376 C   0  0  2  0  0  0
  -20.6733  -26.9369   22.5443 C   0  0  0  0  0  0
  -19.5704  -26.6381   21.5238 C   0  0  0  0  0  0
  -18.1888  -26.7918   22.1654 C   0  0  0  0  0  0
  -19.1509  -28.8818   23.2953 C   0  0  0  0  0  0
  -18.9439  -30.1435   23.8937 C   0  0  0  0  0  0
  -17.6445  -30.6587   24.0580 C   0  0  0  0  0  0
  -25.9004  -34.9493   23.5124 C   0  0  0  0  0  0
  -16.5332  -29.9093   23.6336 C   0  0  0  0  0  0
  -16.7251  -28.6513   23.0363 C   0  0  0  0  0  0
  -26.4425  -31.6644   25.0738 C   0  0  0  0  0  0
  -25.3701  -31.3806   26.1515 C   0  0  0  0  0  0
  -27.0246  -30.3075   24.6139 C   0  0  0  0  0  0
  -27.5996  -32.4393   25.7477 C   0  0  0  0  0  0
  -27.5566  -37.1818   24.8455 C   0  0  0  0  0  0
  -21.4117  -29.2997   22.3796 N   0  0  0  0  0  0
  -26.4276  -37.3797   23.9396 N   0  0  0  0  0  0
  -24.6624  -31.0780   22.1018 N   0  0  0  0  0  0
  -23.4179  -28.8203   23.3091 O   0  0  0  0  0  0
  -28.4207  -26.7655   20.0703 O   0  0  0  0  0  0
  -26.5627  -34.8952   22.4720 O   0  0  0  0  0  0
  -23.5297  -32.1444   23.7501 O   0  0  0  0  0  0
  -29.3346  -20.9406   20.5590 C   0  0  0  0  0  0
  -30.2879  -22.6439   19.1468 C   0  0  0  0  0  0
  -29.6187  -22.3008   20.3351 C   0  0  0  0  0  0
  -29.7298  -19.9770   19.6080 C   0  0  0  0  0  0
  -30.3452  -20.4351   18.4166 C   0  0  0  0  0  0
  -29.9117  -19.7646   16.0040 C   0  0  0  0  0  0
  -29.2423  -23.3239   21.4041 C   0  0  0  0  0  0
  -29.5174  -18.4965   19.9409 C   0  0  0  0  0  0
  -30.7550  -19.5245   17.2657 C   0  0  0  0  0  0
  -29.4049  -24.8146   21.0439 C   0  0  0  0  0  0
  -30.8405  -17.7673   20.2696 C   0  0  0  0  0  0
  -30.7806  -16.7585   21.4436 C   0  0  0  0  0  0
  -28.3709  -25.3389   20.0386 C   0  0  0  0  0  0
  -30.6270  -21.7397   18.2090 N   0  0  0  0  0  0
  -30.1309  -15.4736   21.1423 N   0  0  0  0  0  0
  -31.4586  -12.3528   19.1172 H   0  0  0  0  0  0
  -30.2909  -11.2829   19.8321 H   0  0  0  0  0  0
  -29.7251  -11.7581   17.4307 H   0  0  0  0  0  0
  -29.6725  -13.4720   17.7528 H   0  0  0  0  0  0
  -27.8146  -11.3160   18.8154 H   0  0  0  0  0  0
  -27.3684  -12.6366   17.7727 H   0  0  0  0  0  0
  -27.6980  -14.2615   19.5543 H   0  0  0  0  0  0
  -28.6709  -11.9823   21.3452 H   0  0  0  0  0  0
  -28.4771  -13.6373   21.8456 H   0  0  0  0  0  0
  -25.2748   -9.5735   22.4738 H   0  0  0  0  0  0
  -24.0020   -7.4666   22.7450 H   0  0  0  0  0  0
  -21.0846   -8.8821   19.8937 H   0  0  0  0  0  0
  -22.3701  -10.9701   19.6158 H   0  0  0  0  0  0
  -21.1999   -7.6141   23.9733 H   0  0  0  0  0  0
  -21.1486   -6.0488   25.9072 H   0  0  0  0  0  0
  -22.0585   -2.7613   23.2814 H   0  0  0  0  0  0
  -22.4013  -11.9965   22.4901 H   0  0  0  0  0  0
  -21.1027  -13.1296   22.2541 H   0  0  0  0  0  0
  -24.6570  -15.8498   20.5029 H   0  0  0  0  0  0
  -26.2748  -15.6264   20.0689 H   0  0  0  0  0  0
  -26.7071  -32.5539   23.1159 H   0  0  0  0  0  0
  -24.9837  -33.9805   25.0341 H   0  0  0  0  0  0
  -22.6822  -31.3039   21.4169 H   0  0  0  0  0  0
  -23.3709  -35.9696   23.3318 H   0  0  0  0  0  0
  -24.3552  -36.8966   22.2054 H   0  0  0  0  0  0
  -23.7246  -37.6560   23.6675 H   0  0  0  0  0  0
  -26.0247  -31.6023   20.5869 H   0  0  0  0  0  0
  -26.8138  -30.8966   21.9732 H   0  0  0  0  0  0
  -28.0957  -29.1244   21.1404 H   0  0  0  0  0  0
  -26.0354  -25.9898   18.9900 H   0  0  0  0  0  0
  -23.9648  -27.2891   19.0492 H   0  0  0  0  0  0
  -23.6919  -30.5850   19.4034 H   0  0  0  0  0  0
  -22.7238  -29.2232   19.8924 H   0  0  0  0  0  0
  -25.1271  -36.1983   25.0818 H   0  0  0  0  0  0
  -20.9940  -28.3159   24.1490 H   0  0  0  0  0  0
  -20.5632  -26.2218   23.3613 H   0  0  0  0  0  0
  -21.6602  -26.7411   22.1229 H   0  0  0  0  0  0
  -19.6850  -25.6308   21.1227 H   0  0  0  0  0  0
  -19.6631  -27.3232   20.6805 H   0  0  0  0  0  0
  -17.4152  -26.6694   21.4056 H   0  0  0  0  0  0
  -18.0279  -26.0051   22.9041 H   0  0  0  0  0  0
  -19.7919  -30.7253   24.2306 H   0  0  0  0  0  0
  -17.4999  -31.6271   24.5174 H   0  0  0  0  0  0
  -15.5334  -30.3005   23.7634 H   0  0  0  0  0  0
  -15.8653  -28.0845   22.7037 H   0  0  0  0  0  0
  -24.5763  -30.7282   25.7858 H   0  0  0  0  0  0
  -24.9036  -32.3016   26.5033 H   0  0  0  0  0  0
  -25.8030  -30.8887   27.0235 H   0  0  0  0  0  0
  -26.2804  -29.6861   24.1150 H   0  0  0  0  0  0
  -27.3942  -29.7291   25.4612 H   0  0  0  0  0  0
  -27.8660  -30.4362   23.9329 H   0  0  0  0  0  0
  -27.2580  -33.3666   26.2083 H   0  0  0  0  0  0
  -28.3763  -32.7018   25.0288 H   0  0  0  0  0  0
  -28.0719  -31.8541   26.5374 H   0  0  0  0  0  0
  -28.2603  -38.0100   24.7494 H   0  0  0  0  0  0
  -28.1050  -36.2642   24.6278 H   0  0  0  0  0  0
  -27.2310  -37.1471   25.8869 H   0  0  0  0  0  0
  -20.9260  -29.8726   21.7043 H   0  0  0  0  0  0
  -26.0176  -38.2872   24.1405 H   0  0  0  0  0  0
  -28.8391  -20.6387   21.4711 H   0  0  0  0  0  0
  -30.5667  -23.6617   18.9257 H   0  0  0  0  0  0
  -30.2581  -19.1344   15.1865 H   0  0  0  0  0  0
  -29.9845  -20.8004   15.6707 H   0  0  0  0  0  0
  -28.8593  -19.5469   16.1846 H   0  0  0  0  0  0
  -29.8606  -23.1141   22.2770 H   0  0  0  0  0  0
  -28.2125  -23.1459   21.7213 H   0  0  0  0  0  0
  -28.9846  -17.9955   19.1329 H   0  0  0  0  0  0
  -28.8505  -18.4380   20.8025 H   0  0  0  0  0  0
  -30.6855  -18.4738   17.5359 H   0  0  0  0  0  0
  -31.8062  -19.7051   17.0377 H   0  0  0  0  0  0
  -30.4197  -25.0367   20.7127 H   0  0  0  0  0  0
  -29.2755  -25.3813   21.9666 H   0  0  0  0  0  0
  -31.5793  -18.5174   20.5570 H   0  0  0  0  0  0
  -31.2557  -17.3009   19.3741 H   0  0  0  0  0  0
  -30.2976  -17.2160   22.3054 H   0  0  0  0  0  0
  -31.8037  -16.5554   21.7685 H   0  0  0  0  0  0
  -27.3975  -24.9429   20.3264 H   0  0  0  0  0  0
  -28.5879  -24.9950   19.0261 H   0  0  0  0  0  0
  -29.2028  -15.3163   21.5041 H   0  0  0  0  0  0
  1 25  1  0  0  0
  1 30  2  0  0  0
  1 85  1  0  0  0
  2  3  1  0  0  0
  2 25  1  0  0  0
  2 86  1  0  0  0
  2 87  1  0  0  0
  3  4  1  0  0  0
  3 88  1  0  0  0
  3 89  1  0  0  0
  4  5  1  0  0  0
  4 90  1  0  0  0
  4 91  1  0  0  0
  5  6  1  0  0  0
  5 26  1  0  0  0
  5 92  1  0  0  0
  6 25  1  0  0  0
  6 93  1  0  0  0
  6 94  1  0  0  0
  7  8  2  0  0  0
  7 26  1  0  0  0
  7 29  1  0  0  0
  8  9  1  0  0  0
  8 22  1  0  0  0
  9 10  1  0  0  0
  9 27  2  0  0  0
 10 11  2  0  0  0
 10 15  1  0  0  0
 11 12  1  0  0  0
 11 95  1  0  0  0
 12 13  2  0  0  0
 12 96  1  0  0  0
 13 14  1  0  0  0
 13 31  1  0  0  0
 14 15  2  0  0  0
 14 97  1  0  0  0
 15 98  1  0  0  0
 16 17  2  0  0  0
 16 21  1  0  0  0
 16 31  1  0  0  0
 17 18  1  0  0  0
 17 99  1  0  0  0
 18 19  2  0  0  0
 18100  1  0  0  0
 19 20  1  0  0  0
 19 24  1  0  0  0
 20 21  2  0  0  0
 20101  1  0  0  0
 21 23  1  0  0  0
 22 28  1  0  0  0
 22 32  2  0  0  0
 26 27  1  0  0  0
 28102  1  0  0  0
 28103  1  0  0  0
 29104  1  0  0  0
 29105  1  0  0  0
 33 34  1  0  0  0
 33 66  1  0  0  0
 33 70  2  0  0  0
 34 36  1  0  0  0
 34 59  1  0  0  0
 34106  1  0  0  0
 35 44  2  0  0  0
 35 45  1  0  0  0
 35 68  1  0  0  0
 36 56  1  0  0  0
 36107  1  0  0  0
 37 39  1  0  0  0
 37 47  1  0  0  0
 37 66  1  0  0  0
 37108  1  0  0  0
 38 43  2  0  0  0
 38 46  1  0  0  0
 38 47  1  0  0  0
 39 64  1  0  0  0
 39 67  2  0  0  0
 40 52  1  0  0  0
 40 53  2  0  0  0
 40 58  1  0  0  0
 41109  1  0  0  0
 41110  1  0  0  0
 41111  1  0  0  0
 41 48  1  0  0  0
 42 43  1  0  0  0
 42 66  1  0  0  0
 42112  1  0  0  0
 42113  1  0  0  0
 43 44  1  0  0  0
 44114  1  0  0  0
 45 46  2  0  0  0
 45115  1  0  0  0
 46116  1  0  0  0
 47117  1  0  0  0
 47118  1  0  0  0
 48 56  1  0  0  0
 48 65  1  0  0  0
 48119  1  0  0  0
 49 50  1  0  0  0
 49 53  1  0  0  0
 49 64  1  0  0  0
 49120  1  0  0  0
 50 51  1  0  0  0
 50121  1  0  0  0
 50122  1  0  0  0
 51 52  1  0  0  0
 51123  1  0  0  0
 51124  1  0  0  0
 52125  1  0  0  0
 52126  1  0  0  0
 53 54  1  0  0  0
 54 55  2  0  0  0
 54127  1  0  0  0
 55 57  1  0  0  0
 55128  1  0  0  0
 56 69  2  0  0  0
 57 58  2  0  0  0
 57129  1  0  0  0
 58130  1  0  0  0
 59 60  1  0  0  0
 59 61  1  0  0  0
 59 62  1  0  0  0
 60131  1  0  0  0
 60132  1  0  0  0
 60133  1  0  0  0
 61134  1  0  0  0
 61135  1  0  0  0
 61136  1  0  0  0
 62137  1  0  0  0
 62138  1  0  0  0
 62139  1  0  0  0
 63 65  1  0  0  0
 63140  1  0  0  0
 63141  1  0  0  0
 63142  1  0  0  0
 64143  1  0  0  0
 65144  1  0  0  0
 68 83  1  0  0  0
 71 73  2  0  0  0
 71 74  1  0  0  0
 71145  1  0  0  0
 72 73  1  0  0  0
 72 84  2  0  0  0
 72146  1  0  0  0
 73 77  1  0  0  0
 74 75  2  0  0  0
 74 78  1  0  0  0
 75 79  1  0  0  0
 75 84  1  0  0  0
 76 79  1  0  0  0
 76147  1  0  0  0
 76148  1  0  0  0
 76149  1  0  0  0
 77 80  1  0  0  0
 77150  1  0  0  0
 77151  1  0  0  0
 78 81  1  0  0  0
 78152  1  0  0  0
 78153  1  0  0  0
 79154  1  0  0  0
 79155  1  0  0  0
 80 83  1  0  0  0
 80156  1  0  0  0
 80157  1  0  0  0
 81 82  1  0  0  0
 81158  1  0  0  0
 81159  1  0  0  0
 82 85  1  0  0  0
 82160  1  0  0  0
 82161  1  0  0  0
 83162  1  0  0  0
 83163  1  0  0  0
 85164  1  0  0  0
M  ISO  4   1 100  68 101  83 101  85 100
M  END
> <chiral flag>
0

> <version>
0

> <s_m_source_file>
/data/baiqing/PycharmProjects/Reinvent-master-3.2/result/LINK_invent/BTK/process_docking_weight1_custom_sum_contain_oxygen_bond_distance_aromatic_linkinvent_7_9_3/rearranged_h_0092.sdf

> <i_m_source_file_index>
41

> <r_mmod_Potential_Energy-OPLS-2005>
-211.78466796875

> <r_mmod_Stretch_Energy-OPLS-2005>
33.7266616821289

> <r_mmod_Bend_Energy-OPLS-2005>
103.89818572998

> <r_mmod_Torsional_Energy-OPLS-2005>
206.338684082031

> <r_mmod_Improper_Torsional_Energy-OPLS-2005>
2.85899114608765

> <r_mmod_Van_der_Waal_Energy-OPLS-2005>
160.535339355469

> <r_mmod_Electrostatic_Energy-OPLS-2005>
-511.09619140625

> <r_mmod_Solvation_Energy-OPLS-2005>
-220.679321289062

> <b_mmod_Minimization_Converged-OPLS-2005>
0

> <r_mmod_RMS_Derivative-OPLS-2005>
3.80772662162781

$$$$
42
                    3D
 Structure written by MMmdl.
174182  0  0  1  0            999 V2000
  -30.7009  -14.5514   20.5269 C   0  0  0  0  0  0
  -30.4231  -12.3391   19.4591 C   0  0  0  0  0  0
  -29.4990  -12.4930   18.2315 C   0  0  0  0  0  0
  -28.0275  -12.3310   18.6504 C   0  0  0  0  0  0
  -27.6597  -13.2118   19.8749 C   0  0  2  0  0  0
  -28.7036  -13.0650   21.0088 C   0  0  0  0  0  0
  -25.2576  -13.8157   20.5657 C   0  0  0  0  0  0
  -24.1828  -13.0442   20.9158 C   0  0  0  0  0  0
  -24.6390  -11.6915   20.8738 C   0  0  0  0  0  0
  -23.9050  -10.4287   21.0403 C   0  0  0  0  0  0
  -24.3605   -9.4206   21.9192 C   0  0  0  0  0  0
  -23.6284   -8.2244   22.0777 C   0  0  0  0  0  0
  -22.4272   -8.0276   21.3562 C   0  0  0  0  0  0
  -21.9893   -9.0234   20.4664 C   0  0  0  0  0  0
  -22.7208  -10.2115   20.3065 C   0  0  0  0  0  0
  -21.6856   -6.0718   22.5277 C   0  0  0  0  0  0
  -21.4008   -6.5633   23.8195 C   0  0  0  0  0  0
  -21.3658   -5.6795   24.9163 C   0  0  0  0  0  0
  -21.6048   -4.3053   24.7223 C   0  0  0  0  0  0
  -21.8823   -3.8142   23.4342 C   0  0  0  0  0  0
  -21.9183   -4.6951   22.3396 C   0  0  0  0  0  0
  -22.7855  -13.5258   21.1804 C   0  0  0  0  0  0
  -22.1664   -4.2127   21.0976 F   0  0  0  0  0  0
  -21.5628   -3.4552   25.7739 F   0  0  0  0  0  0
  -30.0323  -13.3611   20.4508 N   0  0  0  0  0  0
  -26.3026  -12.9344   20.3397 N   0  0  0  0  0  0
  -25.9329  -11.6505   20.5827 N   0  0  0  0  0  0
  -22.0495  -12.8253   22.0360 N   0  0  0  0  0  0
  -25.4343  -15.1858   20.4034 N   0  0  0  0  0  0
  -31.8373  -14.6912   20.0695 O   0  0  0  0  0  0
  -21.6661   -6.8855   21.4240 O   0  0  0  0  0  0
  -22.3529  -14.5534   20.6604 O   0  0  0  0  0  0
  -24.6194  -31.8684   23.2088 C   0  0  0  0  0  0
  -25.9033  -32.4860   23.8413 C   0  0  1  0  0  0
  -27.2139  -27.4026   20.1014 C   0  0  0  0  0  0
  -25.5892  -33.8657   24.2329 N   0  0  0  0  0  0
  -23.4091  -30.4959   21.5520 C   0  0  2  0  0  0
  -24.8483  -28.9715   20.1046 C   0  0  0  0  0  0
  -22.7476  -29.4638   22.4943 C   0  0  0  0  0  0
  -18.0301  -28.1398   22.8473 C   0  0  0  0  0  0
  -24.1497  -36.7311   23.2654 C   0  0  0  0  0  0
  -25.9406  -30.8323   21.3585 C   0  0  0  0  0  0
  -26.0151  -29.4663   20.7017 C   0  0  0  0  0  0
  -27.1999  -28.6918   20.6876 C   0  0  0  0  0  0
  -26.0227  -26.9308   19.4993 C   0  0  0  0  0  0
  -24.8506  -27.7082   19.4968 C   0  0  0  0  0  0
  -23.6187  -29.8486   20.1584 C   0  0  0  0  0  0
  -25.4117  -36.3145   24.0370 C   0  0  1  0  0  0
  -20.5897  -28.3647   23.1317 C   0  0  2  0  0  0
  -20.6779  -26.9376   22.5408 C   0  0  0  0  0  0
  -19.5751  -26.6391   21.5215 C   0  0  0  0  0  0
  -18.1935  -26.7947   22.1625 C   0  0  0  0  0  0
  -19.1572  -28.8835   23.2896 C   0  0  0  0  0  0
  -18.9489  -30.1433   23.8904 C   0  0  0  0  0  0
  -17.6496  -30.6580   24.0571 C   0  0  0  0  0  0
  -25.9055  -34.9506   23.5165 C   0  0  0  0  0  0
  -16.5366  -29.9099   23.6330 C   0  0  0  0  0  0
  -16.7299  -28.6533   23.0318 C   0  0  0  0  0  0
  -26.4455  -31.6664   25.0756 C   0  0  0  0  0  0
  -25.3720  -31.3776   26.1521 C   0  0  0  0  0  0
  -27.0304  -30.3169   24.6040 C   0  0  0  0  0  0
  -27.6062  -32.4368   25.7467 C   0  0  0  0  0  0
  -27.5586  -37.1804   24.8476 C   0  0  0  0  0  0
  -21.4192  -29.3008   22.3728 N   0  0  0  0  0  0
  -26.4288  -37.3836   23.9441 N   0  0  0  0  0  0
  -24.6757  -31.0786   22.1002 N   0  0  0  0  0  0
  -23.4233  -28.8124   23.2938 O   0  0  0  0  0  0
  -28.3673  -26.6333   20.1375 O   0  0  0  0  0  0
  -26.5604  -34.8921   22.4730 O   0  0  0  0  0  0
  -23.5347  -32.1434   23.7444 O   0  0  0  0  0  0
  -28.4016  -22.5744   22.5029 C   0  0  0  0  0  0
  -28.1961  -21.4481   23.3315 C   0  0  0  0  0  0
  -29.0644  -22.0923   21.4074 C   0  0  0  0  0  0
  -27.0294  -18.6381   26.6096 C   0  0  0  0  0  0
  -26.6284  -17.6615   24.2779 C   0  0  0  0  0  0
  -31.0116  -18.1391   22.5347 C   0  0  0  0  0  0
  -27.4910  -21.3591   24.6571 C   0  0  0  0  0  0
  -29.5015  -22.8878   20.2015 C   0  0  0  0  0  0
  -26.4869  -20.1884   24.6787 C   0  0  0  0  0  0
  -29.5205  -24.4436   20.3897 C   0  0  0  0  0  0
  -29.8436  -19.6381   20.7760 C   0  0  0  0  0  0
  -30.1925  -17.0267   20.4117 C   0  0  0  0  0  0
  -28.2125  -25.1979   20.0364 C   0  0  0  0  0  0
  -27.1519  -18.8544   25.0960 C   0  0  0  0  0  0
  -29.9370  -18.1888   21.4295 C   0  0  1  0  0  0
  -28.7354  -20.3667   22.8089 N   0  0  0  0  0  0
  -29.2533  -20.7119   21.6138 N   0  0  0  0  0  0
  -29.9837  -15.6355   20.9161 N   0  0  0  0  0  0
  -31.4694  -12.4216   19.1584 H   0  0  0  0  0  0
  -30.3270  -11.3437   19.8926 H   0  0  0  0  0  0
  -29.7534  -11.7538   17.4715 H   0  0  0  0  0  0
  -29.6451  -13.4724   17.7727 H   0  0  0  0  0  0
  -27.8725  -11.2779   18.8966 H   0  0  0  0  0  0
  -27.3631  -12.5479   17.8133 H   0  0  0  0  0  0
  -27.6848  -14.2467   19.5316 H   0  0  0  0  0  0
  -28.6886  -12.0512   21.4126 H   0  0  0  0  0  0
  -28.4608  -13.7224   21.8436 H   0  0  0  0  0  0
  -25.2747   -9.5681   22.4764 H   0  0  0  0  0  0
  -23.9975   -7.4647   22.7519 H   0  0  0  0  0  0
  -21.0821   -8.8742   19.8982 H   0  0  0  0  0  0
  -22.3662  -10.9650   19.6171 H   0  0  0  0  0  0
  -21.2017   -7.6149   23.9673 H   0  0  0  0  0  0
  -21.1481   -6.0549   25.9050 H   0  0  0  0  0  0
  -22.0604   -2.7612   23.2861 H   0  0  0  0  0  0
  -22.4137  -11.9945   22.4780 H   0  0  0  0  0  0
  -21.1124  -13.1293   22.2574 H   0  0  0  0  0  0
  -24.6739  -15.8490   20.5018 H   0  0  0  0  0  0
  -26.2956  -15.6158   20.0913 H   0  0  0  0  0  0
  -26.7091  -32.5511   23.1135 H   0  0  0  0  0  0
  -25.0058  -33.9845   25.0470 H   0  0  0  0  0  0
  -22.7000  -31.3139   21.4167 H   0  0  0  0  0  0
  -23.3790  -35.9620   23.3333 H   0  0  0  0  0  0
  -24.3587  -36.8929   22.2069 H   0  0  0  0  0  0
  -23.7201  -37.6509   23.6656 H   0  0  0  0  0  0
  -26.0554  -31.6022   20.5933 H   0  0  0  0  0  0
  -26.8275  -30.8806   21.9778 H   0  0  0  0  0  0
  -28.1002  -29.0661   21.1533 H   0  0  0  0  0  0
  -25.9766  -25.9590   19.0294 H   0  0  0  0  0  0
  -23.9475  -27.3278   19.0420 H   0  0  0  0  0  0
  -23.7531  -30.6421   19.4231 H   0  0  0  0  0  0
  -22.7335  -29.2994   19.8352 H   0  0  0  0  0  0
  -25.1282  -36.2048   25.0868 H   0  0  0  0  0  0
  -20.9981  -28.3185   24.1440 H   0  0  0  0  0  0
  -20.5743  -26.2204   23.3582 H   0  0  0  0  0  0
  -21.6635  -26.7439   22.1142 H   0  0  0  0  0  0
  -19.6912  -25.6327   21.1225 H   0  0  0  0  0  0
  -19.6714  -27.3209   20.6764 H   0  0  0  0  0  0
  -17.4217  -26.6732   21.4015 H   0  0  0  0  0  0
  -18.0277  -26.0112   22.9031 H   0  0  0  0  0  0
  -19.7982  -30.7266   24.2244 H   0  0  0  0  0  0
  -17.5089  -31.6271   24.5175 H   0  0  0  0  0  0
  -15.5386  -30.3029   23.7659 H   0  0  0  0  0  0
  -15.8694  -28.0902   22.6936 H   0  0  0  0  0  0
  -24.5854  -30.7163   25.7849 H   0  0  0  0  0  0
  -24.8920  -32.2934   26.5026 H   0  0  0  0  0  0
  -25.8078  -30.8909   27.0250 H   0  0  0  0  0  0
  -26.2811  -29.6961   24.1140 H   0  0  0  0  0  0
  -27.4241  -29.7400   25.4413 H   0  0  0  0  0  0
  -27.8559  -30.4596   23.9064 H   0  0  0  0  0  0
  -27.2731  -33.3671   26.2056 H   0  0  0  0  0  0
  -28.3807  -32.6941   25.0236 H   0  0  0  0  0  0
  -28.0812  -31.8523   26.5370 H   0  0  0  0  0  0
  -28.2598  -38.0100   24.7572 H   0  0  0  0  0  0
  -28.1089  -36.2651   24.6255 H   0  0  0  0  0  0
  -27.2318  -37.1410   25.8877 H   0  0  0  0  0  0
  -20.9364  -29.8864   21.7055 H   0  0  0  0  0  0
  -26.0228  -38.2925   24.1503 H   0  0  0  0  0  0
  -28.0946  -23.5958   22.6844 H   0  0  0  0  0  0
  -27.5702  -17.7501   26.9357 H   0  0  0  0  0  0
  -25.9884  -18.5324   26.9164 H   0  0  0  0  0  0
  -27.4474  -19.4898   27.1495 H   0  0  0  0  0  0
  -27.1363  -16.7385   24.5563 H   0  0  0  0  0  0
  -26.8144  -17.8169   23.2140 H   0  0  0  0  0  0
  -25.5579  -17.5044   24.4050 H   0  0  0  0  0  0
  -30.8607  -18.9101   23.2892 H   0  0  0  0  0  0
  -32.0066  -18.2918   22.1173 H   0  0  0  0  0  0
  -31.0023  -17.1805   23.0530 H   0  0  0  0  0  0
  -26.9563  -22.2905   24.8456 H   0  0  0  0  0  0
  -28.2138  -21.2709   25.4673 H   0  0  0  0  0  0
  -28.8808  -22.6230   19.3439 H   0  0  0  0  0  0
  -30.5127  -22.5726   19.9428 H   0  0  0  0  0  0
  -26.0021  -20.1110   23.7011 H   0  0  0  0  0  0
  -25.6846  -20.4156   25.3800 H   0  0  0  0  0  0
  -30.2939  -24.8384   19.7317 H   0  0  0  0  0  0
  -29.8500  -24.6995   21.4001 H   0  0  0  0  0  0
  -29.2417  -19.5896   19.8674 H   0  0  0  0  0  0
  -30.8362  -19.9629   20.4591 H   0  0  0  0  0  0
  -31.1949  -17.1423   19.9995 H   0  0  0  0  0  0
  -29.5112  -17.1445   19.5679 H   0  0  0  0  0  0
  -27.4101  -24.8570   20.6958 H   0  0  0  0  0  0
  -27.9229  -24.9327   19.0184 H   0  0  0  0  0  0
  -28.2198  -18.9132   24.8818 H   0  0  0  0  0  0
  -28.9695  -17.9713   21.8851 H   0  0  0  0  0  0
  -29.0899  -15.4387   21.3395 H   0  0  0  0  0  0
  1 25  1  0  0  0
  1 30  2  0  0  0
  1 88  1  0  0  0
  2  3  1  0  0  0
  2 25  1  0  0  0
  2 89  1  0  0  0
  2 90  1  0  0  0
  3  4  1  0  0  0
  3 91  1  0  0  0
  3 92  1  0  0  0
  4  5  1  0  0  0
  4 93  1  0  0  0
  4 94  1  0  0  0
  5  6  1  0  0  0
  5 26  1  0  0  0
  5 95  1  0  0  0
  6 25  1  0  0  0
  6 96  1  0  0  0
  6 97  1  0  0  0
  7  8  2  0  0  0
  7 26  1  0  0  0
  7 29  1  0  0  0
  8  9  1  0  0  0
  8 22  1  0  0  0
  9 10  1  0  0  0
  9 27  2  0  0  0
 10 11  2  0  0  0
 10 15  1  0  0  0
 11 12  1  0  0  0
 11 98  1  0  0  0
 12 13  2  0  0  0
 12 99  1  0  0  0
 13 14  1  0  0  0
 13 31  1  0  0  0
 14 15  2  0  0  0
 14100  1  0  0  0
 15101  1  0  0  0
 16 17  2  0  0  0
 16 21  1  0  0  0
 16 31  1  0  0  0
 17 18  1  0  0  0
 17102  1  0  0  0
 18 19  2  0  0  0
 18103  1  0  0  0
 19 20  1  0  0  0
 19 24  1  0  0  0
 20 21  2  0  0  0
 20104  1  0  0  0
 21 23  1  0  0  0
 22 28  1  0  0  0
 22 32  2  0  0  0
 26 27  1  0  0  0
 28105  1  0  0  0
 28106  1  0  0  0
 29107  1  0  0  0
 29108  1  0  0  0
 33 34  1  0  0  0
 33 66  1  0  0  0
 33 70  2  0  0  0
 34 36  1  0  0  0
 34 59  1  0  0  0
 34109  1  0  0  0
 35 44  2  0  0  0
 35 45  1  0  0  0
 35 68  1  0  0  0
 36 56  1  0  0  0
 36110  1  0  0  0
 37 39  1  0  0  0
 37 47  1  0  0  0
 37 66  1  0  0  0
 37111  1  0  0  0
 38 43  2  0  0  0
 38 46  1  0  0  0
 38 47  1  0  0  0
 39 64  1  0  0  0
 39 67  2  0  0  0
 40 52  1  0  0  0
 40 53  2  0  0  0
 40 58  1  0  0  0
 41112  1  0  0  0
 41113  1  0  0  0
 41114  1  0  0  0
 41 48  1  0  0  0
 42 43  1  0  0  0
 42 66  1  0  0  0
 42115  1  0  0  0
 42116  1  0  0  0
 43 44  1  0  0  0
 44117  1  0  0  0
 45 46  2  0  0  0
 45118  1  0  0  0
 46119  1  0  0  0
 47120  1  0  0  0
 47121  1  0  0  0
 48 56  1  0  0  0
 48 65  1  0  0  0
 48122  1  0  0  0
 49 50  1  0  0  0
 49 53  1  0  0  0
 49 64  1  0  0  0
 49123  1  0  0  0
 50 51  1  0  0  0
 50124  1  0  0  0
 50125  1  0  0  0
 51 52  1  0  0  0
 51126  1  0  0  0
 51127  1  0  0  0
 52128  1  0  0  0
 52129  1  0  0  0
 53 54  1  0  0  0
 54 55  2  0  0  0
 54130  1  0  0  0
 55 57  1  0  0  0
 55131  1  0  0  0
 56 69  2  0  0  0
 57 58  2  0  0  0
 57132  1  0  0  0
 58133  1  0  0  0
 59 60  1  0  0  0
 59 61  1  0  0  0
 59 62  1  0  0  0
 60134  1  0  0  0
 60135  1  0  0  0
 60136  1  0  0  0
 61137  1  0  0  0
 61138  1  0  0  0
 61139  1  0  0  0
 62140  1  0  0  0
 62141  1  0  0  0
 62142  1  0  0  0
 63 65  1  0  0  0
 63143  1  0  0  0
 63144  1  0  0  0
 63145  1  0  0  0
 64146  1  0  0  0
 65147  1  0  0  0
 68 83  1  0  0  0
 71 72  1  0  0  0
 71 73  2  0  0  0
 71148  1  0  0  0
 72 77  1  0  0  0
 72 86  2  0  0  0
 73 78  1  0  0  0
 73 87  1  0  0  0
 74149  1  0  0  0
 74150  1  0  0  0
 74151  1  0  0  0
 74 84  1  0  0  0
 75 84  1  0  0  0
 75152  1  0  0  0
 75153  1  0  0  0
 75154  1  0  0  0
 76155  1  0  0  0
 76156  1  0  0  0
 76157  1  0  0  0
 76 85  1  0  0  0
 77 79  1  0  0  0
 77158  1  0  0  0
 77159  1  0  0  0
 78 80  1  0  0  0
 78160  1  0  0  0
 78161  1  0  0  0
 79 84  1  0  0  0
 79162  1  0  0  0
 79163  1  0  0  0
 80 83  1  0  0  0
 80164  1  0  0  0
 80165  1  0  0  0
 81 85  1  0  0  0
 81 87  1  0  0  0
 81166  1  0  0  0
 81167  1  0  0  0
 82 85  1  0  0  0
 82 88  1  0  0  0
 82168  1  0  0  0
 82169  1  0  0  0
 83170  1  0  0  0
 83171  1  0  0  0
 84172  1  0  0  0
 85173  1  0  0  0
 86 87  1  0  0  0
 88174  1  0  0  0
M  ISO  4   1 100  68 101  83 101  88 100
M  END
> <chiral flag>
0

> <version>
0

> <s_m_source_file>
/data/baiqing/PycharmProjects/Reinvent-master-3.2/result/LINK_invent/BTK/process_docking_weight1_custom_sum_contain_oxygen_bond_distance_aromatic_linkinvent_7_9_3/rearranged_h_0092.sdf

> <i_m_source_file_index>
42

> <r_mmod_Potential_Energy-OPLS-2005>
-61.3198890686035

> <r_mmod_Stretch_Energy-OPLS-2005>
50.7415580749512

> <r_mmod_Bend_Energy-OPLS-2005>
114.053237915039

> <r_mmod_Torsional_Energy-OPLS-2005>
240.903884887695

> <r_mmod_Improper_Torsional_Energy-OPLS-2005>
6.04171705245972

> <r_mmod_Van_der_Waal_Energy-OPLS-2005>
127.828598022461

> <r_mmod_Electrostatic_Energy-OPLS-2005>
-421.571685791016

> <r_mmod_Solvation_Energy-OPLS-2005>
-203.810623168945

> <b_mmod_Minimization_Converged-OPLS-2005>
0

> <r_mmod_RMS_Derivative-OPLS-2005>
5.04895114898682

$$$$
44
                    3D
 Structure written by MMmdl.
162170  0  0  1  0            999 V2000
  -30.6026  -14.7078   20.4665 C   0  0  0  0  0  0
  -30.4355  -12.4261   19.4802 C   0  0  0  0  0  0
  -29.5154  -12.5083   18.2406 C   0  0  0  0  0  0
  -28.0386  -12.3368   18.6486 C   0  0  0  0  0  0
  -27.6476  -13.2252   19.8597 C   0  0  2  0  0  0
  -28.6889  -13.1281   20.9983 C   0  0  0  0  0  0
  -25.2539  -13.8185   20.5680 C   0  0  0  0  0  0
  -24.1815  -13.0441   20.9186 C   0  0  0  0  0  0
  -24.6392  -11.6915   20.8733 C   0  0  0  0  0  0
  -23.9061  -10.4295   21.0407 C   0  0  0  0  0  0
  -24.3613   -9.4212   21.9189 C   0  0  0  0  0  0
  -23.6294   -8.2241   22.0755 C   0  0  0  0  0  0
  -22.4278   -8.0274   21.3545 C   0  0  0  0  0  0
  -21.9910   -9.0248   20.4650 C   0  0  0  0  0  0
  -22.7232  -10.2133   20.3063 C   0  0  0  0  0  0
  -21.6852   -6.0727   22.5279 C   0  0  0  0  0  0
  -21.4010   -6.5635   23.8212 C   0  0  0  0  0  0
  -21.3662   -5.6792   24.9177 C   0  0  0  0  0  0
  -21.6045   -4.3054   24.7230 C   0  0  0  0  0  0
  -21.8818   -3.8141   23.4354 C   0  0  0  0  0  0
  -21.9193   -4.6954   22.3407 C   0  0  0  0  0  0
  -22.7841  -13.5232   21.1859 C   0  0  0  0  0  0
  -22.1663   -4.2138   21.0984 F   0  0  0  0  0  0
  -21.5641   -3.4541   25.7745 F   0  0  0  0  0  0
  -29.9999  -13.4730   20.4321 N   0  0  0  0  0  0
  -26.2961  -12.9377   20.3301 N   0  0  0  0  0  0
  -25.9323  -11.6525   20.5754 N   0  0  0  0  0  0
  -22.0490  -12.8226   22.0426 N   0  0  0  0  0  0
  -25.4259  -15.1907   20.4091 N   0  0  0  0  0  0
  -31.7663  -14.8459   20.0787 O   0  0  0  0  0  0
  -21.6646   -6.8869   21.4240 O   0  0  0  0  0  0
  -22.3522  -14.5539   20.6711 O   0  0  0  0  0  0
  -24.6292  -31.8572   23.2000 C   0  0  0  0  0  0
  -25.9129  -32.4762   23.8348 C   0  0  1  0  0  0
  -27.2267  -27.2792   20.1255 C   0  0  0  0  0  0
  -25.5925  -33.8564   24.2262 N   0  0  0  0  0  0
  -23.4244  -30.4785   21.5429 C   0  0  2  0  0  0
  -24.8705  -28.9240   20.1141 C   0  0  0  0  0  0
  -22.7494  -29.4613   22.4939 C   0  0  0  0  0  0
  -18.0313  -28.1374   22.8479 C   0  0  0  0  0  0
  -24.1492  -36.7278   23.2640 C   0  0  0  0  0  0
  -25.9675  -30.7749   21.3768 C   0  0  0  0  0  0
  -26.0395  -29.3974   20.7210 C   0  0  0  0  0  0
  -27.2159  -28.5859   20.7178 C   0  0  0  0  0  0
  -26.0313  -26.8684   19.4931 C   0  0  0  0  0  0
  -24.8701  -27.6663   19.4915 C   0  0  0  0  0  0
  -23.6400  -29.8085   20.1604 C   0  0  0  0  0  0
  -25.4119  -36.3067   24.0325 C   0  0  1  0  0  0
  -20.5903  -28.3696   23.1297 C   0  0  2  0  0  0
  -20.6798  -26.9413   22.5452 C   0  0  0  0  0  0
  -19.5808  -26.6371   21.5225 C   0  0  0  0  0  0
  -18.1971  -26.7913   22.1614 C   0  0  0  0  0  0
  -19.1554  -28.8851   23.2875 C   0  0  0  0  0  0
  -18.9477  -30.1456   23.8891 C   0  0  0  0  0  0
  -17.6482  -30.6589   24.0552 C   0  0  0  0  0  0
  -25.9055  -34.9440   23.5092 C   0  0  0  0  0  0
  -16.5374  -29.9076   23.6332 C   0  0  0  0  0  0
  -16.7296  -28.6488   23.0350 C   0  0  0  0  0  0
  -26.4498  -31.6598   25.0741 C   0  0  0  0  0  0
  -25.3725  -31.3734   26.1463 C   0  0  0  0  0  0
  -27.0347  -30.3024   24.6221 C   0  0  0  0  0  0
  -27.6063  -32.4335   25.7507 C   0  0  0  0  0  0
  -27.5579  -37.1798   24.8465 C   0  0  0  0  0  0
  -21.4203  -29.3050   22.3686 N   0  0  0  0  0  0
  -26.4297  -37.3763   23.9396 N   0  0  0  0  0  0
  -24.6923  -31.0553   22.0962 N   0  0  0  0  0  0
  -23.4206  -28.8160   23.3034 O   0  0  0  0  0  0
  -28.3628  -26.4435   20.1936 O   0  0  0  0  0  0
  -26.5623  -34.8913   22.4660 O   0  0  0  0  0  0
  -23.5444  -32.1385   23.7308 O   0  0  0  0  0  0
  -27.6595  -19.5073   19.6484 C   0  0  0  0  0  0
  -26.7743  -20.5366   19.2857 C   0  0  0  0  0  0
  -29.0668  -21.1741   20.7156 C   0  0  0  0  0  0
  -28.8059  -19.7718   20.4201 C   0  0  0  0  0  0
  -26.9760  -21.8785   19.6786 C   0  0  0  0  0  0
  -28.1778  -22.2672   20.3378 C   0  0  0  0  0  0
  -24.5761  -22.4416   20.3010 C   0  0  0  0  0  0
  -28.8512  -18.1121   22.3399 C   0  0  0  0  0  0
  -25.8004  -22.8277   19.4587 C   0  0  0  0  0  0
  -28.3813  -23.7874   20.7903 C   0  0  0  0  0  0
  -29.8845  -17.2155   20.1365 C   0  0  0  0  0  0
  -28.4028  -25.0154   19.7362 C   0  0  0  0  0  0
  -29.5717  -18.5219   21.0461 C   0  0  1  0  0  0
  -29.7996  -15.8032   20.7117 N   0  0  0  0  0  0
  -31.4798  -12.5436   19.1853 H   0  0  0  0  0  0
  -30.3668  -11.4416   19.9456 H   0  0  0  0  0  0
  -29.7941  -11.7452   17.5130 H   0  0  0  0  0  0
  -29.6500  -13.4694   17.7422 H   0  0  0  0  0  0
  -27.8896  -11.2860   18.9006 H   0  0  0  0  0  0
  -27.3832  -12.5409   17.8009 H   0  0  0  0  0  0
  -27.6516  -14.2520   19.4942 H   0  0  0  0  0  0
  -28.7110  -12.1220   21.4196 H   0  0  0  0  0  0
  -28.4276  -13.7941   21.8223 H   0  0  0  0  0  0
  -25.2759   -9.5689   22.4768 H   0  0  0  0  0  0
  -24.0007   -7.4630   22.7471 H   0  0  0  0  0  0
  -21.0843   -8.8759   19.8957 H   0  0  0  0  0  0
  -22.3685  -10.9668   19.6175 H   0  0  0  0  0  0
  -21.2000   -7.6146   23.9711 H   0  0  0  0  0  0
  -21.1488   -6.0525   25.9079 H   0  0  0  0  0  0
  -22.0597   -2.7601   23.2857 H   0  0  0  0  0  0
  -22.4096  -11.9872   22.4790 H   0  0  0  0  0  0
  -21.1107  -13.1241   22.2638 H   0  0  0  0  0  0
  -24.6602  -15.8468   20.5178 H   0  0  0  0  0  0
  -26.2732  -15.6270   20.0695 H   0  0  0  0  0  0
  -26.7201  -32.5409   23.1097 H   0  0  0  0  0  0
  -25.0075  -33.9710   25.0410 H   0  0  0  0  0  0
  -22.7207  -31.3000   21.3951 H   0  0  0  0  0  0
  -23.3754  -35.9610   23.3303 H   0  0  0  0  0  0
  -24.3581  -36.8900   22.2054 H   0  0  0  0  0  0
  -23.7255  -37.6485   23.6663 H   0  0  0  0  0  0
  -26.1061  -31.5380   20.6092 H   0  0  0  0  0  0
  -26.8441  -30.8222   22.0109 H   0  0  0  0  0  0
  -28.1124  -28.9460   21.2029 H   0  0  0  0  0  0
  -25.9510  -25.9166   18.9976 H   0  0  0  0  0  0
  -23.9737  -27.2966   19.0129 H   0  0  0  0  0  0
  -23.7617  -30.5823   19.4009 H   0  0  0  0  0  0
  -22.7587  -29.2390   19.8596 H   0  0  0  0  0  0
  -25.1311  -36.1908   25.0822 H   0  0  0  0  0  0
  -20.9990  -28.3285   24.1423 H   0  0  0  0  0  0
  -20.5661  -26.2317   23.3654 H   0  0  0  0  0  0
  -21.6674  -26.7435   22.1275 H   0  0  0  0  0  0
  -19.7027  -25.6287   21.1255 H   0  0  0  0  0  0
  -19.6788  -27.3178   20.6759 H   0  0  0  0  0  0
  -17.4254  -26.6631   21.4001 H   0  0  0  0  0  0
  -18.0362  -26.0054   22.9006 H   0  0  0  0  0  0
  -19.7953  -30.7278   24.2252 H   0  0  0  0  0  0
  -17.5044  -31.6277   24.5133 H   0  0  0  0  0  0
  -15.5377  -30.2977   23.7680 H   0  0  0  0  0  0
  -15.8703  -28.0801   22.7068 H   0  0  0  0  0  0
  -24.5906  -30.7081   25.7780 H   0  0  0  0  0  0
  -24.8907  -32.2895   26.4894 H   0  0  0  0  0  0
  -25.8050  -30.8907   27.0239 H   0  0  0  0  0  0
  -26.2933  -29.6775   24.1235 H   0  0  0  0  0  0
  -27.4022  -29.7285   25.4738 H   0  0  0  0  0  0
  -27.8809  -30.4303   23.9467 H   0  0  0  0  0  0
  -27.2691  -33.3638   26.2087 H   0  0  0  0  0  0
  -28.3874  -32.6900   25.0337 H   0  0  0  0  0  0
  -28.0735  -31.8465   26.5423 H   0  0  0  0  0  0
  -28.2604  -38.0089   24.7501 H   0  0  0  0  0  0
  -28.1072  -36.2623   24.6307 H   0  0  0  0  0  0
  -27.2291  -37.1458   25.8868 H   0  0  0  0  0  0
  -20.9385  -29.8779   21.6902 H   0  0  0  0  0  0
  -26.0173  -38.2837   24.1394 H   0  0  0  0  0  0
  -27.3885  -18.4913   19.4014 H   0  0  0  0  0  0
  -25.8673  -20.2663   18.7611 H   0  0  0  0  0  0
  -29.9330  -21.4129   21.3185 H   0  0  0  0  0  0
  -23.7582  -23.1455   20.1430 H   0  0  0  0  0  0
  -24.8176  -22.4536   21.3646 H   0  0  0  0  0  0
  -24.2067  -21.4465   20.0533 H   0  0  0  0  0  0
  -28.7292  -18.9681   23.0050 H   0  0  0  0  0  0
  -29.4102  -17.3542   22.8893 H   0  0  0  0  0  0
  -27.8584  -17.7128   22.1303 H   0  0  0  0  0  0
  -25.5425  -22.8366   18.3992 H   0  0  0  0  0  0
  -26.0358  -23.8479   19.7280 H   0  0  0  0  0  0
  -29.3027  -23.8355   21.3723 H   0  0  0  0  0  0
  -27.5912  -23.9931   21.5127 H   0  0  0  0  0  0
  -30.8561  -17.3525   19.6599 H   0  0  0  0  0  0
  -29.1845  -17.2014   19.3024 H   0  0  0  0  0  0
  -27.7073  -24.8481   18.9206 H   0  0  0  0  0  0
  -29.3606  -24.9294   19.2225 H   0  0  0  0  0  0
  -30.5446  -18.9068   21.3544 H   0  0  0  0  0  0
  -28.8943  -15.5643   21.0868 H   0  0  0  0  0  0
  1 25  1  0  0  0
  1 30  2  0  0  0
  1 84  1  0  0  0
  2  3  1  0  0  0
  2 25  1  0  0  0
  2 85  1  0  0  0
  2 86  1  0  0  0
  3  4  1  0  0  0
  3 87  1  0  0  0
  3 88  1  0  0  0
  4  5  1  0  0  0
  4 89  1  0  0  0
  4 90  1  0  0  0
  5  6  1  0  0  0
  5 26  1  0  0  0
  5 91  1  0  0  0
  6 25  1  0  0  0
  6 92  1  0  0  0
  6 93  1  0  0  0
  7  8  2  0  0  0
  7 26  1  0  0  0
  7 29  1  0  0  0
  8  9  1  0  0  0
  8 22  1  0  0  0
  9 10  1  0  0  0
  9 27  2  0  0  0
 10 11  2  0  0  0
 10 15  1  0  0  0
 11 12  1  0  0  0
 11 94  1  0  0  0
 12 13  2  0  0  0
 12 95  1  0  0  0
 13 14  1  0  0  0
 13 31  1  0  0  0
 14 15  2  0  0  0
 14 96  1  0  0  0
 15 97  1  0  0  0
 16 17  2  0  0  0
 16 21  1  0  0  0
 16 31  1  0  0  0
 17 18  1  0  0  0
 17 98  1  0  0  0
 18 19  2  0  0  0
 18 99  1  0  0  0
 19 20  1  0  0  0
 19 24  1  0  0  0
 20 21  2  0  0  0
 20100  1  0  0  0
 21 23  1  0  0  0
 22 28  1  0  0  0
 22 32  2  0  0  0
 26 27  1  0  0  0
 28101  1  0  0  0
 28102  1  0  0  0
 29103  1  0  0  0
 29104  1  0  0  0
 33 34  1  0  0  0
 33 66  1  0  0  0
 33 70  2  0  0  0
 34 36  1  0  0  0
 34 59  1  0  0  0
 34105  1  0  0  0
 35 44  2  0  0  0
 35 45  1  0  0  0
 35 68  1  0  0  0
 36 56  1  0  0  0
 36106  1  0  0  0
 37 39  1  0  0  0
 37 47  1  0  0  0
 37 66  1  0  0  0
 37107  1  0  0  0
 38 43  2  0  0  0
 38 46  1  0  0  0
 38 47  1  0  0  0
 39 64  1  0  0  0
 39 67  2  0  0  0
 40 52  1  0  0  0
 40 53  2  0  0  0
 40 58  1  0  0  0
 41108  1  0  0  0
 41109  1  0  0  0
 41110  1  0  0  0
 41 48  1  0  0  0
 42 43  1  0  0  0
 42 66  1  0  0  0
 42111  1  0  0  0
 42112  1  0  0  0
 43 44  1  0  0  0
 44113  1  0  0  0
 45 46  2  0  0  0
 45114  1  0  0  0
 46115  1  0  0  0
 47116  1  0  0  0
 47117  1  0  0  0
 48 56  1  0  0  0
 48 65  1  0  0  0
 48118  1  0  0  0
 49 50  1  0  0  0
 49 53  1  0  0  0
 49 64  1  0  0  0
 49119  1  0  0  0
 50 51  1  0  0  0
 50120  1  0  0  0
 50121  1  0  0  0
 51 52  1  0  0  0
 51122  1  0  0  0
 51123  1  0  0  0
 52124  1  0  0  0
 52125  1  0  0  0
 53 54  1  0  0  0
 54 55  2  0  0  0
 54126  1  0  0  0
 55 57  1  0  0  0
 55127  1  0  0  0
 56 69  2  0  0  0
 57 58  2  0  0  0
 57128  1  0  0  0
 58129  1  0  0  0
 59 60  1  0  0  0
 59 61  1  0  0  0
 59 62  1  0  0  0
 60130  1  0  0  0
 60131  1  0  0  0
 60132  1  0  0  0
 61133  1  0  0  0
 61134  1  0  0  0
 61135  1  0  0  0
 62136  1  0  0  0
 62137  1  0  0  0
 62138  1  0  0  0
 63 65  1  0  0  0
 63139  1  0  0  0
 63140  1  0  0  0
 63141  1  0  0  0
 64142  1  0  0  0
 65143  1  0  0  0
 68 82  1  0  0  0
 71 72  2  0  0  0
 71 74  1  0  0  0
 71144  1  0  0  0
 72 75  1  0  0  0
 72145  1  0  0  0
 73 74  2  0  0  0
 73 76  1  0  0  0
 73146  1  0  0  0
 74 83  1  0  0  0
 75 76  2  0  0  0
 75 79  1  0  0  0
 76 80  1  0  0  0
 77 79  1  0  0  0
 77147  1  0  0  0
 77148  1  0  0  0
 77149  1  0  0  0
 78150  1  0  0  0
 78151  1  0  0  0
 78152  1  0  0  0
 78 83  1  0  0  0
 79153  1  0  0  0
 79154  1  0  0  0
 80 82  1  0  0  0
 80155  1  0  0  0
 80156  1  0  0  0
 81 83  1  0  0  0
 81 84  1  0  0  0
 81157  1  0  0  0
 81158  1  0  0  0
 82159  1  0  0  0
 82160  1  0  0  0
 83161  1  0  0  0
 84162  1  0  0  0
M  ISO  4   1 100  68 101  82 101  84 100
M  END
> <chiral flag>
0

> <version>
0

> <s_m_source_file>
/data/baiqing/PycharmProjects/Reinvent-master-3.2/result/LINK_invent/BTK/process_docking_weight1_custom_sum_contain_oxygen_bond_distance_aromatic_linkinvent_7_9_3/rearranged_h_0092.sdf

> <i_m_source_file_index>
43

> <r_mmod_Potential_Energy-OPLS-2005>
129.709548950195

> <r_mmod_Stretch_Energy-OPLS-2005>
118.680419921875

> <r_mmod_Bend_Energy-OPLS-2005>
172.284790039062

> <r_mmod_Torsional_Energy-OPLS-2005>
232.780960083008

> <r_mmod_Improper_Torsional_Energy-OPLS-2005>
8.69833278656006

> <r_mmod_Van_der_Waal_Energy-OPLS-2005>
139.104217529297

> <r_mmod_Electrostatic_Energy-OPLS-2005>
-408.281341552734

> <r_mmod_Solvation_Energy-OPLS-2005>
-202.556991577148

> <b_mmod_Minimization_Converged-OPLS-2005>
0

> <r_mmod_RMS_Derivative-OPLS-2005>
1.2664555311203

$$$$
45
                    3D
 Structure written by MMmdl.
163171  0  0  1  0            999 V2000
  -30.6738  -14.5942   20.3980 C   0  0  0  0  0  0
  -30.4230  -12.3388   19.4415 C   0  0  0  0  0  0
  -29.4835  -12.3968   18.2159 C   0  0  0  0  0  0
  -28.0104  -12.2914   18.6441 C   0  0  0  0  0  0
  -27.6438  -13.2114   19.8394 C   0  0  2  0  0  0
  -28.6972  -13.1377   20.9661 C   0  0  0  0  0  0
  -25.2567  -13.8176   20.5695 C   0  0  0  0  0  0
  -24.1829  -13.0464   20.9221 C   0  0  0  0  0  0
  -24.6377  -11.6926   20.8778 C   0  0  0  0  0  0
  -23.9041  -10.4314   21.0440 C   0  0  0  0  0  0
  -24.3604   -9.4225   21.9206 C   0  0  0  0  0  0
  -23.6289   -8.2256   22.0766 C   0  0  0  0  0  0
  -22.4270   -8.0292   21.3561 C   0  0  0  0  0  0
  -21.9903   -9.0265   20.4665 C   0  0  0  0  0  0
  -22.7223  -10.2150   20.3082 C   0  0  0  0  0  0
  -21.6858   -6.0734   22.5272 C   0  0  0  0  0  0
  -21.4011   -6.5638   23.8205 C   0  0  0  0  0  0
  -21.3662   -5.6793   24.9172 C   0  0  0  0  0  0
  -21.6041   -4.3054   24.7220 C   0  0  0  0  0  0
  -21.8824   -3.8148   23.4339 C   0  0  0  0  0  0
  -21.9199   -4.6964   22.3395 C   0  0  0  0  0  0
  -22.7856  -13.5266   21.1865 C   0  0  0  0  0  0
  -22.1674   -4.2153   21.0973 F   0  0  0  0  0  0
  -21.5637   -3.4535   25.7731 F   0  0  0  0  0  0
  -30.0068  -13.4061   20.3645 N   0  0  0  0  0  0
  -26.2967  -12.9346   20.3300 N   0  0  0  0  0  0
  -25.9300  -11.6516   20.5814 N   0  0  0  0  0  0
  -22.0494  -12.8262   22.0410 N   0  0  0  0  0  0
  -25.4317  -15.1882   20.4054 N   0  0  0  0  0  0
  -31.9020  -14.6419   20.2945 O   0  0  0  0  0  0
  -21.6649   -6.8879   21.4238 O   0  0  0  0  0  0
  -22.3547  -14.5566   20.6698 O   0  0  0  0  0  0
  -24.6172  -31.8666   23.2083 C   0  0  0  0  0  0
  -25.9053  -32.4824   23.8379 C   0  0  1  0  0  0
  -27.2198  -27.3883   20.0941 C   0  0  0  0  0  0
  -25.5900  -33.8623   24.2294 N   0  0  0  0  0  0
  -23.4056  -30.4893   21.5520 C   0  0  2  0  0  0
  -24.8476  -28.9533   20.1125 C   0  0  0  0  0  0
  -22.7426  -29.4644   22.5004 C   0  0  0  0  0  0
  -18.0267  -28.1399   22.8498 C   0  0  0  0  0  0
  -24.1488  -36.7325   23.2634 C   0  0  0  0  0  0
  -25.9385  -30.8156   21.3681 C   0  0  0  0  0  0
  -26.0102  -29.4455   20.7168 C   0  0  0  0  0  0
  -27.1950  -28.6675   20.7109 C   0  0  0  0  0  0
  -26.0353  -26.9256   19.4772 C   0  0  0  0  0  0
  -24.8574  -27.6945   19.4896 C   0  0  0  0  0  0
  -23.6131  -29.8254   20.1647 C   0  0  0  0  0  0
  -25.4114  -36.3113   24.0317 C   0  0  1  0  0  0
  -20.5859  -28.3674   23.1339 C   0  0  2  0  0  0
  -20.6769  -26.9414   22.5437 C   0  0  0  0  0  0
  -19.5742  -26.6395   21.5241 C   0  0  0  0  0  0
  -18.1913  -26.7939   22.1635 C   0  0  0  0  0  0
  -19.1520  -28.8853   23.2910 C   0  0  0  0  0  0
  -18.9444  -30.1462   23.8914 C   0  0  0  0  0  0
  -17.6445  -30.6596   24.0576 C   0  0  0  0  0  0
  -25.9042  -34.9483   23.5103 C   0  0  0  0  0  0
  -16.5336  -29.9100   23.6337 C   0  0  0  0  0  0
  -16.7261  -28.6529   23.0343 C   0  0  0  0  0  0
  -26.4452  -31.6632   25.0735 C   0  0  0  0  0  0
  -25.3682  -31.3785   26.1466 C   0  0  0  0  0  0
  -27.0278  -30.3066   24.6141 C   0  0  0  0  0  0
  -27.6017  -32.4367   25.7501 C   0  0  0  0  0  0
  -27.5583  -37.1814   24.8453 C   0  0  0  0  0  0
  -21.4151  -29.3034   22.3753 N   0  0  0  0  0  0
  -26.4296  -37.3802   23.9396 N   0  0  0  0  0  0
  -24.6725  -31.0720   22.1009 N   0  0  0  0  0  0
  -23.4197  -28.8186   23.3050 O   0  0  0  0  0  0
  -28.3797  -26.6256   20.1349 O   0  0  0  0  0  0
  -26.5618  -34.8933   22.4674 O   0  0  0  0  0  0
  -23.5355  -32.1445   23.7452 O   0  0  0  0  0  0
  -29.3170  -20.7267   20.1700 C   0  0  0  0  0  0
  -28.7792  -19.4785   20.3844 C   0  0  0  0  0  0
  -27.5955  -19.6999   21.1556 C   0  0  0  0  0  0
  -27.4684  -21.0573   21.3704 C   0  0  0  0  0  0
  -26.6429  -18.6247   21.6164 C   0  0  0  0  0  0
  -26.4093  -21.8169   22.1133 C   0  0  0  0  0  0
  -30.3124  -15.9201   18.4419 C   0  0  0  0  0  0
  -29.3071  -18.1678   19.7716 C   0  0  0  0  0  0
  -27.8907  -24.0737   19.8865 C   0  0  0  0  0  0
  -28.8345  -23.1663   20.7384 C   0  0  0  0  0  0
  -29.4916  -16.8419   20.6231 C   0  0  0  0  0  0
  -28.4961  -25.4177   19.3420 C   0  0  0  0  0  0
  -28.5275  -21.7120   20.7495 N   0  0  0  0  0  0
  -29.9730  -15.6394   19.8534 N   0  0  0  0  0  0
  -31.4610  -12.4501   19.1236 H   0  0  0  0  0  0
  -30.3571  -11.3687   19.9374 H   0  0  0  0  0  0
  -29.7240  -11.5836   17.5298 H   0  0  0  0  0  0
  -29.6235  -13.3077   17.6419 H   0  0  0  0  0  0
  -27.8373  -11.2496   18.9194 H   0  0  0  0  0  0
  -27.3531  -12.4902   17.7961 H   0  0  0  0  0  0
  -27.6417  -14.2284   19.4483 H   0  0  0  0  0  0
  -28.6963  -12.1593   21.4476 H   0  0  0  0  0  0
  -28.4758  -13.8721   21.7429 H   0  0  0  0  0  0
  -25.2756   -9.5705   22.4775 H   0  0  0  0  0  0
  -24.0021   -7.4638   22.7459 H   0  0  0  0  0  0
  -21.0853   -8.8767   19.8942 H   0  0  0  0  0  0
  -22.3692  -10.9689   19.6191 H   0  0  0  0  0  0
  -21.1994   -7.6146   23.9705 H   0  0  0  0  0  0
  -21.1486   -6.0527   25.9074 H   0  0  0  0  0  0
  -22.0600   -2.7609   23.2830 H   0  0  0  0  0  0
  -22.4106  -11.9917   22.4775 H   0  0  0  0  0  0
  -21.1104  -13.1287   22.2595 H   0  0  0  0  0  0
  -24.6670  -15.8463   20.5066 H   0  0  0  0  0  0
  -26.2867  -15.6140   20.0708 H   0  0  0  0  0  0
  -26.7124  -32.5509   23.1138 H   0  0  0  0  0  0
  -25.0028  -33.9798   25.0419 H   0  0  0  0  0  0
  -22.6955  -31.3074   21.4145 H   0  0  0  0  0  0
  -23.3748  -35.9664   23.3301 H   0  0  0  0  0  0
  -24.3575  -36.8949   22.2050 H   0  0  0  0  0  0
  -23.7246  -37.6526   23.6663 H   0  0  0  0  0  0
  -26.0507  -31.5767   20.5951 H   0  0  0  0  0  0
  -26.8279  -30.8745   21.9839 H   0  0  0  0  0  0
  -28.0895  -29.0387   21.1906 H   0  0  0  0  0  0
  -25.9910  -25.9631   18.9916 H   0  0  0  0  0  0
  -23.9637  -27.3135   19.0158 H   0  0  0  0  0  0
  -23.7262  -30.6033   19.4091 H   0  0  0  0  0  0
  -22.7345  -29.2522   19.8643 H   0  0  0  0  0  0
  -25.1297  -36.1973   25.0810 H   0  0  0  0  0  0
  -20.9938  -28.3237   24.1466 H   0  0  0  0  0  0
  -20.5720  -26.2268   23.3616 H   0  0  0  0  0  0
  -21.6626  -26.7490   22.1189 H   0  0  0  0  0  0
  -19.6904  -25.6316   21.1254 H   0  0  0  0  0  0
  -19.6676  -27.3219   20.6785 H   0  0  0  0  0  0
  -17.4187  -26.6702   21.4034 H   0  0  0  0  0  0
  -18.0293  -26.0090   22.9038 H   0  0  0  0  0  0
  -19.7920  -30.7285   24.2278 H   0  0  0  0  0  0
  -17.4999  -31.6273   24.5187 H   0  0  0  0  0  0
  -15.5339  -30.3006   23.7663 H   0  0  0  0  0  0
  -15.8656  -28.0865   22.7032 H   0  0  0  0  0  0
  -24.5823  -30.7171   25.7799 H   0  0  0  0  0  0
  -24.8900  -32.2970   26.4897 H   0  0  0  0  0  0
  -25.7985  -30.8951   27.0243 H   0  0  0  0  0  0
  -26.2842  -29.6864   24.1121 H   0  0  0  0  0  0
  -27.3951  -29.7281   25.4629 H   0  0  0  0  0  0
  -27.8720  -30.4381   23.9362 H   0  0  0  0  0  0
  -27.2615  -33.3653   26.2103 H   0  0  0  0  0  0
  -28.3812  -32.6964   25.0323 H   0  0  0  0  0  0
  -28.0701  -31.8483   26.5402 H   0  0  0  0  0  0
  -28.2594  -38.0120   24.7518 H   0  0  0  0  0  0
  -28.1081  -36.2651   24.6255 H   0  0  0  0  0  0
  -27.2298  -37.1439   25.8854 H   0  0  0  0  0  0
  -20.9325  -29.8747   21.6958 H   0  0  0  0  0  0
  -26.0182  -38.2877   24.1406 H   0  0  0  0  0  0
  -30.2029  -21.0109   19.6170 H   0  0  0  0  0  0
  -25.6771  -19.0342   21.9114 H   0  0  0  0  0  0
  -27.0622  -18.0868   22.4674 H   0  0  0  0  0  0
  -26.4656  -17.9078   20.8142 H   0  0  0  0  0  0
  -25.8893  -21.1771   22.8261 H   0  0  0  0  0  0
  -25.6653  -22.2211   21.4266 H   0  0  0  0  0  0
  -26.8299  -22.6459   22.6813 H   0  0  0  0  0  0
  -31.0743  -16.6952   18.3603 H   0  0  0  0  0  0
  -29.4341  -16.2100   17.8664 H   0  0  0  0  0  0
  -30.7480  -15.0652   17.9258 H   0  0  0  0  0  0
  -30.2654  -18.4400   19.3309 H   0  0  0  0  0  0
  -28.6263  -17.9678   18.9444 H   0  0  0  0  0  0
  -26.9606  -24.2625   20.4210 H   0  0  0  0  0  0
  -27.6048  -23.4914   19.0103 H   0  0  0  0  0  0
  -28.8566  -23.5254   21.7670 H   0  0  0  0  0  0
  -29.8553  -23.2754   20.3712 H   0  0  0  0  0  0
  -30.1824  -17.0408   21.4448 H   0  0  0  0  0  0
  -28.5444  -16.5686   21.0871 H   0  0  0  0  0  0
  -28.0893  -25.6149   18.3490 H   0  0  0  0  0  0
  -29.5598  -25.2687   19.1539 H   0  0  0  0  0  0
  1 25  1  0  0  0
  1 30  2  0  0  0
  1 84  1  0  0  0
  2  3  1  0  0  0
  2 25  1  0  0  0
  2 85  1  0  0  0
  2 86  1  0  0  0
  3  4  1  0  0  0
  3 87  1  0  0  0
  3 88  1  0  0  0
  4  5  1  0  0  0
  4 89  1  0  0  0
  4 90  1  0  0  0
  5  6  1  0  0  0
  5 26  1  0  0  0
  5 91  1  0  0  0
  6 25  1  0  0  0
  6 92  1  0  0  0
  6 93  1  0  0  0
  7  8  2  0  0  0
  7 26  1  0  0  0
  7 29  1  0  0  0
  8  9  1  0  0  0
  8 22  1  0  0  0
  9 10  1  0  0  0
  9 27  2  0  0  0
 10 11  2  0  0  0
 10 15  1  0  0  0
 11 12  1  0  0  0
 11 94  1  0  0  0
 12 13  2  0  0  0
 12 95  1  0  0  0
 13 14  1  0  0  0
 13 31  1  0  0  0
 14 15  2  0  0  0
 14 96  1  0  0  0
 15 97  1  0  0  0
 16 17  2  0  0  0
 16 21  1  0  0  0
 16 31  1  0  0  0
 17 18  1  0  0  0
 17 98  1  0  0  0
 18 19  2  0  0  0
 18 99  1  0  0  0
 19 20  1  0  0  0
 19 24  1  0  0  0
 20 21  2  0  0  0
 20100  1  0  0  0
 21 23  1  0  0  0
 22 28  1  0  0  0
 22 32  2  0  0  0
 26 27  1  0  0  0
 28101  1  0  0  0
 28102  1  0  0  0
 29103  1  0  0  0
 29104  1  0  0  0
 33 34  1  0  0  0
 33 66  1  0  0  0
 33 70  2  0  0  0
 34 36  1  0  0  0
 34 59  1  0  0  0
 34105  1  0  0  0
 35 44  2  0  0  0
 35 45  1  0  0  0
 35 68  1  0  0  0
 36 56  1  0  0  0
 36106  1  0  0  0
 37 39  1  0  0  0
 37 47  1  0  0  0
 37 66  1  0  0  0
 37107  1  0  0  0
 38 43  2  0  0  0
 38 46  1  0  0  0
 38 47  1  0  0  0
 39 64  1  0  0  0
 39 67  2  0  0  0
 40 52  1  0  0  0
 40 53  2  0  0  0
 40 58  1  0  0  0
 41108  1  0  0  0
 41109  1  0  0  0
 41110  1  0  0  0
 41 48  1  0  0  0
 42 43  1  0  0  0
 42 66  1  0  0  0
 42111  1  0  0  0
 42112  1  0  0  0
 43 44  1  0  0  0
 44113  1  0  0  0
 45 46  2  0  0  0
 45114  1  0  0  0
 46115  1  0  0  0
 47116  1  0  0  0
 47117  1  0  0  0
 48 56  1  0  0  0
 48 65  1  0  0  0
 48118  1  0  0  0
 49 50  1  0  0  0
 49 53  1  0  0  0
 49 64  1  0  0  0
 49119  1  0  0  0
 50 51  1  0  0  0
 50120  1  0  0  0
 50121  1  0  0  0
 51 52  1  0  0  0
 51122  1  0  0  0
 51123  1  0  0  0
 52124  1  0  0  0
 52125  1  0  0  0
 53 54  1  0  0  0
 54 55  2  0  0  0
 54126  1  0  0  0
 55 57  1  0  0  0
 55127  1  0  0  0
 56 69  2  0  0  0
 57 58  2  0  0  0
 57128  1  0  0  0
 58129  1  0  0  0
 59 60  1  0  0  0
 59 61  1  0  0  0
 59 62  1  0  0  0
 60130  1  0  0  0
 60131  1  0  0  0
 60132  1  0  0  0
 61133  1  0  0  0
 61134  1  0  0  0
 61135  1  0  0  0
 62136  1  0  0  0
 62137  1  0  0  0
 62138  1  0  0  0
 63 65  1  0  0  0
 63139  1  0  0  0
 63140  1  0  0  0
 63141  1  0  0  0
 64142  1  0  0  0
 65143  1  0  0  0
 68 82  1  0  0  0
 71 72  2  0  0  0
 71 83  1  0  0  0
 71144  1  0  0  0
 72 73  1  0  0  0
 72 78  1  0  0  0
 73 74  2  0  0  0
 73 75  1  0  0  0
 74 76  1  0  0  0
 74 83  1  0  0  0
 75145  1  0  0  0
 75146  1  0  0  0
 75147  1  0  0  0
 76148  1  0  0  0
 76149  1  0  0  0
 76150  1  0  0  0
 77 84  1  0  0  0
 77151  1  0  0  0
 77152  1  0  0  0
 77153  1  0  0  0
 78 81  1  0  0  0
 78154  1  0  0  0
 78155  1  0  0  0
 79 80  1  0  0  0
 79 82  1  0  0  0
 79156  1  0  0  0
 79157  1  0  0  0
 80 83  1  0  0  0
 80158  1  0  0  0
 80159  1  0  0  0
 81 84  1  0  0  0
 81160  1  0  0  0
 81161  1  0  0  0
 82162  1  0  0  0
 82163  1  0  0  0
M  ISO  4   1 100  68 101  82 101  84 100
M  END
> <chiral flag>
0

> <version>
0

> <s_m_source_file>
/data/baiqing/PycharmProjects/Reinvent-master-3.2/result/LINK_invent/BTK/process_docking_weight1_custom_sum_contain_oxygen_bond_distance_aromatic_linkinvent_7_9_3/rearranged_h_0092.sdf

> <i_m_source_file_index>
44

> <r_mmod_Potential_Energy-OPLS-2005>
162.667892456055

> <r_mmod_Stretch_Energy-OPLS-2005>
53.8904991149902

> <r_mmod_Bend_Energy-OPLS-2005>
134.42919921875

> <r_mmod_Torsional_Energy-OPLS-2005>
317.931640625

> <r_mmod_Improper_Torsional_Energy-OPLS-2005>
28.4113082885742

> <r_mmod_Van_der_Waal_Energy-OPLS-2005>
128.529251098633

> <r_mmod_Electrostatic_Energy-OPLS-2005>
-348.056945800781

> <r_mmod_Solvation_Energy-OPLS-2005>
-198.781616210938

> <b_mmod_Minimization_Converged-OPLS-2005>
0

> <r_mmod_RMS_Derivative-OPLS-2005>
1.82040023803711

$$$$
46
                    3D
 Structure written by MMmdl.
170178  0  0  1  0            999 V2000
  -30.5588  -14.7873   20.5262 C   0  0  0  0  0  0
  -30.4432  -12.4992   19.4929 C   0  0  0  0  0  0
  -29.5188  -12.5328   18.2529 C   0  0  0  0  0  0
  -28.0426  -12.3384   18.6514 C   0  0  0  0  0  0
  -27.6456  -13.2198   19.8630 C   0  0  2  0  0  0
  -28.6785  -13.1171   21.0008 C   0  0  0  0  0  0
  -25.2531  -13.8060   20.5601 C   0  0  0  0  0  0
  -24.1835  -13.0387   20.9082 C   0  0  0  0  0  0
  -24.6409  -11.6831   20.8709 C   0  0  0  0  0  0
  -23.9082  -10.4238   21.0395 C   0  0  0  0  0  0
  -24.3629   -9.4151   21.9175 C   0  0  0  0  0  0
  -23.6276   -8.2220   22.0757 C   0  0  0  0  0  0
  -22.4254   -8.0275   21.3538 C   0  0  0  0  0  0
  -21.9911   -9.0254   20.4639 C   0  0  0  0  0  0
  -22.7262  -10.2104   20.3035 C   0  0  0  0  0  0
  -21.6865   -6.0726   22.5260 C   0  0  0  0  0  0
  -21.4021   -6.5638   23.8178 C   0  0  0  0  0  0
  -21.3660   -5.6804   24.9152 C   0  0  0  0  0  0
  -21.6034   -4.3065   24.7206 C   0  0  0  0  0  0
  -21.8832   -3.8149   23.4339 C   0  0  0  0  0  0
  -21.9179   -4.6959   22.3383 C   0  0  0  0  0  0
  -22.7846  -13.5169   21.1729 C   0  0  0  0  0  0
  -22.1663   -4.2138   21.0969 F   0  0  0  0  0  0
  -21.5611   -3.4548   25.7723 F   0  0  0  0  0  0
  -29.9669  -13.5392   20.4413 N   0  0  0  0  0  0
  -26.2974  -12.9295   20.3288 N   0  0  0  0  0  0
  -25.9348  -11.6438   20.5790 N   0  0  0  0  0  0
  -22.0558  -12.8178   22.0329 N   0  0  0  0  0  0
  -25.4254  -15.1769   20.3937 N   0  0  0  0  0  0
  -31.7083  -14.9192   20.0882 O   0  0  0  0  0  0
  -21.6628   -6.8878   21.4222 O   0  0  0  0  0  0
  -22.3533  -14.5493   20.6602 O   0  0  0  0  0  0
  -24.6326  -31.8571   23.2076 C   0  0  0  0  0  0
  -25.9196  -32.4748   23.8282 C   0  0  1  0  0  0
  -27.1748  -27.2916   20.0589 C   0  0  0  0  0  0
  -25.6038  -33.8560   24.2212 N   0  0  0  0  0  0
  -23.4059  -30.5011   21.5693 C   0  0  2  0  0  0
  -24.8245  -28.9587   20.0914 C   0  0  0  0  0  0
  -22.7354  -29.4643   22.5003 C   0  0  0  0  0  0
  -18.0218  -28.1258   22.8427 C   0  0  0  0  0  0
  -24.1540  -36.7328   23.2609 C   0  0  0  0  0  0
  -25.9544  -30.7724   21.3678 C   0  0  0  0  0  0
  -26.0105  -29.4125   20.6815 C   0  0  0  0  0  0
  -27.1878  -28.5991   20.6427 C   0  0  0  0  0  0
  -25.9544  -26.8702   19.4832 C   0  0  0  0  0  0
  -24.8064  -27.6930   19.4796 C   0  0  0  0  0  0
  -23.5959  -29.8657   20.1729 C   0  0  0  0  0  0
  -25.4162  -36.3062   24.0261 C   0  0  1  0  0  0
  -20.5821  -28.3647   23.1249 C   0  0  2  0  0  0
  -20.6814  -26.9382   22.5397 C   0  0  0  0  0  0
  -19.5826  -26.6310   21.5170 C   0  0  0  0  0  0
  -18.1943  -26.7784   22.1533 C   0  0  0  0  0  0
  -19.1463  -28.8749   23.2824 C   0  0  0  0  0  0
  -18.9426  -30.1346   23.8850 C   0  0  0  0  0  0
  -17.6457  -30.6510   24.0522 C   0  0  0  0  0  0
  -25.9110  -34.9435   23.5025 C   0  0  0  0  0  0
  -16.5342  -29.9027   23.6281 C   0  0  0  0  0  0
  -16.7212  -28.6424   23.0307 C   0  0  0  0  0  0
  -26.4529  -31.6526   25.0662 C   0  0  0  0  0  0
  -25.3738  -31.3664   26.1392 C   0  0  0  0  0  0
  -27.0371  -30.2938   24.6140 C   0  0  0  0  0  0
  -27.6090  -32.4260   25.7452 C   0  0  0  0  0  0
  -27.5582  -37.1806   24.8426 C   0  0  0  0  0  0
  -21.4069  -29.3038   22.3682 N   0  0  0  0  0  0
  -26.4310  -37.3776   23.9360 N   0  0  0  0  0  0
  -24.6884  -31.0511   22.1095 N   0  0  0  0  0  0
  -23.4032  -28.8112   23.3053 O   0  0  0  0  0  0
  -28.3138  -26.4638   20.0986 O   0  0  0  0  0  0
  -26.5651  -34.8916   22.4579 O   0  0  0  0  0  0
  -23.5521  -32.1467   23.7449 O   0  0  0  0  0  0
  -29.2570  -19.8777   20.0179 C   0  0  0  0  0  0
  -28.3065  -20.9638   20.1041 C   0  0  0  0  0  0
  -27.0037  -20.5954   20.5700 C   0  0  0  0  0  0
  -28.9359  -18.5110   20.3511 C   0  0  0  0  0  0
  -26.7506  -19.2166   20.8455 C   0  0  0  0  0  0
  -25.1357  -18.8231   22.7964 C   0  0  0  0  0  0
  -23.6657  -22.5297   19.7581 C   0  0  0  0  0  0
  -29.3428  -16.0766   22.2439 C   0  0  0  0  0  0
  -28.6682  -22.4013   19.5269 C   0  0  0  0  0  0
  -25.8591  -21.6088   20.7743 C   0  0  0  0  0  0
  -25.3675  -18.7251   21.2810 C   0  0  0  0  0  0
  -29.9379  -17.2786   20.1541 C   0  0  0  0  0  0
  -25.0677  -21.9383   19.5015 C   0  0  0  0  0  0
  -28.4829  -23.7915   20.3220 C   0  0  0  0  0  0
  -28.3998  -25.1306   19.4417 C   0  0  0  0  0  0
  -27.6758  -18.2291   20.7419 N   0  0  0  0  0  0
  -29.7827  -15.9131   20.8472 N   0  0  0  0  0  0
  -31.4751  -12.6628   19.1792 H   0  0  0  0  0  0
  -30.4371  -11.5148   19.9611 H   0  0  0  0  0  0
  -29.8154  -11.7704   17.5302 H   0  0  0  0  0  0
  -29.6284  -13.4942   17.7481 H   0  0  0  0  0  0
  -27.8942  -11.2861   18.8946 H   0  0  0  0  0  0
  -27.3911  -12.5532   17.8024 H   0  0  0  0  0  0
  -27.6506  -14.2502   19.5072 H   0  0  0  0  0  0
  -28.7367  -12.0964   21.3807 H   0  0  0  0  0  0
  -28.3763  -13.7250   21.8500 H   0  0  0  0  0  0
  -25.2787   -9.5602   22.4741 H   0  0  0  0  0  0
  -23.9958   -7.4606   22.7487 H   0  0  0  0  0  0
  -21.0850   -8.8811   19.8930 H   0  0  0  0  0  0
  -22.3773  -10.9659   19.6141 H   0  0  0  0  0  0
  -21.2070   -7.6150   23.9681 H   0  0  0  0  0  0
  -21.1461   -6.0538   25.9044 H   0  0  0  0  0  0
  -22.0620   -2.7609   23.2843 H   0  0  0  0  0  0
  -22.4267  -11.9843   22.4653 H   0  0  0  0  0  0
  -21.1184  -13.1173   22.2593 H   0  0  0  0  0  0
  -24.6647  -15.8300   20.5233 H   0  0  0  0  0  0
  -26.3022  -15.6232   20.1580 H   0  0  0  0  0  0
  -26.7205  -32.5362   23.0933 H   0  0  0  0  0  0
  -25.0266  -33.9747   25.0417 H   0  0  0  0  0  0
  -22.7087  -31.3377   21.4714 H   0  0  0  0  0  0
  -23.3767  -35.9695   23.3305 H   0  0  0  0  0  0
  -24.3625  -36.8987   22.2023 H   0  0  0  0  0  0
  -23.7395  -37.6569   23.6680 H   0  0  0  0  0  0
  -26.0790  -31.5416   20.6058 H   0  0  0  0  0  0
  -26.8358  -30.8008   21.9942 H   0  0  0  0  0  0
  -28.1069  -28.9530   21.0861 H   0  0  0  0  0  0
  -25.8232  -25.8816   19.0689 H   0  0  0  0  0  0
  -23.8940  -27.3253   19.0273 H   0  0  0  0  0  0
  -23.6984  -30.6898   19.4636 H   0  0  0  0  0  0
  -22.6830  -29.3514   19.8671 H   0  0  0  0  0  0
  -25.1357  -36.1883   25.0751 H   0  0  0  0  0  0
  -20.9831  -28.3297   24.1398 H   0  0  0  0  0  0
  -20.5788  -26.2240   23.3582 H   0  0  0  0  0  0
  -21.6694  -26.7507   22.1179 H   0  0  0  0  0  0
  -19.7122  -25.6226   21.1205 H   0  0  0  0  0  0
  -19.6817  -27.3121   20.6698 H   0  0  0  0  0  0
  -17.4257  -26.6426   21.3905 H   0  0  0  0  0  0
  -18.0402  -25.9841   22.8863 H   0  0  0  0  0  0
  -19.7976  -30.7075   24.2196 H   0  0  0  0  0  0
  -17.5111  -31.6201   24.5113 H   0  0  0  0  0  0
  -15.5389  -30.2981   23.7660 H   0  0  0  0  0  0
  -15.8555  -28.0820   22.7025 H   0  0  0  0  0  0
  -24.5952  -30.6952   25.7732 H   0  0  0  0  0  0
  -24.8850  -32.2822   26.4742 H   0  0  0  0  0  0
  -25.8028  -30.8900   27.0212 H   0  0  0  0  0  0
  -26.2940  -29.6652   24.1213 H   0  0  0  0  0  0
  -27.4151  -29.7223   25.4633 H   0  0  0  0  0  0
  -27.8756  -30.4243   23.9281 H   0  0  0  0  0  0
  -27.2704  -33.3598   26.1957 H   0  0  0  0  0  0
  -28.3905  -32.6750   25.0248 H   0  0  0  0  0  0
  -28.0708  -31.8389   26.5418 H   0  0  0  0  0  0
  -28.2529  -38.0153   24.7484 H   0  0  0  0  0  0
  -28.1121  -36.2667   24.6233 H   0  0  0  0  0  0
  -27.2258  -37.1442   25.8810 H   0  0  0  0  0  0
  -20.9186  -29.8715   21.6902 H   0  0  0  0  0  0
  -26.0162  -38.2829   24.1421 H   0  0  0  0  0  0
  -30.2520  -20.0941   19.6507 H   0  0  0  0  0  0
  -24.1295  -18.4941   23.0641 H   0  0  0  0  0  0
  -25.2567  -19.8403   23.1634 H   0  0  0  0  0  0
  -25.8470  -18.1978   23.3329 H   0  0  0  0  0  0
  -23.1480  -22.7012   18.8134 H   0  0  0  0  0  0
  -23.6967  -23.4800   20.2988 H   0  0  0  0  0  0
  -23.0429  -21.8435   20.3334 H   0  0  0  0  0  0
  -28.2558  -16.0304   22.3190 H   0  0  0  0  0  0
  -29.6495  -17.0433   22.6490 H   0  0  0  0  0  0
  -29.7532  -15.3221   22.9141 H   0  0  0  0  0  0
  -28.1492  -22.4795   18.5658 H   0  0  0  0  0  0
  -29.7181  -22.3573   19.2375 H   0  0  0  0  0  0
  -26.1657  -22.5032   21.2958 H   0  0  0  0  0  0
  -25.1483  -21.2188   21.4943 H   0  0  0  0  0  0
  -25.2683  -17.6803   20.9991 H   0  0  0  0  0  0
  -24.5700  -19.2350   20.7362 H   0  0  0  0  0  0
  -30.9418  -17.6503   20.3622 H   0  0  0  0  0  0
  -29.9318  -17.0800   19.0815 H   0  0  0  0  0  0
  -25.6414  -22.5998   18.8561 H   0  0  0  0  0  0
  -24.9384  -21.0095   18.9473 H   0  0  0  0  0  0
  -29.2675  -23.8767   21.0793 H   0  0  0  0  0  0
  -27.5804  -23.7815   20.9082 H   0  0  0  0  0  0
  -27.6412  -24.9726   18.6767 H   0  0  0  0  0  0
  -29.3140  -25.1799   18.8464 H   0  0  0  0  0  0
  1 25  1  0  0  0
  1 30  2  0  0  0
  1 87  1  0  0  0
  2  3  1  0  0  0
  2 25  1  0  0  0
  2 88  1  0  0  0
  2 89  1  0  0  0
  3  4  1  0  0  0
  3 90  1  0  0  0
  3 91  1  0  0  0
  4  5  1  0  0  0
  4 92  1  0  0  0
  4 93  1  0  0  0
  5  6  1  0  0  0
  5 26  1  0  0  0
  5 94  1  0  0  0
  6 25  1  0  0  0
  6 95  1  0  0  0
  6 96  1  0  0  0
  7  8  2  0  0  0
  7 26  1  0  0  0
  7 29  1  0  0  0
  8  9  1  0  0  0
  8 22  1  0  0  0
  9 10  1  0  0  0
  9 27  2  0  0  0
 10 11  2  0  0  0
 10 15  1  0  0  0
 11 12  1  0  0  0
 11 97  1  0  0  0
 12 13  2  0  0  0
 12 98  1  0  0  0
 13 14  1  0  0  0
 13 31  1  0  0  0
 14 15  2  0  0  0
 14 99  1  0  0  0
 15100  1  0  0  0
 16 17  2  0  0  0
 16 21  1  0  0  0
 16 31  1  0  0  0
 17 18  1  0  0  0
 17101  1  0  0  0
 18 19  2  0  0  0
 18102  1  0  0  0
 19 20  1  0  0  0
 19 24  1  0  0  0
 20 21  2  0  0  0
 20103  1  0  0  0
 21 23  1  0  0  0
 22 28  1  0  0  0
 22 32  2  0  0  0
 26 27  1  0  0  0
 28104  1  0  0  0
 28105  1  0  0  0
 29106  1  0  0  0
 29107  1  0  0  0
 33 34  1  0  0  0
 33 66  1  0  0  0
 33 70  2  0  0  0
 34 36  1  0  0  0
 34 59  1  0  0  0
 34108  1  0  0  0
 35 44  2  0  0  0
 35 45  1  0  0  0
 35 68  1  0  0  0
 36 56  1  0  0  0
 36109  1  0  0  0
 37 39  1  0  0  0
 37 47  1  0  0  0
 37 66  1  0  0  0
 37110  1  0  0  0
 38 43  2  0  0  0
 38 46  1  0  0  0
 38 47  1  0  0  0
 39 64  1  0  0  0
 39 67  2  0  0  0
 40 52  1  0  0  0
 40 53  2  0  0  0
 40 58  1  0  0  0
 41111  1  0  0  0
 41112  1  0  0  0
 41113  1  0  0  0
 41 48  1  0  0  0
 42 43  1  0  0  0
 42 66  1  0  0  0
 42114  1  0  0  0
 42115  1  0  0  0
 43 44  1  0  0  0
 44116  1  0  0  0
 45 46  2  0  0  0
 45117  1  0  0  0
 46118  1  0  0  0
 47119  1  0  0  0
 47120  1  0  0  0
 48 56  1  0  0  0
 48 65  1  0  0  0
 48121  1  0  0  0
 49 50  1  0  0  0
 49 53  1  0  0  0
 49 64  1  0  0  0
 49122  1  0  0  0
 50 51  1  0  0  0
 50123  1  0  0  0
 50124  1  0  0  0
 51 52  1  0  0  0
 51125  1  0  0  0
 51126  1  0  0  0
 52127  1  0  0  0
 52128  1  0  0  0
 53 54  1  0  0  0
 54 55  2  0  0  0
 54129  1  0  0  0
 55 57  1  0  0  0
 55130  1  0  0  0
 56 69  2  0  0  0
 57 58  2  0  0  0
 57131  1  0  0  0
 58132  1  0  0  0
 59 60  1  0  0  0
 59 61  1  0  0  0
 59 62  1  0  0  0
 60133  1  0  0  0
 60134  1  0  0  0
 60135  1  0  0  0
 61136  1  0  0  0
 61137  1  0  0  0
 61138  1  0  0  0
 62139  1  0  0  0
 62140  1  0  0  0
 62141  1  0  0  0
 63 65  1  0  0  0
 63142  1  0  0  0
 63143  1  0  0  0
 63144  1  0  0  0
 64145  1  0  0  0
 65146  1  0  0  0
 68 85  1  0  0  0
 71 72  2  0  0  0
 71 74  1  0  0  0
 71147  1  0  0  0
 72 73  1  0  0  0
 72 79  1  0  0  0
 73 75  2  0  0  0
 73 80  1  0  0  0
 74 82  1  0  0  0
 74 86  2  0  0  0
 75 81  1  0  0  0
 75 86  1  0  0  0
 76 81  1  0  0  0
 76148  1  0  0  0
 76149  1  0  0  0
 76150  1  0  0  0
 77 83  1  0  0  0
 77151  1  0  0  0
 77152  1  0  0  0
 77153  1  0  0  0
 78 87  1  0  0  0
 78154  1  0  0  0
 78155  1  0  0  0
 78156  1  0  0  0
 79 84  1  0  0  0
 79157  1  0  0  0
 79158  1  0  0  0
 80 83  1  0  0  0
 80159  1  0  0  0
 80160  1  0  0  0
 81161  1  0  0  0
 81162  1  0  0  0
 82 87  1  0  0  0
 82163  1  0  0  0
 82164  1  0  0  0
 83165  1  0  0  0
 83166  1  0  0  0
 84 85  1  0  0  0
 84167  1  0  0  0
 84168  1  0  0  0
 85169  1  0  0  0
 85170  1  0  0  0
M  ISO  4   1 100  68 101  85 101  87 100
M  END
> <chiral flag>
0

> <version>
0

> <s_m_source_file>
/data/baiqing/PycharmProjects/Reinvent-master-3.2/result/LINK_invent/BTK/process_docking_weight1_custom_sum_contain_oxygen_bond_distance_aromatic_linkinvent_7_9_3/rearranged_h_0092.sdf

> <i_m_source_file_index>
45

> <r_mmod_Potential_Energy-OPLS-2005>
58.9141731262207

> <r_mmod_Stretch_Energy-OPLS-2005>
121.138763427734

> <r_mmod_Bend_Energy-OPLS-2005>
186.432434082031

> <r_mmod_Torsional_Energy-OPLS-2005>
251.827438354492

> <r_mmod_Improper_Torsional_Energy-OPLS-2005>
9.6494607925415

> <r_mmod_Van_der_Waal_Energy-OPLS-2005>
146.842620849609

> <r_mmod_Electrostatic_Energy-OPLS-2005>
-549.155639648438

> <r_mmod_Solvation_Energy-OPLS-2005>
-193.261764526367

> <b_mmod_Minimization_Converged-OPLS-2005>
0

> <r_mmod_RMS_Derivative-OPLS-2005>
8.73391437530518

$$$$
47
                    3D
 Structure written by MMmdl.
178186  0  0  1  0            999 V2000
  -30.7585  -14.4351   20.6351 C   0  0  0  0  0  0
  -30.4169  -12.3106   19.4141 C   0  0  0  0  0  0
  -29.4877  -12.4988   18.1995 C   0  0  0  0  0  0
  -28.0144  -12.3207   18.6132 C   0  0  0  0  0  0
  -27.6534  -13.1773   19.8512 C   0  0  2  0  0  0
  -28.6950  -12.9887   20.9813 C   0  0  0  0  0  0
  -25.2630  -13.8096   20.5609 C   0  0  0  0  0  0
  -24.1851  -13.0435   20.9151 C   0  0  0  0  0  0
  -24.6356  -11.6892   20.8724 C   0  0  0  0  0  0
  -23.9021  -10.4301   21.0396 C   0  0  0  0  0  0
  -24.3596   -9.4230   21.9172 C   0  0  0  0  0  0
  -23.6287   -8.2257   22.0754 C   0  0  0  0  0  0
  -22.4267   -8.0277   21.3538 C   0  0  0  0  0  0
  -21.9883   -9.0243   20.4637 C   0  0  0  0  0  0
  -22.7198  -10.2134   20.3042 C   0  0  0  0  0  0
  -21.6862   -6.0748   22.5286 C   0  0  0  0  0  0
  -21.4016   -6.5655   23.8215 C   0  0  0  0  0  0
  -21.3646   -5.6805   24.9171 C   0  0  0  0  0  0
  -21.6041   -4.3069   24.7216 C   0  0  0  0  0  0
  -21.8821   -3.8161   23.4343 C   0  0  0  0  0  0
  -21.9197   -4.6982   22.3408 C   0  0  0  0  0  0
  -22.7887  -13.5264   21.1826 C   0  0  0  0  0  0
  -22.1671   -4.2182   21.0983 F   0  0  0  0  0  0
  -21.5615   -3.4543   25.7718 F   0  0  0  0  0  0
  -30.0321  -13.2939   20.4413 N   0  0  0  0  0  0
  -26.2979  -12.9187   20.3224 N   0  0  0  0  0  0
  -25.9254  -11.6390   20.5703 N   0  0  0  0  0  0
  -22.0520  -12.8261   22.0373 N   0  0  0  0  0  0
  -25.4445  -15.1799   20.3992 N   0  0  0  0  0  0
  -31.8414  -14.6283   20.0740 O   0  0  0  0  0  0
  -21.6635   -6.8880   21.4242 O   0  0  0  0  0  0
  -22.3598  -14.5586   20.6700 O   0  0  0  0  0  0
  -24.6109  -31.8678   23.2104 C   0  0  0  0  0  0
  -25.9014  -32.4822   23.8373 C   0  0  1  0  0  0
  -27.2400  -27.4590   20.0661 C   0  0  0  0  0  0
  -25.5884  -33.8602   24.2307 N   0  0  0  0  0  0
  -23.3966  -30.4942   21.5535 C   0  0  2  0  0  0
  -24.8405  -28.9607   20.1168 C   0  0  0  0  0  0
  -22.7380  -29.4637   22.4980 C   0  0  0  0  0  0
  -18.0267  -28.1373   22.8496 C   0  0  0  0  0  0
  -24.1479  -36.7264   23.2657 C   0  0  0  0  0  0
  -25.9225  -30.8359   21.3628 C   0  0  0  0  0  0
  -25.9981  -29.4707   20.7138 C   0  0  0  0  0  0
  -27.1942  -28.7217   20.6952 C   0  0  0  0  0  0
  -26.0528  -26.9481   19.4845 C   0  0  0  0  0  0
  -24.8607  -27.6955   19.5071 C   0  0  0  0  0  0
  -23.6028  -29.8282   20.1686 C   0  0  0  0  0  0
  -25.4099  -36.3072   24.0351 C   0  0  1  0  0  0
  -20.5860  -28.3622   23.1312 C   0  0  2  0  0  0
  -20.6755  -26.9370   22.5380 C   0  0  0  0  0  0
  -19.5730  -26.6373   21.5193 C   0  0  0  0  0  0
  -18.1915  -26.7913   22.1620 C   0  0  0  0  0  0
  -19.1518  -28.8818   23.2914 C   0  0  0  0  0  0
  -18.9460  -30.1449   23.8900 C   0  0  0  0  0  0
  -17.6466  -30.6586   24.0578 C   0  0  0  0  0  0
  -25.9008  -34.9467   23.5107 C   0  0  0  0  0  0
  -16.5356  -29.9091   23.6364 C   0  0  0  0  0  0
  -16.7260  -28.6517   23.0344 C   0  0  0  0  0  0
  -26.4458  -31.6591   25.0689 C   0  0  0  0  0  0
  -25.3735  -31.3682   26.1428 C   0  0  0  0  0  0
  -27.0302  -30.3057   24.6031 C   0  0  0  0  0  0
  -27.6016  -32.4322   25.7466 C   0  0  0  0  0  0
  -27.5564  -37.1785   24.8501 C   0  0  0  0  0  0
  -21.4096  -29.3010   22.3730 N   0  0  0  0  0  0
  -26.4280  -37.3754   23.9439 N   0  0  0  0  0  0
  -24.6612  -31.0794   22.1025 N   0  0  0  0  0  0
  -23.4165  -28.8154   23.2976 O   0  0  0  0  0  0
  -28.4466  -26.7900   20.0341 O   0  0  0  0  0  0
  -26.5553  -34.8942   22.4668 O   0  0  0  0  0  0
  -23.5296  -32.1410   23.7524 O   0  0  0  0  0  0
  -29.7693  -18.1897   20.0812 C   0  0  0  0  0  0
  -29.6607  -19.5922   19.9530 C   0  0  0  0  0  0
  -29.2050  -17.5861   21.2243 C   0  0  0  0  0  0
  -28.9978  -20.2834   21.0052 C   0  0  0  0  0  0
  -29.6335  -22.5936   21.9133 C   0  0  0  0  0  0
  -31.2831  -15.9124   22.4978 C   0  0  0  0  0  0
  -32.5663  -22.7350   15.7302 C   0  0  0  0  0  0
  -30.2368  -20.2725   18.7147 C   0  0  0  0  0  0
  -28.7106  -21.7780   20.9956 C   0  0  0  0  0  0
  -29.0833  -16.0772   21.3599 C   0  0  0  0  0  0
  -31.6201  -20.8903   18.9918 C   0  0  0  0  0  0
  -30.2715  -24.1234   18.0533 C   0  0  0  0  0  0
  -30.0577  -25.2921   19.0307 C   0  0  0  0  0  0
  -32.4079  -21.3248   17.7348 C   0  0  0  0  0  0
  -31.7457  -23.7426   17.8284 C   0  0  0  0  0  0
  -28.5721  -25.6610   19.1745 C   0  0  0  0  0  0
  -28.6199  -18.3095   22.2055 N   0  0  0  0  0  0
  -28.5240  -19.6364   22.0979 N   0  0  0  0  0  0
  -30.3193  -15.3034   21.5747 N   0  0  0  0  0  0
  -31.8543  -22.5038   17.0091 N   0  3  1  0  0  0
  -31.4622  -12.3994   19.1112 H   0  0  0  0  0  0
  -30.3176  -11.3021   19.8195 H   0  0  0  0  0  0
  -29.7451  -11.7862   17.4157 H   0  0  0  0  0  0
  -29.6342  -13.4918   17.7724 H   0  0  0  0  0  0
  -27.8493  -11.2641   18.8304 H   0  0  0  0  0  0
  -27.3584  -12.5644   17.7766 H   0  0  0  0  0  0
  -27.6705  -14.2010   19.4895 H   0  0  0  0  0  0
  -28.6758  -11.9582   21.3397 H   0  0  0  0  0  0
  -28.4299  -13.5867   21.8518 H   0  0  0  0  0  0
  -25.2749   -9.5731   22.4730 H   0  0  0  0  0  0
  -24.0021   -7.4652   22.7466 H   0  0  0  0  0  0
  -21.0827   -8.8740   19.8924 H   0  0  0  0  0  0
  -22.3649  -10.9669   19.6143 H   0  0  0  0  0  0
  -21.2017   -7.6162   23.9734 H   0  0  0  0  0  0
  -21.1456   -6.0525   25.9077 H   0  0  0  0  0  0
  -22.0612   -2.7628   23.2825 H   0  0  0  0  0  0
  -22.4126  -11.9897   22.4722 H   0  0  0  0  0  0
  -21.1142  -13.1293   22.2585 H   0  0  0  0  0  0
  -24.6782  -15.8388   20.4791 H   0  0  0  0  0  0
  -26.2906  -15.6035   20.0444 H   0  0  0  0  0  0
  -26.7057  -32.5555   23.1107 H   0  0  0  0  0  0
  -25.0108  -33.9776   25.0505 H   0  0  0  0  0  0
  -22.6859  -31.3124   21.4167 H   0  0  0  0  0  0
  -23.3750  -35.9586   23.3326 H   0  0  0  0  0  0
  -24.3574  -36.8838   22.2067 H   0  0  0  0  0  0
  -23.7210  -37.6476   23.6635 H   0  0  0  0  0  0
  -26.0319  -31.6049   20.5952 H   0  0  0  0  0  0
  -26.8103  -30.8863   21.9794 H   0  0  0  0  0  0
  -28.0915  -29.1188   21.1483 H   0  0  0  0  0  0
  -26.0312  -25.9815   19.0034 H   0  0  0  0  0  0
  -23.9684  -27.2919   19.0508 H   0  0  0  0  0  0
  -23.7082  -30.6078   19.4132 H   0  0  0  0  0  0
  -22.7240  -29.2537   19.8704 H   0  0  0  0  0  0
  -25.1272  -36.1898   25.0833 H   0  0  0  0  0  0
  -21.0004  -28.3174   24.1403 H   0  0  0  0  0  0
  -20.5643  -26.2247   23.3558 H   0  0  0  0  0  0
  -21.6619  -26.7380   22.1188 H   0  0  0  0  0  0
  -19.6919  -25.6282   21.1232 H   0  0  0  0  0  0
  -19.6696  -27.3183   20.6732 H   0  0  0  0  0  0
  -17.4180  -26.6654   21.4033 H   0  0  0  0  0  0
  -18.0328  -26.0024   22.8992 H   0  0  0  0  0  0
  -19.7942  -30.7282   24.2214 H   0  0  0  0  0  0
  -17.5034  -31.6281   24.5152 H   0  0  0  0  0  0
  -15.5363  -30.3016   23.7681 H   0  0  0  0  0  0
  -15.8648  -28.0883   22.7010 H   0  0  0  0  0  0
  -24.5940  -30.6984   25.7770 H   0  0  0  0  0  0
  -24.8904  -32.2838   26.4852 H   0  0  0  0  0  0
  -25.8091  -30.8885   27.0204 H   0  0  0  0  0  0
  -26.2842  -29.6801   24.1114 H   0  0  0  0  0  0
  -27.4153  -29.7257   25.4426 H   0  0  0  0  0  0
  -27.8616  -30.4395   23.9104 H   0  0  0  0  0  0
  -27.2616  -33.3630   26.2014 H   0  0  0  0  0  0
  -28.3847  -32.6864   25.0312 H   0  0  0  0  0  0
  -28.0660  -31.8478   26.5416 H   0  0  0  0  0  0
  -28.2569  -38.0090   24.7507 H   0  0  0  0  0  0
  -28.1046  -36.2605   24.6333 H   0  0  0  0  0  0
  -27.2294  -37.1441   25.8912 H   0  0  0  0  0  0
  -20.9236  -29.8737   21.6977 H   0  0  0  0  0  0
  -26.0149  -38.2821   24.1456 H   0  0  0  0  0  0
  -30.2257  -17.5924   19.3033 H   0  0  0  0  0  0
  -29.3718  -23.6510   21.8733 H   0  0  0  0  0  0
  -30.6802  -22.5026   21.6286 H   0  0  0  0  0  0
  -29.5425  -22.2690   22.9505 H   0  0  0  0  0  0
  -30.7790  -16.3604   23.3549 H   0  0  0  0  0  0
  -31.8643  -16.6892   21.9984 H   0  0  0  0  0  0
  -31.9821  -15.1688   22.8858 H   0  0  0  0  0  0
  -32.5864  -21.8281   15.1266 H   0  0  0  0  0  0
  -33.5980  -23.0448   15.8961 H   0  0  0  0  0  0
  -32.0756  -23.5078   15.1376 H   0  0  0  0  0  0
  -29.5362  -21.0038   18.3154 H   0  0  0  0  0  0
  -30.3336  -19.5259   17.9250 H   0  0  0  0  0  0
  -27.6789  -21.9206   21.3180 H   0  0  0  0  0  0
  -28.7366  -22.1675   19.9850 H   0  0  0  0  0  0
  -28.6015  -15.7792   20.4347 H   0  0  0  0  0  0
  -28.3777  -15.8436   22.1575 H   0  0  0  0  0  0
  -32.2188  -20.1231   19.4858 H   0  0  0  0  0  0
  -31.5437  -21.7012   19.7151 H   0  0  0  0  0  0
  -29.8142  -24.3673   17.0941 H   0  0  0  0  0  0
  -29.7280  -23.2631   18.4244 H   0  0  0  0  0  0
  -30.6094  -26.1642   18.6795 H   0  0  0  0  0  0
  -30.4654  -25.0372   20.0099 H   0  0  0  0  0  0
  -32.4487  -20.4764   17.0512 H   0  0  0  0  0  0
  -33.4410  -21.5337   18.0133 H   0  0  0  0  0  0
  -32.2656  -23.6260   18.7803 H   0  0  0  0  0  0
  -32.2510  -24.5727   17.3327 H   0  0  0  0  0  0
  -28.0120  -24.8201   19.5855 H   0  0  0  0  0  0
  -28.1651  -25.8776   18.1851 H   0  0  0  0  0  0
  -30.9154  -22.2611   16.7327 H   0  0  0  0  0  0
  1 25  1  0  0  0
  1 30  2  0  0  0
  1 89  1  0  0  0
  2  3  1  0  0  0
  2 25  1  0  0  0
  2 91  1  0  0  0
  2 92  1  0  0  0
  3  4  1  0  0  0
  3 93  1  0  0  0
  3 94  1  0  0  0
  4  5  1  0  0  0
  4 95  1  0  0  0
  4 96  1  0  0  0
  5  6  1  0  0  0
  5 26  1  0  0  0
  5 97  1  0  0  0
  6 25  1  0  0  0
  6 98  1  0  0  0
  6 99  1  0  0  0
  7  8  2  0  0  0
  7 26  1  0  0  0
  7 29  1  0  0  0
  8  9  1  0  0  0
  8 22  1  0  0  0
  9 10  1  0  0  0
  9 27  2  0  0  0
 10 11  2  0  0  0
 10 15  1  0  0  0
 11 12  1  0  0  0
 11100  1  0  0  0
 12 13  2  0  0  0
 12101  1  0  0  0
 13 14  1  0  0  0
 13 31  1  0  0  0
 14 15  2  0  0  0
 14102  1  0  0  0
 15103  1  0  0  0
 16 17  2  0  0  0
 16 21  1  0  0  0
 16 31  1  0  0  0
 17 18  1  0  0  0
 17104  1  0  0  0
 18 19  2  0  0  0
 18105  1  0  0  0
 19 20  1  0  0  0
 19 24  1  0  0  0
 20 21  2  0  0  0
 20106  1  0  0  0
 21 23  1  0  0  0
 22 28  1  0  0  0
 22 32  2  0  0  0
 26 27  1  0  0  0
 28107  1  0  0  0
 28108  1  0  0  0
 29109  1  0  0  0
 29110  1  0  0  0
 33 34  1  0  0  0
 33 66  1  0  0  0
 33 70  2  0  0  0
 34 36  1  0  0  0
 34 59  1  0  0  0
 34111  1  0  0  0
 35 44  2  0  0  0
 35 45  1  0  0  0
 35 68  1  0  0  0
 36 56  1  0  0  0
 36112  1  0  0  0
 37 39  1  0  0  0
 37 47  1  0  0  0
 37 66  1  0  0  0
 37113  1  0  0  0
 38 43  2  0  0  0
 38 46  1  0  0  0
 38 47  1  0  0  0
 39 64  1  0  0  0
 39 67  2  0  0  0
 40 52  1  0  0  0
 40 53  2  0  0  0
 40 58  1  0  0  0
 41114  1  0  0  0
 41115  1  0  0  0
 41116  1  0  0  0
 41 48  1  0  0  0
 42 43  1  0  0  0
 42 66  1  0  0  0
 42117  1  0  0  0
 42118  1  0  0  0
 43 44  1  0  0  0
 44119  1  0  0  0
 45 46  2  0  0  0
 45120  1  0  0  0
 46121  1  0  0  0
 47122  1  0  0  0
 47123  1  0  0  0
 48 56  1  0  0  0
 48 65  1  0  0  0
 48124  1  0  0  0
 49 50  1  0  0  0
 49 53  1  0  0  0
 49 64  1  0  0  0
 49125  1  0  0  0
 50 51  1  0  0  0
 50126  1  0  0  0
 50127  1  0  0  0
 51 52  1  0  0  0
 51128  1  0  0  0
 51129  1  0  0  0
 52130  1  0  0  0
 52131  1  0  0  0
 53 54  1  0  0  0
 54 55  2  0  0  0
 54132  1  0  0  0
 55 57  1  0  0  0
 55133  1  0  0  0
 56 69  2  0  0  0
 57 58  2  0  0  0
 57134  1  0  0  0
 58135  1  0  0  0
 59 60  1  0  0  0
 59 61  1  0  0  0
 59 62  1  0  0  0
 60136  1  0  0  0
 60137  1  0  0  0
 60138  1  0  0  0
 61139  1  0  0  0
 61140  1  0  0  0
 61141  1  0  0  0
 62142  1  0  0  0
 62143  1  0  0  0
 62144  1  0  0  0
 63 65  1  0  0  0
 63145  1  0  0  0
 63146  1  0  0  0
 63147  1  0  0  0
 64148  1  0  0  0
 65149  1  0  0  0
 68 86  1  0  0  0
 71 72  2  0  0  0
 71 73  1  0  0  0
 71150  1  0  0  0
 72 74  1  0  0  0
 72 78  1  0  0  0
 73 80  1  0  0  0
 73 87  2  0  0  0
 74 79  1  0  0  0
 74 88  2  0  0  0
 75 79  1  0  0  0
 75151  1  0  0  0
 75152  1  0  0  0
 75153  1  0  0  0
 76 89  1  0  0  0
 76154  1  0  0  0
 76155  1  0  0  0
 76156  1  0  0  0
 77157  1  0  0  0
 77158  1  0  0  0
 77159  1  0  0  0
 77 90  1  0  0  0
 78 81  1  0  0  0
 78160  1  0  0  0
 78161  1  0  0  0
 79162  1  0  0  0
 79163  1  0  0  0
 80 89  1  0  0  0
 80164  1  0  0  0
 80165  1  0  0  0
 81 84  1  0  0  0
 81166  1  0  0  0
 81167  1  0  0  0
 82 83  1  0  0  0
 82 85  1  0  0  0
 82168  1  0  0  0
 82169  1  0  0  0
 83 86  1  0  0  0
 83170  1  0  0  0
 83171  1  0  0  0
 84 90  1  0  0  0
 84172  1  0  0  0
 84173  1  0  0  0
 85 90  1  0  0  0
 85174  1  0  0  0
 85175  1  0  0  0
 86176  1  0  0  0
 86177  1  0  0  0
 87 88  1  0  0  0
 90178  1  0  0  0
M  CHG  1  90   1
M  ISO  4   1 100  68 101  86 101  89 100
M  END
> <chiral flag>
0

> <version>
0

> <s_m_source_file>
/data/baiqing/PycharmProjects/Reinvent-master-3.2/result/LINK_invent/BTK/process_docking_weight1_custom_sum_contain_oxygen_bond_distance_aromatic_linkinvent_7_9_3/rearranged_h_0092.sdf

> <i_m_source_file_index>
46

> <r_mmod_Potential_Energy-OPLS-2005>
-73.6968460083008

> <r_mmod_Stretch_Energy-OPLS-2005>
37.2820930480957

> <r_mmod_Bend_Energy-OPLS-2005>
113.842277526855

> <r_mmod_Torsional_Energy-OPLS-2005>
266.306396484375

> <r_mmod_Improper_Torsional_Energy-OPLS-2005>
4.98198366165161

> <r_mmod_Van_der_Waal_Energy-OPLS-2005>
155.518829345703

> <r_mmod_Electrostatic_Energy-OPLS-2005>
-185.998764038086

> <r_mmod_Solvation_Energy-OPLS-2005>
-476.706451416016

> <b_mmod_Minimization_Converged-OPLS-2005>
0

> <r_mmod_RMS_Derivative-OPLS-2005>
3.41700744628906

$$$$
48
                    3D
 Structure written by MMmdl.
173181  0  0  1  0            999 V2000
  -30.6894  -14.5143   20.5864 C   0  0  0  0  0  0
  -30.4303  -12.3419   19.4271 C   0  0  0  0  0  0
  -29.4989  -12.5147   18.2095 C   0  0  0  0  0  0
  -28.0214  -12.3623   18.6209 C   0  0  0  0  0  0
  -27.6611  -13.2085   19.8712 C   0  0  2  0  0  0
  -28.7014  -13.0082   20.9952 C   0  0  0  0  0  0
  -25.2597  -13.8160   20.5649 C   0  0  0  0  0  0
  -24.1849  -13.0437   20.9160 C   0  0  0  0  0  0
  -24.6406  -11.6908   20.8722 C   0  0  0  0  0  0
  -23.9070  -10.4288   21.0391 C   0  0  0  0  0  0
  -24.3613   -9.4203   21.9169 C   0  0  0  0  0  0
  -23.6284   -8.2245   22.0743 C   0  0  0  0  0  0
  -22.4265   -8.0283   21.3539 C   0  0  0  0  0  0
  -21.9898   -9.0261   20.4644 C   0  0  0  0  0  0
  -22.7240  -10.2129   20.3045 C   0  0  0  0  0  0
  -21.6856   -6.0731   22.5275 C   0  0  0  0  0  0
  -21.4028   -6.5630   23.8211 C   0  0  0  0  0  0
  -21.3660   -5.6777   24.9167 C   0  0  0  0  0  0
  -21.6033   -4.3044   24.7221 C   0  0  0  0  0  0
  -21.8828   -3.8141   23.4345 C   0  0  0  0  0  0
  -21.9202   -4.6961   22.3402 C   0  0  0  0  0  0
  -22.7880  -13.5258   21.1837 C   0  0  0  0  0  0
  -22.1675   -4.2146   21.0980 F   0  0  0  0  0  0
  -21.5615   -3.4529   25.7734 F   0  0  0  0  0  0
  -30.0289  -13.3305   20.4427 N   0  0  0  0  0  0
  -26.3028  -12.9329   20.3333 N   0  0  0  0  0  0
  -25.9330  -11.6489   20.5736 N   0  0  0  0  0  0
  -22.0513  -12.8256   22.0386 N   0  0  0  0  0  0
  -25.4309  -15.1872   20.4050 N   0  0  0  0  0  0
  -31.8128  -14.7064   20.1140 O   0  0  0  0  0  0
  -21.6640   -6.8878   21.4237 O   0  0  0  0  0  0
  -22.3569  -14.5572   20.6692 O   0  0  0  0  0  0
  -24.6212  -31.8650   23.2077 C   0  0  0  0  0  0
  -25.9082  -32.4805   23.8382 C   0  0  1  0  0  0
  -27.2239  -27.3787   20.0931 C   0  0  0  0  0  0
  -25.5915  -33.8601   24.2317 N   0  0  0  0  0  0
  -23.4114  -30.4923   21.5501 C   0  0  2  0  0  0
  -24.8540  -28.9594   20.1103 C   0  0  0  0  0  0
  -22.7449  -29.4650   22.4954 C   0  0  0  0  0  0
  -18.0282  -28.1383   22.8481 C   0  0  0  0  0  0
  -24.1490  -36.7311   23.2633 C   0  0  0  0  0  0
  -25.9479  -30.8148   21.3688 C   0  0  0  0  0  0
  -26.0225  -29.4481   20.7091 C   0  0  0  0  0  0
  -27.2115  -28.6690   20.6916 C   0  0  0  0  0  0
  -26.0280  -26.9300   19.4804 C   0  0  0  0  0  0
  -24.8559  -27.7025   19.4912 C   0  0  0  0  0  0
  -23.6204  -29.8332   20.1633 C   0  0  0  0  0  0
  -25.4106  -36.3099   24.0337 C   0  0  1  0  0  0
  -20.5876  -28.3682   23.1291 C   0  0  2  0  0  0
  -20.6777  -26.9410   22.5403 C   0  0  0  0  0  0
  -19.5747  -26.6388   21.5207 C   0  0  0  0  0  0
  -18.1929  -26.7927   22.1625 C   0  0  0  0  0  0
  -19.1531  -28.8847   23.2885 C   0  0  0  0  0  0
  -18.9459  -30.1452   23.8904 C   0  0  0  0  0  0
  -17.6458  -30.6587   24.0563 C   0  0  0  0  0  0
  -25.9038  -34.9464   23.5124 C   0  0  0  0  0  0
  -16.5350  -29.9086   23.6322 C   0  0  0  0  0  0
  -16.7269  -28.6503   23.0337 C   0  0  0  0  0  0
  -26.4480  -31.6586   25.0720 C   0  0  0  0  0  0
  -25.3735  -31.3722   26.1466 C   0  0  0  0  0  0
  -27.0288  -30.3008   24.6124 C   0  0  0  0  0  0
  -27.6055  -32.4300   25.7485 C   0  0  0  0  0  0
  -27.5585  -37.1805   24.8457 C   0  0  0  0  0  0
  -21.4166  -29.3051   22.3699 N   0  0  0  0  0  0
  -26.4289  -37.3787   23.9413 N   0  0  0  0  0  0
  -24.6792  -31.0713   22.1004 N   0  0  0  0  0  0
  -23.4197  -28.8164   23.2993 O   0  0  0  0  0  0
  -28.3636  -26.5739   20.1231 O   0  0  0  0  0  0
  -26.5593  -34.8926   22.4684 O   0  0  0  0  0  0
  -23.5390  -32.1420   23.7442 O   0  0  0  0  0  0
  -29.1170  -17.4885   19.1980 C   0  0  0  0  0  0
  -28.7259  -18.4058   18.2038 C   0  0  0  0  0  0
  -29.0625  -19.7777   18.3829 C   0  0  0  0  0  0
  -29.8366  -17.9315   20.3172 C   0  0  0  0  0  0
  -29.7055  -20.1731   19.5891 C   0  0  0  0  0  0
  -29.5766  -21.6558   14.9986 C   0  0  0  0  0  0
  -26.4463  -17.9698   17.2098 C   0  0  0  0  0  0
  -28.3760  -16.4823   16.5191 C   0  0  0  0  0  0
  -28.7904  -20.7888   17.2653 C   0  0  0  0  0  0
  -30.1099  -21.6487   19.8606 C   0  0  0  0  0  0
  -30.4044  -16.9230   21.3374 C   0  0  0  0  0  0
  -29.9192  -20.7986   16.2200 C   0  0  0  0  0  0
  -28.9682  -22.6562   20.2383 C   0  0  0  0  0  0
  -29.3548  -24.1818   20.2270 C   0  0  0  0  0  0
  -28.1454  -25.1381   19.9884 C   0  0  0  0  0  0
  -27.9616  -17.8950   16.9723 C   0  0  0  0  0  0
  -30.0818  -19.2548   20.5248 N   0  0  0  0  0  0
  -29.9948  -15.5097   21.1728 N   0  0  0  0  0  0
  -31.4723  -12.4568   19.1237 H   0  0  0  0  0  0
  -30.3489  -11.3327   19.8341 H   0  0  0  0  0  0
  -29.7451  -11.7843   17.4380 H   0  0  0  0  0  0
  -29.6541  -13.4980   17.7618 H   0  0  0  0  0  0
  -27.8386  -11.3059   18.8229 H   0  0  0  0  0  0
  -27.3726  -12.6284   17.7859 H   0  0  0  0  0  0
  -27.6994  -14.2536   19.5636 H   0  0  0  0  0  0
  -28.6900  -11.9752   21.3460 H   0  0  0  0  0  0
  -28.4507  -13.6140   21.8668 H   0  0  0  0  0  0
  -25.2759   -9.5681   22.4746 H   0  0  0  0  0  0
  -23.9983   -7.4641   22.7474 H   0  0  0  0  0  0
  -21.0818   -8.8803   19.8961 H   0  0  0  0  0  0
  -22.3703  -10.9670   19.6162 H   0  0  0  0  0  0
  -21.2026   -7.6134   23.9715 H   0  0  0  0  0  0
  -21.1471   -6.0503   25.9066 H   0  0  0  0  0  0
  -22.0606   -2.7606   23.2847 H   0  0  0  0  0  0
  -22.4125  -11.9928   22.4798 H   0  0  0  0  0  0
  -21.1140  -13.1311   22.2585 H   0  0  0  0  0  0
  -24.6592  -15.8383   20.4984 H   0  0  0  0  0  0
  -26.2764  -15.6235   20.0601 H   0  0  0  0  0  0
  -26.7143  -32.5502   23.1132 H   0  0  0  0  0  0
  -25.0073  -33.9753   25.0469 H   0  0  0  0  0  0
  -22.7031  -31.3124   21.4137 H   0  0  0  0  0  0
  -23.3752  -35.9644   23.3282 H   0  0  0  0  0  0
  -24.3593  -36.8933   22.2050 H   0  0  0  0  0  0
  -23.7243  -37.6514   23.6651 H   0  0  0  0  0  0
  -26.0695  -31.5825   20.6032 H   0  0  0  0  0  0
  -26.8329  -30.8635   21.9916 H   0  0  0  0  0  0
  -28.1115  -29.0428   21.1595 H   0  0  0  0  0  0
  -25.9607  -25.9748   18.9833 H   0  0  0  0  0  0
  -23.9605  -27.3219   19.0184 H   0  0  0  0  0  0
  -23.7337  -30.6120   19.4082 H   0  0  0  0  0  0
  -22.7413  -29.2603   19.8618 H   0  0  0  0  0  0
  -25.1275  -36.1964   25.0828 H   0  0  0  0  0  0
  -20.9969  -28.3256   24.1411 H   0  0  0  0  0  0
  -20.5680  -26.2292   23.3597 H   0  0  0  0  0  0
  -21.6649  -26.7448   22.1199 H   0  0  0  0  0  0
  -19.6909  -25.6300   21.1233 H   0  0  0  0  0  0
  -19.6675  -27.3201   20.6737 H   0  0  0  0  0  0
  -17.4189  -26.6650   21.4039 H   0  0  0  0  0  0
  -18.0344  -26.0079   22.9034 H   0  0  0  0  0  0
  -19.7932  -30.7262   24.2282 H   0  0  0  0  0  0
  -17.5011  -31.6268   24.5161 H   0  0  0  0  0  0
  -15.5349  -30.2985   23.7648 H   0  0  0  0  0  0
  -15.8671  -28.0830   22.7039 H   0  0  0  0  0  0
  -24.5896  -30.7073   25.7815 H   0  0  0  0  0  0
  -24.8946  -32.2892   26.4911 H   0  0  0  0  0  0
  -25.8083  -30.8892   27.0230 H   0  0  0  0  0  0
  -26.2833  -29.6789   24.1150 H   0  0  0  0  0  0
  -27.3993  -29.7220   25.4598 H   0  0  0  0  0  0
  -27.8706  -30.4283   23.9313 H   0  0  0  0  0  0
  -27.2672  -33.3597   26.2080 H   0  0  0  0  0  0
  -28.3861  -32.6869   25.0308 H   0  0  0  0  0  0
  -28.0726  -31.8410   26.5390 H   0  0  0  0  0  0
  -28.2585  -38.0119   24.7526 H   0  0  0  0  0  0
  -28.1095  -36.2652   24.6246 H   0  0  0  0  0  0
  -27.2307  -37.1416   25.8860 H   0  0  0  0  0  0
  -20.9332  -29.8790   21.6933 H   0  0  0  0  0  0
  -26.0175  -38.2861   24.1428 H   0  0  0  0  0  0
  -28.9029  -16.4389   19.0844 H   0  0  0  0  0  0
  -30.3949  -21.6554   14.2776 H   0  0  0  0  0  0
  -29.3850  -22.6902   15.2846 H   0  0  0  0  0  0
  -28.6893  -21.2757   14.4912 H   0  0  0  0  0  0
  -26.1309  -18.9892   17.4322 H   0  0  0  0  0  0
  -26.1454  -17.3418   18.0489 H   0  0  0  0  0  0
  -25.8942  -17.6410   16.3295 H   0  0  0  0  0  0
  -29.4561  -16.4145   16.3875 H   0  0  0  0  0  0
  -27.9158  -16.2390   15.5615 H   0  0  0  0  0  0
  -28.0701  -15.7076   17.2223 H   0  0  0  0  0  0
  -28.6711  -21.7983   17.6449 H   0  0  0  0  0  0
  -27.8308  -20.5769   16.7960 H   0  0  0  0  0  0
  -30.6266  -22.0120   18.9727 H   0  0  0  0  0  0
  -30.8667  -21.6673   20.6453 H   0  0  0  0  0  0
  -30.0996  -17.2384   22.3351 H   0  0  0  0  0  0
  -31.4932  -16.9992   21.3255 H   0  0  0  0  0  0
  -30.8393  -21.1625   16.6780 H   0  0  0  0  0  0
  -30.1333  -19.7829   15.8848 H   0  0  0  0  0  0
  -28.5657  -22.3912   21.2164 H   0  0  0  0  0  0
  -28.1314  -22.5187   19.5563 H   0  0  0  0  0  0
  -30.0933  -24.3671   19.4460 H   0  0  0  0  0  0
  -29.8446  -24.4327   21.1685 H   0  0  0  0  0  0
  -27.3485  -24.8425   20.6739 H   0  0  0  0  0  0
  -27.7938  -24.9303   18.9776 H   0  0  0  0  0  0
  -28.1950  -18.5325   16.1223 H   0  0  0  0  0  0
  -29.0709  -15.2815   21.5049 H   0  0  0  0  0  0
  1 25  1  0  0  0
  1 30  2  0  0  0
  1 88  1  0  0  0
  2  3  1  0  0  0
  2 25  1  0  0  0
  2 89  1  0  0  0
  2 90  1  0  0  0
  3  4  1  0  0  0
  3 91  1  0  0  0
  3 92  1  0  0  0
  4  5  1  0  0  0
  4 93  1  0  0  0
  4 94  1  0  0  0
  5  6  1  0  0  0
  5 26  1  0  0  0
  5 95  1  0  0  0
  6 25  1  0  0  0
  6 96  1  0  0  0
  6 97  1  0  0  0
  7  8  2  0  0  0
  7 26  1  0  0  0
  7 29  1  0  0  0
  8  9  1  0  0  0
  8 22  1  0  0  0
  9 10  1  0  0  0
  9 27  2  0  0  0
 10 11  2  0  0  0
 10 15  1  0  0  0
 11 12  1  0  0  0
 11 98  1  0  0  0
 12 13  2  0  0  0
 12 99  1  0  0  0
 13 14  1  0  0  0
 13 31  1  0  0  0
 14 15  2  0  0  0
 14100  1  0  0  0
 15101  1  0  0  0
 16 17  2  0  0  0
 16 21  1  0  0  0
 16 31  1  0  0  0
 17 18  1  0  0  0
 17102  1  0  0  0
 18 19  2  0  0  0
 18103  1  0  0  0
 19 20  1  0  0  0
 19 24  1  0  0  0
 20 21  2  0  0  0
 20104  1  0  0  0
 21 23  1  0  0  0
 22 28  1  0  0  0
 22 32  2  0  0  0
 26 27  1  0  0  0
 28105  1  0  0  0
 28106  1  0  0  0
 29107  1  0  0  0
 29108  1  0  0  0
 33 34  1  0  0  0
 33 66  1  0  0  0
 33 70  2  0  0  0
 34 36  1  0  0  0
 34 59  1  0  0  0
 34109  1  0  0  0
 35 44  2  0  0  0
 35 45  1  0  0  0
 35 68  1  0  0  0
 36 56  1  0  0  0
 36110  1  0  0  0
 37 39  1  0  0  0
 37 47  1  0  0  0
 37 66  1  0  0  0
 37111  1  0  0  0
 38 43  2  0  0  0
 38 46  1  0  0  0
 38 47  1  0  0  0
 39 64  1  0  0  0
 39 67  2  0  0  0
 40 52  1  0  0  0
 40 53  2  0  0  0
 40 58  1  0  0  0
 41112  1  0  0  0
 41113  1  0  0  0
 41114  1  0  0  0
 41 48  1  0  0  0
 42 43  1  0  0  0
 42 66  1  0  0  0
 42115  1  0  0  0
 42116  1  0  0  0
 43 44  1  0  0  0
 44117  1  0  0  0
 45 46  2  0  0  0
 45118  1  0  0  0
 46119  1  0  0  0
 47120  1  0  0  0
 47121  1  0  0  0
 48 56  1  0  0  0
 48 65  1  0  0  0
 48122  1  0  0  0
 49 50  1  0  0  0
 49 53  1  0  0  0
 49 64  1  0  0  0
 49123  1  0  0  0
 50 51  1  0  0  0
 50124  1  0  0  0
 50125  1  0  0  0
 51 52  1  0  0  0
 51126  1  0  0  0
 51127  1  0  0  0
 52128  1  0  0  0
 52129  1  0  0  0
 53 54  1  0  0  0
 54 55  2  0  0  0
 54130  1  0  0  0
 55 57  1  0  0  0
 55131  1  0  0  0
 56 69  2  0  0  0
 57 58  2  0  0  0
 57132  1  0  0  0
 58133  1  0  0  0
 59 60  1  0  0  0
 59 61  1  0  0  0
 59 62  1  0  0  0
 60134  1  0  0  0
 60135  1  0  0  0
 60136  1  0  0  0
 61137  1  0  0  0
 61138  1  0  0  0
 61139  1  0  0  0
 62140  1  0  0  0
 62141  1  0  0  0
 62142  1  0  0  0
 63 65  1  0  0  0
 63143  1  0  0  0
 63144  1  0  0  0
 63145  1  0  0  0
 64146  1  0  0  0
 65147  1  0  0  0
 68 85  1  0  0  0
 71 72  2  0  0  0
 71 74  1  0  0  0
 71148  1  0  0  0
 72 73  1  0  0  0
 72 86  1  0  0  0
 73 75  2  0  0  0
 73 79  1  0  0  0
 74 81  1  0  0  0
 74 87  2  0  0  0
 75 80  1  0  0  0
 75 87  1  0  0  0
 76 82  1  0  0  0
 76149  1  0  0  0
 76150  1  0  0  0
 76151  1  0  0  0
 77152  1  0  0  0
 77153  1  0  0  0
 77154  1  0  0  0
 77 86  1  0  0  0
 78 86  1  0  0  0
 78155  1  0  0  0
 78156  1  0  0  0
 78157  1  0  0  0
 79 82  1  0  0  0
 79158  1  0  0  0
 79159  1  0  0  0
 80 83  1  0  0  0
 80160  1  0  0  0
 80161  1  0  0  0
 81 88  1  0  0  0
 81162  1  0  0  0
 81163  1  0  0  0
 82164  1  0  0  0
 82165  1  0  0  0
 83 84  1  0  0  0
 83166  1  0  0  0
 83167  1  0  0  0
 84 85  1  0  0  0
 84168  1  0  0  0
 84169  1  0  0  0
 85170  1  0  0  0
 85171  1  0  0  0
 86172  1  0  0  0
 88173  1  0  0  0
M  ISO  4   1 100  68 101  85 101  88 100
M  END
> <chiral flag>
0

> <version>
0

> <s_m_source_file>
/data/baiqing/PycharmProjects/Reinvent-master-3.2/result/LINK_invent/BTK/process_docking_weight1_custom_sum_contain_oxygen_bond_distance_aromatic_linkinvent_7_9_3/rearranged_h_0092.sdf

> <i_m_source_file_index>
47

> <r_mmod_Potential_Energy-OPLS-2005>
-345.325775146484

> <r_mmod_Stretch_Energy-OPLS-2005>
53.4885406494141

> <r_mmod_Bend_Energy-OPLS-2005>
108.661560058594

> <r_mmod_Torsional_Energy-OPLS-2005>
193.065628051758

> <r_mmod_Improper_Torsional_Energy-OPLS-2005>
3.09036564826965

> <r_mmod_Van_der_Waal_Energy-OPLS-2005>
154.068984985352

> <r_mmod_Electrostatic_Energy-OPLS-2005>
-663.9658203125

> <r_mmod_Solvation_Energy-OPLS-2005>
-215.428039550781

> <b_mmod_Minimization_Converged-OPLS-2005>
0

> <r_mmod_RMS_Derivative-OPLS-2005>
1.63568496704102

$$$$
49
                    3D
 Structure written by MMmdl.
166174  0  0  1  0            999 V2000
  -30.6564  -14.6836   20.4277 C   0  0  0  0  0  0
  -30.4197  -12.4133   19.4636 C   0  0  0  0  0  0
  -29.5014  -12.4928   18.2269 C   0  0  0  0  0  0
  -28.0285  -12.3316   18.6446 C   0  0  0  0  0  0
  -27.6404  -13.2331   19.8481 C   0  0  2  0  0  0
  -28.6894  -13.1708   20.9801 C   0  0  0  0  0  0
  -25.2509  -13.8205   20.5702 C   0  0  0  0  0  0
  -24.1797  -13.0441   20.9209 C   0  0  0  0  0  0
  -24.6398  -11.6925   20.8758 C   0  0  0  0  0  0
  -23.9073  -10.4290   21.0417 C   0  0  0  0  0  0
  -24.3621   -9.4195   21.9190 C   0  0  0  0  0  0
  -23.6286   -8.2236   22.0759 C   0  0  0  0  0  0
  -22.4277   -8.0281   21.3537 C   0  0  0  0  0  0
  -21.9911   -9.0257   20.4646 C   0  0  0  0  0  0
  -22.7247  -10.2132   20.3057 C   0  0  0  0  0  0
  -21.6853   -6.0730   22.5272 C   0  0  0  0  0  0
  -21.4022   -6.5637   23.8205 C   0  0  0  0  0  0
  -21.3655   -5.6791   24.9165 C   0  0  0  0  0  0
  -21.6041   -4.3055   24.7217 C   0  0  0  0  0  0
  -21.8821   -3.8144   23.4343 C   0  0  0  0  0  0
  -21.9195   -4.6958   22.3398 C   0  0  0  0  0  0
  -22.7819  -13.5222   21.1864 C   0  0  0  0  0  0
  -22.1662   -4.2148   21.0975 F   0  0  0  0  0  0
  -21.5621   -3.4541   25.7728 F   0  0  0  0  0  0
  -29.9921  -13.4853   20.3855 N   0  0  0  0  0  0
  -26.2935  -12.9409   20.3303 N   0  0  0  0  0  0
  -25.9333  -11.6548   20.5778 N   0  0  0  0  0  0
  -22.0471  -12.8202   22.0423 N   0  0  0  0  0  0
  -25.4199  -15.1916   20.4110 N   0  0  0  0  0  0
  -31.8668  -14.7206   20.2008 O   0  0  0  0  0  0
  -21.6641   -6.8879   21.4234 O   0  0  0  0  0  0
  -22.3498  -14.5520   20.6718 O   0  0  0  0  0  0
  -24.6303  -31.8571   23.2006 C   0  0  0  0  0  0
  -25.9155  -32.4755   23.8348 C   0  0  1  0  0  0
  -27.2143  -27.2860   20.1121 C   0  0  0  0  0  0
  -25.5967  -33.8563   24.2256 N   0  0  0  0  0  0
  -23.4252  -30.4766   21.5477 C   0  0  2  0  0  0
  -24.8670  -28.9270   20.1078 C   0  0  0  0  0  0
  -22.7523  -29.4558   22.4967 C   0  0  0  0  0  0
  -18.0284  -28.1352   22.8446 C   0  0  0  0  0  0
  -24.1514  -36.7284   23.2637 C   0  0  0  0  0  0
  -25.9679  -30.7748   21.3768 C   0  0  0  0  0  0
  -26.0378  -29.3992   20.7143 C   0  0  0  0  0  0
  -27.2147  -28.5907   20.7044 C   0  0  0  0  0  0
  -26.0233  -26.8695   19.4821 C   0  0  0  0  0  0
  -24.8631  -27.6697   19.4816 C   0  0  0  0  0  0
  -23.6416  -29.8181   20.1604 C   0  0  0  0  0  0
  -25.4137  -36.3067   24.0323 C   0  0  1  0  0  0
  -20.5886  -28.3650   23.1272 C   0  0  2  0  0  0
  -20.6795  -26.9383   22.5400 C   0  0  0  0  0  0
  -19.5784  -26.6347   21.5193 C   0  0  0  0  0  0
  -18.1935  -26.7891   22.1577 C   0  0  0  0  0  0
  -19.1538  -28.8824   23.2841 C   0  0  0  0  0  0
  -18.9455  -30.1426   23.8859 C   0  0  0  0  0  0
  -17.6458  -30.6561   24.0535 C   0  0  0  0  0  0
  -25.9075  -34.9433   23.5084 C   0  0  0  0  0  0
  -16.5350  -29.9049   23.6317 C   0  0  0  0  0  0
  -16.7267  -28.6476   23.0316 C   0  0  0  0  0  0
  -26.4519  -31.6586   25.0732 C   0  0  0  0  0  0
  -25.3745  -31.3710   26.1454 C   0  0  0  0  0  0
  -27.0362  -30.3027   24.6179 C   0  0  0  0  0  0
  -27.6080  -32.4318   25.7500 C   0  0  0  0  0  0
  -27.5595  -37.1800   24.8450 C   0  0  0  0  0  0
  -21.4231  -29.3000   22.3716 N   0  0  0  0  0  0
  -26.4297  -37.3774   23.9404 N   0  0  0  0  0  0
  -24.6946  -31.0525   22.0983 N   0  0  0  0  0  0
  -23.4249  -28.8100   23.3044 O   0  0  0  0  0  0
  -28.3245  -26.4189   20.1744 O   0  0  0  0  0  0
  -26.5633  -34.8911   22.4649 O   0  0  0  0  0  0
  -23.5466  -32.1406   23.7301 O   0  0  0  0  0  0
  -27.8207  -19.9418   19.7089 C   0  0  0  0  0  0
  -28.1993  -18.5754   19.8423 C   0  0  0  0  0  0
  -28.8848  -20.7529   20.0032 C   0  0  0  0  0  0
  -29.5087  -18.5036   20.2265 C   0  0  0  0  0  0
  -30.9376  -17.2415   18.6356 C   0  0  0  0  0  0
  -31.0803  -21.7113   21.7846 C   0  0  0  0  0  0
  -32.3698  -20.1195   20.3577 C   0  0  0  0  0  0
  -31.2928  -19.4270   22.5621 C   0  0  0  0  0  0
  -28.9747  -22.2805   19.6079 C   0  0  0  0  0  0
  -28.4024  -23.4876   20.4974 C   0  0  0  0  0  0
  -28.2101  -24.9633   19.8339 C   0  0  0  0  0  0
  -30.4425  -17.2437   20.1008 C   0  0  2  0  0  0
  -31.1300  -20.2598   21.2612 C   0  0  0  0  0  0
  -29.8797  -19.8618   20.5450 N   0  0  0  0  0  0
  -29.9233  -15.8555   20.4452 N   0  0  0  0  0  0
  -31.4657  -12.5073   19.1660 H   0  0  0  0  0  0
  -30.3317  -11.4393   19.9494 H   0  0  0  0  0  0
  -29.7721  -11.7211   17.5048 H   0  0  0  0  0  0
  -29.6403  -13.4493   17.7209 H   0  0  0  0  0  0
  -27.8806  -11.2837   18.9091 H   0  0  0  0  0  0
  -27.3701  -12.5258   17.7981 H   0  0  0  0  0  0
  -27.6349  -14.2535   19.4650 H   0  0  0  0  0  0
  -28.7120  -12.1828   21.4432 H   0  0  0  0  0  0
  -28.4475  -13.8807   21.7725 H   0  0  0  0  0  0
  -25.2764   -9.5675   22.4764 H   0  0  0  0  0  0
  -23.9995   -7.4634   22.7487 H   0  0  0  0  0  0
  -21.0840   -8.8773   19.8960 H   0  0  0  0  0  0
  -22.3703  -10.9667   19.6167 H   0  0  0  0  0  0
  -21.2026   -7.6151   23.9706 H   0  0  0  0  0  0
  -21.1471   -6.0525   25.9068 H   0  0  0  0  0  0
  -22.0609   -2.7609   23.2840 H   0  0  0  0  0  0
  -22.4100  -11.9855   22.4777 H   0  0  0  0  0  0
  -21.1099  -13.1223   22.2660 H   0  0  0  0  0  0
  -24.6534  -15.8480   20.5140 H   0  0  0  0  0  0
  -26.2685  -15.6271   20.0760 H   0  0  0  0  0  0
  -26.7232  -32.5411   23.1103 H   0  0  0  0  0  0
  -25.0101  -33.9701   25.0394 H   0  0  0  0  0  0
  -22.7158  -31.2959   21.4109 H   0  0  0  0  0  0
  -23.3770  -35.9633   23.3269 H   0  0  0  0  0  0
  -24.3580  -36.8936   22.2055 H   0  0  0  0  0  0
  -23.7274  -37.6478   23.6682 H   0  0  0  0  0  0
  -26.1027  -31.5396   20.6112 H   0  0  0  0  0  0
  -26.8483  -30.8166   22.0093 H   0  0  0  0  0  0
  -28.1147  -28.9394   21.1921 H   0  0  0  0  0  0
  -25.9670  -25.9051   18.9959 H   0  0  0  0  0  0
  -23.9665  -27.3014   19.0009 H   0  0  0  0  0  0
  -23.7741  -30.6040   19.4148 H   0  0  0  0  0  0
  -22.7568  -29.2618   19.8469 H   0  0  0  0  0  0
  -25.1313  -36.1916   25.0816 H   0  0  0  0  0  0
  -20.9901  -28.3227   24.1415 H   0  0  0  0  0  0
  -20.5693  -26.2260   23.3605 H   0  0  0  0  0  0
  -21.6664  -26.7435   22.1189 H   0  0  0  0  0  0
  -19.6955  -25.6248   21.1229 H   0  0  0  0  0  0
  -19.6725  -27.3164   20.6740 H   0  0  0  0  0  0
  -17.4217  -26.6602   21.3970 H   0  0  0  0  0  0
  -18.0319  -26.0045   22.8984 H   0  0  0  0  0  0
  -19.7949  -30.7216   24.2220 H   0  0  0  0  0  0
  -17.5028  -31.6238   24.5130 H   0  0  0  0  0  0
  -15.5342  -30.2930   23.7679 H   0  0  0  0  0  0
  -15.8661  -28.0806   22.7013 H   0  0  0  0  0  0
  -24.5951  -30.7011   25.7771 H   0  0  0  0  0  0
  -24.8895  -32.2860   26.4868 H   0  0  0  0  0  0
  -25.8074  -30.8904   27.0237 H   0  0  0  0  0  0
  -26.2920  -29.6773   24.1242 H   0  0  0  0  0  0
  -27.4087  -29.7286   25.4661 H   0  0  0  0  0  0
  -27.8774  -30.4288   23.9373 H   0  0  0  0  0  0
  -27.2710  -33.3636   26.2050 H   0  0  0  0  0  0
  -28.3918  -32.6851   25.0346 H   0  0  0  0  0  0
  -28.0740  -31.8471   26.5440 H   0  0  0  0  0  0
  -28.2568  -38.0144   24.7527 H   0  0  0  0  0  0
  -28.1121  -36.2654   24.6223 H   0  0  0  0  0  0
  -27.2285  -37.1377   25.8846 H   0  0  0  0  0  0
  -20.9415  -29.8749   21.6938 H   0  0  0  0  0  0
  -26.0159  -38.2830   24.1454 H   0  0  0  0  0  0
  -26.8791  -20.2934   19.3068 H   0  0  0  0  0  0
  -27.5977  -17.7257   19.5491 H   0  0  0  0  0  0
  -31.3852  -18.2005   18.3741 H   0  0  0  0  0  0
  -30.1133  -17.0763   17.9423 H   0  0  0  0  0  0
  -31.6944  -16.4850   18.4331 H   0  0  0  0  0  0
  -31.9149  -21.9274   22.4525 H   0  0  0  0  0  0
  -30.1683  -21.8953   22.3551 H   0  0  0  0  0  0
  -31.1728  -22.4557   20.9992 H   0  0  0  0  0  0
  -33.2526  -20.5481   20.8356 H   0  0  0  0  0  0
  -32.2282  -20.6388   19.4101 H   0  0  0  0  0  0
  -32.6183  -19.0838   20.1394 H   0  0  0  0  0  0
  -32.0509  -19.8503   23.2242 H   0  0  0  0  0  0
  -31.5998  -18.3980   22.4181 H   0  0  0  0  0  0
  -30.3610  -19.4083   23.1290 H   0  0  0  0  0  0
  -28.4240  -22.3574   18.6693 H   0  0  0  0  0  0
  -29.9866  -22.5104   19.2759 H   0  0  0  0  0  0
  -29.0275  -23.5688   21.3859 H   0  0  0  0  0  0
  -27.4295  -23.1441   20.8590 H   0  0  0  0  0  0
  -29.2710  -25.0058   19.5881 H   0  0  0  0  0  0
  -27.8193  -25.1044   20.8420 H   0  0  0  0  0  0
  -31.3308  -17.3594   20.7075 H   0  0  0  0  0  0
  -28.9305  -15.7697   20.5942 H   0  0  0  0  0  0
  1 25  1  0  0  0
  1 30  2  0  0  0
  1 85  1  0  0  0
  2  3  1  0  0  0
  2 25  1  0  0  0
  2 86  1  0  0  0
  2 87  1  0  0  0
  3  4  1  0  0  0
  3 88  1  0  0  0
  3 89  1  0  0  0
  4  5  1  0  0  0
  4 90  1  0  0  0
  4 91  1  0  0  0
  5  6  1  0  0  0
  5 26  1  0  0  0
  5 92  1  0  0  0
  6 25  1  0  0  0
  6 93  1  0  0  0
  6 94  1  0  0  0
  7  8  2  0  0  0
  7 26  1  0  0  0
  7 29  1  0  0  0
  8  9  1  0  0  0
  8 22  1  0  0  0
  9 10  1  0  0  0
  9 27  2  0  0  0
 10 11  2  0  0  0
 10 15  1  0  0  0
 11 12  1  0  0  0
 11 95  1  0  0  0
 12 13  2  0  0  0
 12 96  1  0  0  0
 13 14  1  0  0  0
 13 31  1  0  0  0
 14 15  2  0  0  0
 14 97  1  0  0  0
 15 98  1  0  0  0
 16 17  2  0  0  0
 16 21  1  0  0  0
 16 31  1  0  0  0
 17 18  1  0  0  0
 17 99  1  0  0  0
 18 19  2  0  0  0
 18100  1  0  0  0
 19 20  1  0  0  0
 19 24  1  0  0  0
 20 21  2  0  0  0
 20101  1  0  0  0
 21 23  1  0  0  0
 22 28  1  0  0  0
 22 32  2  0  0  0
 26 27  1  0  0  0
 28102  1  0  0  0
 28103  1  0  0  0
 29104  1  0  0  0
 29105  1  0  0  0
 33 34  1  0  0  0
 33 66  1  0  0  0
 33 70  2  0  0  0
 34 36  1  0  0  0
 34 59  1  0  0  0
 34106  1  0  0  0
 35 44  2  0  0  0
 35 45  1  0  0  0
 35 68  1  0  0  0
 36 56  1  0  0  0
 36107  1  0  0  0
 37 39  1  0  0  0
 37 47  1  0  0  0
 37 66  1  0  0  0
 37108  1  0  0  0
 38 43  2  0  0  0
 38 46  1  0  0  0
 38 47  1  0  0  0
 39 64  1  0  0  0
 39 67  2  0  0  0
 40 52  1  0  0  0
 40 53  2  0  0  0
 40 58  1  0  0  0
 41109  1  0  0  0
 41110  1  0  0  0
 41111  1  0  0  0
 41 48  1  0  0  0
 42 43  1  0  0  0
 42 66  1  0  0  0
 42112  1  0  0  0
 42113  1  0  0  0
 43 44  1  0  0  0
 44114  1  0  0  0
 45 46  2  0  0  0
 45115  1  0  0  0
 46116  1  0  0  0
 47117  1  0  0  0
 47118  1  0  0  0
 48 56  1  0  0  0
 48 65  1  0  0  0
 48119  1  0  0  0
 49 50  1  0  0  0
 49 53  1  0  0  0
 49 64  1  0  0  0
 49120  1  0  0  0
 50 51  1  0  0  0
 50121  1  0  0  0
 50122  1  0  0  0
 51 52  1  0  0  0
 51123  1  0  0  0
 51124  1  0  0  0
 52125  1  0  0  0
 52126  1  0  0  0
 53 54  1  0  0  0
 54 55  2  0  0  0
 54127  1  0  0  0
 55 57  1  0  0  0
 55128  1  0  0  0
 56 69  2  0  0  0
 57 58  2  0  0  0
 57129  1  0  0  0
 58130  1  0  0  0
 59 60  1  0  0  0
 59 61  1  0  0  0
 59 62  1  0  0  0
 60131  1  0  0  0
 60132  1  0  0  0
 60133  1  0  0  0
 61134  1  0  0  0
 61135  1  0  0  0
 61136  1  0  0  0
 62137  1  0  0  0
 62138  1  0  0  0
 62139  1  0  0  0
 63 65  1  0  0  0
 63140  1  0  0  0
 63141  1  0  0  0
 63142  1  0  0  0
 64143  1  0  0  0
 65144  1  0  0  0
 68 81  1  0  0  0
 71 72  1  0  0  0
 71 73  2  0  0  0
 71145  1  0  0  0
 72 74  2  0  0  0
 72146  1  0  0  0
 73 79  1  0  0  0
 73 84  1  0  0  0
 74 82  1  0  0  0
 74 84  1  0  0  0
 75147  1  0  0  0
 75148  1  0  0  0
 75149  1  0  0  0
 75 82  1  0  0  0
 76150  1  0  0  0
 76151  1  0  0  0
 76152  1  0  0  0
 76 83  1  0  0  0
 77 83  1  0  0  0
 77153  1  0  0  0
 77154  1  0  0  0
 77155  1  0  0  0
 78 83  1  0  0  0
 78156  1  0  0  0
 78157  1  0  0  0
 78158  1  0  0  0
 79 80  1  0  0  0
 79159  1  0  0  0
 79160  1  0  0  0
 80 81  1  0  0  0
 80161  1  0  0  0
 80162  1  0  0  0
 81163  1  0  0  0
 81164  1  0  0  0
 82 85  1  0  0  0
 82165  1  0  0  0
 83 84  1  0  0  0
 85166  1  0  0  0
M  ISO  4   1 100  68 101  81 101  85 100
M  END
> <chiral flag>
0

> <version>
0

> <s_m_source_file>
/data/baiqing/PycharmProjects/Reinvent-master-3.2/result/LINK_invent/BTK/process_docking_weight1_custom_sum_contain_oxygen_bond_distance_aromatic_linkinvent_7_9_3/rearranged_h_0092.sdf

> <i_m_source_file_index>
48

> <r_mmod_Potential_Energy-OPLS-2005>
365.386413574219

> <r_mmod_Stretch_Energy-OPLS-2005>
117.10230255127

> <r_mmod_Bend_Energy-OPLS-2005>
404.780700683594

> <r_mmod_Torsional_Energy-OPLS-2005>
284.688201904297

> <r_mmod_Improper_Torsional_Energy-OPLS-2005>
8.771803855896

> <r_mmod_Van_der_Waal_Energy-OPLS-2005>
137.756591796875

> <r_mmod_Electrostatic_Energy-OPLS-2005>
-464.753509521484

> <r_mmod_Solvation_Energy-OPLS-2005>
-193.842697143555

> <b_mmod_Minimization_Converged-OPLS-2005>
0

> <r_mmod_RMS_Derivative-OPLS-2005>
2.9836688041687

$$$$
50
                    3D
 Structure written by MMmdl.
169177  0  0  1  0            999 V2000
  -30.2312  -15.8108   20.3231 C   0  0  0  0  0  0
  -30.4311  -13.2238   19.5384 C   0  0  0  0  0  0
  -29.5706  -12.7044   18.3492 C   0  0  0  0  0  0
  -28.1730  -12.2845   18.8236 C   0  0  0  0  0  0
  -27.6026  -13.3167   19.8191 C   0  0  2  0  0  0
  -28.6060  -13.7245   20.9245 C   0  0  0  0  0  0
  -25.2381  -13.8276   20.5799 C   0  0  0  0  0  0
  -24.1754  -13.0473   20.9283 C   0  0  0  0  0  0
  -24.6463  -11.6975   20.8796 C   0  0  0  0  0  0
  -23.9162  -10.4320   21.0441 C   0  0  0  0  0  0
  -24.3679   -9.4198   21.9215 C   0  0  0  0  0  0
  -23.6319   -8.2242   22.0759 C   0  0  0  0  0  0
  -22.4299   -8.0312   21.3544 C   0  0  0  0  0  0
  -21.9970   -9.0313   20.4654 C   0  0  0  0  0  0
  -22.7334  -10.2177   20.3071 C   0  0  0  0  0  0
  -21.6853   -6.0751   22.5264 C   0  0  0  0  0  0
  -21.4026   -6.5645   23.8194 C   0  0  0  0  0  0
  -21.3645   -5.6798   24.9153 C   0  0  0  0  0  0
  -21.6041   -4.3060   24.7225 C   0  0  0  0  0  0
  -21.8812   -3.8153   23.4342 C   0  0  0  0  0  0
  -21.9198   -4.6977   22.3392 C   0  0  0  0  0  0
  -22.7736  -13.5204   21.1907 C   0  0  0  0  0  0
  -22.1656   -4.2150   21.0961 F   0  0  0  0  0  0
  -21.5628   -3.4532   25.7734 F   0  0  0  0  0  0
  -29.7411  -14.4132   20.2442 N   0  0  0  0  0  0
  -26.2862  -12.9640   20.3317 N   0  0  0  0  0  0
  -25.9412  -11.6713   20.5714 N   0  0  0  0  0  0
  -22.0355  -12.8230   22.0453 N   0  0  0  0  0  0
  -25.4009  -15.2018   20.4257 N   0  0  0  0  0  0
  -31.4774  -15.7223   20.2584 O   0  0  0  0  0  0
  -21.6647   -6.8911   21.4234 O   0  0  0  0  0  0
  -22.3441  -14.5501   20.6707 O   0  0  0  0  0  0
  -24.6951  -31.7774   23.1537 C   0  0  0  0  0  0
  -25.9485  -32.4336   23.8058 C   0  0  1  0  0  0
  -27.1969  -26.5339   20.1822 C   0  0  0  0  0  0
  -25.6023  -33.8192   24.1906 N   0  0  0  0  0  0
  -23.5270  -30.3767   21.5038 C   0  0  2  0  0  0
  -25.0212  -28.7345   20.0744 C   0  0  0  0  0  0
  -22.7584  -29.4356   22.4777 C   0  0  0  0  0  0
  -17.9804  -28.1986   22.8750 C   0  0  0  0  0  0
  -24.1520  -36.7121   23.2643 C   0  0  0  0  0  0
  -26.1179  -30.4383   21.4743 C   0  0  0  0  0  0
  -26.1811  -28.9966   20.8119 C   0  0  0  0  0  0
  -27.2355  -27.9086   20.8792 C   0  0  0  0  0  0
  -26.1347  -26.6565   19.2457 C   0  0  0  0  0  0
  -25.0539  -27.5954   19.2576 C   0  0  0  0  0  0
  -23.8001  -29.6764   20.1354 C   0  0  0  0  0  0
  -25.4165  -36.2840   24.0277 C   0  0  1  0  0  0
  -20.5482  -28.4029   23.1278 C   0  0  2  0  0  0
  -20.5545  -26.9533   22.6007 C   0  0  0  0  0  0
  -19.4454  -26.6307   21.5899 C   0  0  0  0  0  0
  -18.0887  -26.8434   22.2221 C   0  0  0  0  0  0
  -19.1243  -28.9362   23.2890 C   0  0  0  0  0  0
  -18.9359  -30.1941   23.8944 C   0  0  0  0  0  0
  -17.6414  -30.7157   24.0714 C   0  0  0  0  0  0
  -25.9145  -34.9213   23.4921 C   0  0  0  0  0  0
  -16.5171  -29.9756   23.6666 C   0  0  0  0  0  0
  -16.6879  -28.7141   23.0761 C   0  0  0  0  0  0
  -26.4603  -31.6453   25.0759 C   0  0  0  0  0  0
  -25.3656  -31.3881   26.1387 C   0  0  0  0  0  0
  -27.0500  -30.2715   24.6895 C   0  0  0  0  0  0
  -27.6064  -32.4333   25.7524 C   0  0  0  0  0  0
  -27.5590  -37.1726   24.8467 C   0  0  0  0  0  0
  -21.4222  -29.2939   22.3360 N   0  0  0  0  0  0
  -26.4279  -37.3619   23.9412 N   0  0  0  0  0  0
  -24.8028  -30.9024   22.0918 N   0  0  0  0  0  0
  -23.3887  -28.8399   23.3538 O   0  0  0  0  0  0
  -27.8734  -25.0243   20.2781 O   0  0  0  0  0  0
  -26.5789  -34.8787   22.4549 O   0  0  0  0  0  0
  -23.5961  -32.0977   23.6357 O   0  0  0  0  0  0
  -26.9681  -24.5844   22.1046 C   0  0  0  0  0  0
  -25.9807  -24.1785   20.7896 C   0  0  0  0  0  0
  -26.8881  -23.1614   19.6895 C   0  0  0  0  0  0
  -28.3395  -22.6645   20.2099 C   0  0  0  0  0  0
  -26.1929  -22.6081   18.4592 C   0  0  0  0  0  0
  -23.8387  -26.1557   21.9719 C   0  0  0  0  0  0
  -22.1599  -24.6455   20.6580 C   0  0  0  0  0  0
  -24.5225  -24.3385   20.4160 C   0  0  0  0  0  0
  -28.7854  -20.7959   19.8440 C   0  0  0  0  0  0
  -27.8972  -21.9317   22.9417 C   0  0  0  0  0  0
  -29.0653  -22.9100   22.8118 C   0  0  0  0  0  0
  -29.5081  -19.0503   20.5630 C   0  0  0  0  0  0
  -26.8063  -22.3895   21.8686 C   0  0  0  0  0  0
  -23.4995  -24.7605   21.4336 C   0  0  0  0  0  0
  -28.5103  -23.6120   21.7118 N   0  0  0  0  0  0
  -29.4640  -17.2137   20.3138 N   0  0  0  0  0  0
  -31.3979  -13.5317   19.1325 H   0  0  0  0  0  0
  -30.6668  -12.4257   20.2446 H   0  0  0  0  0  0
  -30.0768  -11.8733   17.8592 H   0  0  0  0  0  0
  -29.4708  -13.4980   17.6064 H   0  0  0  0  0  0
  -28.2714  -11.3202   19.3257 H   0  0  0  0  0  0
  -27.5000  -12.1298   17.9812 H   0  0  0  0  0  0
  -27.4472  -14.2105   19.2143 H   0  0  0  0  0  0
  -28.9195  -12.8687   21.5239 H   0  0  0  0  0  0
  -28.1319  -14.4189   21.6206 H   0  0  0  0  0  0
  -25.2815   -9.5639   22.4834 H   0  0  0  0  0  0
  -23.9989   -7.4620   22.7499 H   0  0  0  0  0  0
  -21.0870   -8.8900   19.8979 H   0  0  0  0  0  0
  -22.3818  -10.9752   19.6195 H   0  0  0  0  0  0
  -21.2019   -7.6147   23.9692 H   0  0  0  0  0  0
  -21.1463   -6.0523   25.9047 H   0  0  0  0  0  0
  -22.0612   -2.7608   23.2833 H   0  0  0  0  0  0
  -22.3949  -11.9930   22.4950 H   0  0  0  0  0  0
  -21.0935  -13.1223   22.2514 H   0  0  0  0  0  0
  -24.6428  -15.8621   20.5637 H   0  0  0  0  0  0
  -26.2565  -15.6427   20.1155 H   0  0  0  0  0  0
  -26.7562  -32.4763   23.0751 H   0  0  0  0  0  0
  -25.0053  -33.9217   24.9982 H   0  0  0  0  0  0
  -22.8654  -31.2207   21.3008 H   0  0  0  0  0  0
  -23.3809  -35.9417   23.3198 H   0  0  0  0  0  0
  -24.3610  -36.8895   22.2079 H   0  0  0  0  0  0
  -23.7221  -37.6243   23.6794 H   0  0  0  0  0  0
  -26.3478  -31.1544   20.6861 H   0  0  0  0  0  0
  -26.9624  -30.5217   22.1421 H   0  0  0  0  0  0
  -28.0511  -28.0712   21.5682 H   0  0  0  0  0  0
  -26.0462  -25.8389   18.5423 H   0  0  0  0  0  0
  -24.2198  -27.4023   18.5946 H   0  0  0  0  0  0
  -23.9385  -30.4408   19.3698 H   0  0  0  0  0  0
  -22.9155  -29.1173   19.8279 H   0  0  0  0  0  0
  -25.1365  -36.1586   25.0764 H   0  0  0  0  0  0
  -20.9612  -28.3850   24.1391 H   0  0  0  0  0  0
  -20.4512  -26.2797   23.4552 H   0  0  0  0  0  0
  -21.4947  -26.7408   22.1430 H   0  0  0  0  0  0
  -19.4288  -25.5896   21.2773 H   0  0  0  0  0  0
  -19.5639  -27.2423   20.6939 H   0  0  0  0  0  0
  -17.3040  -26.7223   21.4721 H   0  0  0  0  0  0
  -17.9007  -26.0944   22.9940 H   0  0  0  0  0  0
  -19.7890  -30.7679   24.2315 H   0  0  0  0  0  0
  -17.5083  -31.6874   24.5288 H   0  0  0  0  0  0
  -15.5236  -30.3787   23.8121 H   0  0  0  0  0  0
  -15.8165  -28.1448   22.7781 H   0  0  0  0  0  0
  -24.6004  -30.6989   25.7811 H   0  0  0  0  0  0
  -24.8640  -32.3085   26.4393 H   0  0  0  0  0  0
  -25.7849  -30.9452   27.0432 H   0  0  0  0  0  0
  -26.3266  -29.6307   24.1854 H   0  0  0  0  0  0
  -27.3695  -29.7231   25.5769 H   0  0  0  0  0  0
  -27.9345  -30.3674   24.0599 H   0  0  0  0  0  0
  -27.2704  -33.3839   26.1663 H   0  0  0  0  0  0
  -28.4057  -32.6532   25.0441 H   0  0  0  0  0  0
  -28.0487  -31.8740   26.5781 H   0  0  0  0  0  0
  -28.2558  -38.0070   24.7525 H   0  0  0  0  0  0
  -28.1141  -36.2601   24.6271 H   0  0  0  0  0  0
  -27.2325  -37.1317   25.8871 H   0  0  0  0  0  0
  -20.9660  -29.8462   21.6219 H   0  0  0  0  0  0
  -26.0115  -38.2675   24.1382 H   0  0  0  0  0  0
  -26.8133  -25.1027   23.0426 H   0  0  0  0  0  0
  -25.5069  -23.3583   18.0497 H   0  0  0  0  0  0
  -25.6033  -21.7242   18.7176 H   0  0  0  0  0  0
  -26.8970  -22.3464   17.6738 H   0  0  0  0  0  0
  -23.4973  -26.9246   21.2827 H   0  0  0  0  0  0
  -24.9081  -26.3082   22.1084 H   0  0  0  0  0  0
  -23.3998  -26.3318   22.9523 H   0  0  0  0  0  0
  -21.2935  -24.6616   21.3099 H   0  0  0  0  0  0
  -22.0907  -23.6870   20.1361 H   0  0  0  0  0  0
  -22.0713  -25.4086   19.8706 H   0  0  0  0  0  0
  -24.2360  -23.3370   20.0959 H   0  0  0  0  0  0
  -24.3947  -24.9383   19.5181 H   0  0  0  0  0  0
  -29.4521  -20.9085   18.9761 H   0  0  0  0  0  0
  -27.8546  -20.4886   19.3238 H   0  0  0  0  0  0
  -27.5112  -21.9068   23.9650 H   0  0  0  0  0  0
  -28.2444  -20.9193   22.7193 H   0  0  0  0  0  0
  -30.0028  -22.4236   22.5390 H   0  0  0  0  0  0
  -29.1929  -23.5720   23.6677 H   0  0  0  0  0  0
  -29.2338  -19.0824   21.6311 H   0  0  0  0  0  0
  -30.5880  -19.2626   20.6187 H   0  0  0  0  0  0
  -25.8892  -22.4897   22.4788 H   0  0  0  0  0  0
  -26.5456  -21.4725   21.3227 H   0  0  0  0  0  0
  -23.4944  -24.0581   22.2690 H   0  0  0  0  0  0
  -28.4862  -16.9470   20.2603 H   0  0  0  0  0  0
  1 25  1  0  0  0
  1 30  2  0  0  0
  1 86  1  0  0  0
  2  3  1  0  0  0
  2 25  1  0  0  0
  2 87  1  0  0  0
  2 88  1  0  0  0
  3  4  1  0  0  0
  3 89  1  0  0  0
  3 90  1  0  0  0
  4  5  1  0  0  0
  4 91  1  0  0  0
  4 92  1  0  0  0
  5  6  1  0  0  0
  5 26  1  0  0  0
  5 93  1  0  0  0
  6 25  1  0  0  0
  6 94  1  0  0  0
  6 95  1  0  0  0
  7  8  2  0  0  0
  7 26  1  0  0  0
  7 29  1  0  0  0
  8  9  1  0  0  0
  8 22  1  0  0  0
  9 10  1  0  0  0
  9 27  2  0  0  0
 10 11  2  0  0  0
 10 15  1  0  0  0
 11 12  1  0  0  0
 11 96  1  0  0  0
 12 13  2  0  0  0
 12 97  1  0  0  0
 13 14  1  0  0  0
 13 31  1  0  0  0
 14 15  2  0  0  0
 14 98  1  0  0  0
 15 99  1  0  0  0
 16 17  2  0  0  0
 16 21  1  0  0  0
 16 31  1  0  0  0
 17 18  1  0  0  0
 17100  1  0  0  0
 18 19  2  0  0  0
 18101  1  0  0  0
 19 20  1  0  0  0
 19 24  1  0  0  0
 20 21  2  0  0  0
 20102  1  0  0  0
 21 23  1  0  0  0
 22 28  1  0  0  0
 22 32  2  0  0  0
 26 27  1  0  0  0
 28103  1  0  0  0
 28104  1  0  0  0
 29105  1  0  0  0
 29106  1  0  0  0
 33 34  1  0  0  0
 33 66  1  0  0  0
 33 70  2  0  0  0
 34 36  1  0  0  0
 34 59  1  0  0  0
 34107  1  0  0  0
 35 44  2  0  0  0
 35 45  1  0  0  0
 35 68  1  0  0  0
 36 56  1  0  0  0
 36108  1  0  0  0
 37 39  1  0  0  0
 37 47  1  0  0  0
 37 66  1  0  0  0
 37109  1  0  0  0
 38 43  2  0  0  0
 38 46  1  0  0  0
 38 47  1  0  0  0
 39 64  1  0  0  0
 39 67  2  0  0  0
 40 52  1  0  0  0
 40 53  2  0  0  0
 40 58  1  0  0  0
 41110  1  0  0  0
 41111  1  0  0  0
 41112  1  0  0  0
 41 48  1  0  0  0
 42 43  1  0  0  0
 42 66  1  0  0  0
 42113  1  0  0  0
 42114  1  0  0  0
 43 44  1  0  0  0
 44115  1  0  0  0
 45 46  2  0  0  0
 45116  1  0  0  0
 46117  1  0  0  0
 47118  1  0  0  0
 47119  1  0  0  0
 48 56  1  0  0  0
 48 65  1  0  0  0
 48120  1  0  0  0
 49 50  1  0  0  0
 49 53  1  0  0  0
 49 64  1  0  0  0
 49121  1  0  0  0
 50 51  1  0  0  0
 50122  1  0  0  0
 50123  1  0  0  0
 51 52  1  0  0  0
 51124  1  0  0  0
 51125  1  0  0  0
 52126  1  0  0  0
 52127  1  0  0  0
 53 54  1  0  0  0
 54 55  2  0  0  0
 54128  1  0  0  0
 55 57  1  0  0  0
 55129  1  0  0  0
 56 69  2  0  0  0
 57 58  2  0  0  0
 57130  1  0  0  0
 58131  1  0  0  0
 59 60  1  0  0  0
 59 61  1  0  0  0
 59 62  1  0  0  0
 60132  1  0  0  0
 60133  1  0  0  0
 60134  1  0  0  0
 61135  1  0  0  0
 61136  1  0  0  0
 61137  1  0  0  0
 62138  1  0  0  0
 62139  1  0  0  0
 62140  1  0  0  0
 63 65  1  0  0  0
 63141  1  0  0  0
 63142  1  0  0  0
 63143  1  0  0  0
 64144  1  0  0  0
 65145  1  0  0  0
 68 83  1  0  0  0
 71 72  2  0  0  0
 71 85  1  0  0  0
 71146  1  0  0  0
 72 73  1  0  0  0
 72 78  1  0  0  0
 73 74  2  0  0  0
 73 75  1  0  0  0
 74 79  1  0  0  0
 74 85  1  0  0  0
 75147  1  0  0  0
 75148  1  0  0  0
 75149  1  0  0  0
 76150  1  0  0  0
 76151  1  0  0  0
 76152  1  0  0  0
 76 84  1  0  0  0
 77 84  1  0  0  0
 77153  1  0  0  0
 77154  1  0  0  0
 77155  1  0  0  0
 78 84  1  0  0  0
 78156  1  0  0  0
 78157  1  0  0  0
 79 82  1  0  0  0
 79158  1  0  0  0
 79159  1  0  0  0
 80 81  1  0  0  0
 80 83  1  0  0  0
 80160  1  0  0  0
 80161  1  0  0  0
 81 85  1  0  0  0
 81162  1  0  0  0
 81163  1  0  0  0
 82 86  1  0  0  0
 82164  1  0  0  0
 82165  1  0  0  0
 83166  1  0  0  0
 83167  1  0  0  0
 84168  1  0  0  0
 86169  1  0  0  0
M  ISO  4   1 100  68 101  83 101  86 100
M  END
> <chiral flag>
0

> <version>
0

> <s_m_source_file>
/data/baiqing/PycharmProjects/Reinvent-master-3.2/result/LINK_invent/BTK/process_docking_weight1_custom_sum_contain_oxygen_bond_distance_aromatic_linkinvent_7_9_3/rearranged_h_0092.sdf

> <i_m_source_file_index>
49

> <r_mmod_Potential_Energy-OPLS-2005>
11312.4169921875

> <r_mmod_Stretch_Energy-OPLS-2005>
7144.62158203125

> <r_mmod_Bend_Energy-OPLS-2005>
788.434509277344

> <r_mmod_Torsional_Energy-OPLS-2005>
404.407287597656

> <r_mmod_Improper_Torsional_Energy-OPLS-2005>
40.0013961791992

> <r_mmod_Van_der_Waal_Energy-OPLS-2005>
2200.62255859375

> <r_mmod_Electrostatic_Energy-OPLS-2005>
-364.018371582031

> <r_mmod_Solvation_Energy-OPLS-2005>
-237.31266784668

> <b_mmod_Minimization_Converged-OPLS-2005>
0

> <r_mmod_RMS_Derivative-OPLS-2005>
14.5196008682251

$$$$
51
                    3D
 Structure written by MMmdl.
158166  0  0  1  0            999 V2000
  -30.6113  -14.7255   20.4990 C   0  0  0  0  0  0
  -30.4470  -12.4606   19.4397 C   0  0  0  0  0  0
  -29.5060  -12.5125   18.2165 C   0  0  0  0  0  0
  -28.0314  -12.3403   18.6342 C   0  0  0  0  0  0
  -27.6457  -13.2229   19.8514 C   0  0  2  0  0  0
  -28.7014  -13.1319   20.9755 C   0  0  0  0  0  0
  -25.2502  -13.8201   20.5661 C   0  0  0  0  0  0
  -24.1787  -13.0459   20.9216 C   0  0  0  0  0  0
  -24.6381  -11.6927   20.8770 C   0  0  0  0  0  0
  -23.9076  -10.4310   21.0438 C   0  0  0  0  0  0
  -24.3631   -9.4231   21.9214 C   0  0  0  0  0  0
  -23.6299   -8.2270   22.0786 C   0  0  0  0  0  0
  -22.4278   -8.0305   21.3576 C   0  0  0  0  0  0
  -21.9928   -9.0283   20.4677 C   0  0  0  0  0  0
  -22.7263  -10.2154   20.3091 C   0  0  0  0  0  0
  -21.6847   -6.0749   22.5282 C   0  0  0  0  0  0
  -21.4012   -6.5646   23.8221 C   0  0  0  0  0  0
  -21.3662   -5.6791   24.9174 C   0  0  0  0  0  0
  -21.6046   -4.3053   24.7215 C   0  0  0  0  0  0
  -21.8828   -3.8152   23.4332 C   0  0  0  0  0  0
  -21.9185   -4.6976   22.3390 C   0  0  0  0  0  0
  -22.7808  -13.5241   21.1842 C   0  0  0  0  0  0
  -22.1647   -4.2171   21.0966 F   0  0  0  0  0  0
  -21.5638   -3.4536   25.7724 F   0  0  0  0  0  0
  -29.9970  -13.5002   20.3868 N   0  0  0  0  0  0
  -26.2952  -12.9398   20.3295 N   0  0  0  0  0  0
  -25.9316  -11.6557   20.5792 N   0  0  0  0  0  0
  -22.0407  -12.8269   22.0383 N   0  0  0  0  0  0
  -25.4128  -15.1946   20.4058 N   0  0  0  0  0  0
  -31.8090  -14.8548   20.2422 O   0  0  0  0  0  0
  -21.6648   -6.8890   21.4249 O   0  0  0  0  0  0
  -22.3513  -14.5554   20.6668 O   0  0  0  0  0  0
  -24.6286  -31.8616   23.2010 C   0  0  0  0  0  0
  -25.9105  -32.4836   23.8364 C   0  0  1  0  0  0
  -27.2197  -27.2886   20.1380 C   0  0  0  0  0  0
  -25.5907  -33.8635   24.2320 N   0  0  0  0  0  0
  -23.4250  -30.4856   21.5404 C   0  0  2  0  0  0
  -24.8743  -28.9407   20.1045 C   0  0  0  0  0  0
  -22.7530  -29.4594   22.4844 C   0  0  0  0  0  0
  -18.0314  -28.1345   22.8484 C   0  0  0  0  0  0
  -24.1468  -36.7313   23.2649 C   0  0  0  0  0  0
  -25.9669  -30.7867   21.3728 C   0  0  0  0  0  0
  -26.0426  -29.4092   20.7198 C   0  0  0  0  0  0
  -27.2181  -28.5969   20.7263 C   0  0  0  0  0  0
  -26.0278  -26.8866   19.4926 C   0  0  0  0  0  0
  -24.8724  -27.6870   19.4778 C   0  0  0  0  0  0
  -23.6488  -29.8302   20.1514 C   0  0  0  0  0  0
  -25.4082  -36.3127   24.0356 C   0  0  1  0  0  0
  -20.5922  -28.3657   23.1245 C   0  0  2  0  0  0
  -20.6767  -26.9364   22.5373 C   0  0  0  0  0  0
  -19.5729  -26.6344   21.5189 C   0  0  0  0  0  0
  -18.1932  -26.7901   22.1626 C   0  0  0  0  0  0
  -19.1575  -28.8822   23.2869 C   0  0  0  0  0  0
  -18.9507  -30.1441   23.8878 C   0  0  0  0  0  0
  -17.6505  -30.6556   24.0548 C   0  0  0  0  0  0
  -25.9008  -34.9503   23.5130 C   0  0  0  0  0  0
  -16.5399  -29.9054   23.6316 C   0  0  0  0  0  0
  -16.7311  -28.6471   23.0337 C   0  0  0  0  0  0
  -26.4434  -31.6663   25.0782 C   0  0  0  0  0  0
  -25.3637  -31.3886   26.1500 C   0  0  0  0  0  0
  -27.0293  -30.3116   24.6230 C   0  0  0  0  0  0
  -27.6015  -32.4365   25.7533 C   0  0  0  0  0  0
  -27.5559  -37.1802   24.8460 C   0  0  0  0  0  0
  -21.4221  -29.3058   22.3686 N   0  0  0  0  0  0
  -26.4252  -37.3833   23.9450 N   0  0  0  0  0  0
  -24.6935  -31.0605   22.0968 N   0  0  0  0  0  0
  -23.4262  -28.8123   23.2905 O   0  0  0  0  0  0
  -28.3124  -26.3991   20.2085 O   0  0  0  0  0  0
  -26.5548  -34.8945   22.4685 O   0  0  0  0  0  0
  -23.5433  -32.1392   23.7308 O   0  0  0  0  0  0
  -29.3915  -19.6888   20.8364 C   0  0  0  0  0  0
  -31.9584  -19.9478   20.0371 C   0  0  0  0  0  0
  -29.8320  -21.0447   20.5583 C   0  0  0  0  0  0
  -31.2242  -21.1412   20.2508 C   0  0  0  0  0  0
  -30.2570  -18.5350   20.7211 C   0  0  0  0  0  0
  -33.4365  -22.4381   20.6855 C   0  0  0  0  0  0
  -28.8054  -22.2782   20.5996 C   0  0  0  0  0  0
  -31.9884  -22.4660   20.1612 C   0  0  0  0  0  0
  -30.0289  -17.1318   21.4172 C   0  0  0  0  0  0
  -29.1746  -23.8528   20.4611 C   0  0  0  0  0  0
  -28.0298  -24.9297   20.1519 C   0  0  0  0  0  0
  -31.5045  -18.6971   20.2509 N   0  0  0  0  0  0
  -29.7908  -15.8105   20.7190 N   0  0  0  0  0  0
  -31.4784  -12.6258   19.1204 H   0  0  0  0  0  0
  -30.4204  -11.4756   19.9115 H   0  0  0  0  0  0
  -29.7871  -11.7402   17.4973 H   0  0  0  0  0  0
  -29.6240  -13.4662   17.6975 H   0  0  0  0  0  0
  -27.8689  -11.2888   18.8718 H   0  0  0  0  0  0
  -27.3773  -12.5652   17.7903 H   0  0  0  0  0  0
  -27.6433  -14.2494   19.4862 H   0  0  0  0  0  0
  -28.7461  -12.1260   21.3982 H   0  0  0  0  0  0
  -28.4411  -13.7936   21.8023 H   0  0  0  0  0  0
  -25.2786   -9.5702   22.4783 H   0  0  0  0  0  0
  -24.0017   -7.4670   22.7513 H   0  0  0  0  0  0
  -21.0865   -8.8822   19.8974 H   0  0  0  0  0  0
  -22.3753  -10.9707   19.6200 H   0  0  0  0  0  0
  -21.2017   -7.6160   23.9727 H   0  0  0  0  0  0
  -21.1466   -6.0514   25.9078 H   0  0  0  0  0  0
  -22.0603   -2.7617   23.2817 H   0  0  0  0  0  0
  -22.3970  -11.9940   22.4848 H   0  0  0  0  0  0
  -21.1045  -13.1370   22.2556 H   0  0  0  0  0  0
  -24.6332  -15.8348   20.5215 H   0  0  0  0  0  0
  -26.2417  -15.6473   20.0433 H   0  0  0  0  0  0
  -26.7203  -32.5498   23.1138 H   0  0  0  0  0  0
  -25.0154  -33.9811   25.0535 H   0  0  0  0  0  0
  -22.7189  -31.3055   21.3958 H   0  0  0  0  0  0
  -23.3748  -35.9623   23.3302 H   0  0  0  0  0  0
  -24.3576  -36.8933   22.2064 H   0  0  0  0  0  0
  -23.7170  -37.6505   23.6642 H   0  0  0  0  0  0
  -26.0796  -31.5446   20.5959 H   0  0  0  0  0  0
  -26.8563  -30.8525   21.9869 H   0  0  0  0  0  0
  -28.1045  -28.9522   21.2347 H   0  0  0  0  0  0
  -25.9499  -25.9287   19.0016 H   0  0  0  0  0  0
  -23.9829  -27.3226   18.9846 H   0  0  0  0  0  0
  -23.7823  -30.6137   19.4046 H   0  0  0  0  0  0
  -22.7703  -29.2689   19.8332 H   0  0  0  0  0  0
  -25.1249  -36.1982   25.0842 H   0  0  0  0  0  0
  -21.0015  -28.3179   24.1353 H   0  0  0  0  0  0
  -20.5582  -26.2284   23.3586 H   0  0  0  0  0  0
  -21.6641  -26.7294   22.1209 H   0  0  0  0  0  0
  -19.6854  -25.6247   21.1224 H   0  0  0  0  0  0
  -19.6649  -27.3158   20.6724 H   0  0  0  0  0  0
  -17.4181  -26.6678   21.4036 H   0  0  0  0  0  0
  -18.0290  -26.0038   22.9012 H   0  0  0  0  0  0
  -19.8005  -30.7246   24.2206 H   0  0  0  0  0  0
  -17.5085  -31.6235   24.5162 H   0  0  0  0  0  0
  -15.5399  -30.2949   23.7654 H   0  0  0  0  0  0
  -15.8712  -28.0798   22.7005 H   0  0  0  0  0  0
  -24.5808  -30.7214   25.7875 H   0  0  0  0  0  0
  -24.8785  -32.3091   26.4785 H   0  0  0  0  0  0
  -25.7902  -30.9195   27.0383 H   0  0  0  0  0  0
  -26.2926  -29.6908   24.1123 H   0  0  0  0  0  0
  -27.3923  -29.7324   25.4732 H   0  0  0  0  0  0
  -27.8793  -30.4494   23.9544 H   0  0  0  0  0  0
  -27.2693  -33.3709   26.2062 H   0  0  0  0  0  0
  -28.3830  -32.6852   25.0349 H   0  0  0  0  0  0
  -28.0649  -31.8503   26.5479 H   0  0  0  0  0  0
  -28.2565  -38.0110   24.7525 H   0  0  0  0  0  0
  -28.1054  -36.2646   24.6227 H   0  0  0  0  0  0
  -27.2290  -37.1374   25.8865 H   0  0  0  0  0  0
  -20.9356  -29.9022   21.7131 H   0  0  0  0  0  0
  -26.0147  -38.2909   24.1477 H   0  0  0  0  0  0
  -28.3837  -19.5387   21.1983 H   0  0  0  0  0  0
  -32.9914  -19.9822   19.7253 H   0  0  0  0  0  0
  -33.8750  -23.4381   20.6557 H   0  0  0  0  0  0
  -34.0961  -21.7918   20.1108 H   0  0  0  0  0  0
  -33.4613  -22.1105   21.7257 H   0  0  0  0  0  0
  -28.2384  -22.1784   21.5262 H   0  0  0  0  0  0
  -28.0857  -22.0601   19.8108 H   0  0  0  0  0  0
  -31.5161  -23.1899   20.8132 H   0  0  0  0  0  0
  -31.9616  -22.8409   19.1385 H   0  0  0  0  0  0
  -29.1930  -17.2599   22.1061 H   0  0  0  0  0  0
  -30.8836  -16.9834   22.0775 H   0  0  0  0  0  0
  -29.8872  -23.9787   19.6489 H   0  0  0  0  0  0
  -29.6582  -24.1707   21.3857 H   0  0  0  0  0  0
  -27.1894  -24.7238   20.8170 H   0  0  0  0  0  0
  -27.6864  -24.7023   19.1424 H   0  0  0  0  0  0
  -28.8141  -15.5724   20.6893 H   0  0  0  0  0  0
  1 25  1  0  0  0
  1 30  2  0  0  0
  1 83  1  0  0  0
  2  3  1  0  0  0
  2 25  1  0  0  0
  2 84  1  0  0  0
  2 85  1  0  0  0
  3  4  1  0  0  0
  3 86  1  0  0  0
  3 87  1  0  0  0
  4  5  1  0  0  0
  4 88  1  0  0  0
  4 89  1  0  0  0
  5  6  1  0  0  0
  5 26  1  0  0  0
  5 90  1  0  0  0
  6 25  1  0  0  0
  6 91  1  0  0  0
  6 92  1  0  0  0
  7  8  2  0  0  0
  7 26  1  0  0  0
  7 29  1  0  0  0
  8  9  1  0  0  0
  8 22  1  0  0  0
  9 10  1  0  0  0
  9 27  2  0  0  0
 10 11  2  0  0  0
 10 15  1  0  0  0
 11 12  1  0  0  0
 11 93  1  0  0  0
 12 13  2  0  0  0
 12 94  1  0  0  0
 13 14  1  0  0  0
 13 31  1  0  0  0
 14 15  2  0  0  0
 14 95  1  0  0  0
 15 96  1  0  0  0
 16 17  2  0  0  0
 16 21  1  0  0  0
 16 31  1  0  0  0
 17 18  1  0  0  0
 17 97  1  0  0  0
 18 19  2  0  0  0
 18 98  1  0  0  0
 19 20  1  0  0  0
 19 24  1  0  0  0
 20 21  2  0  0  0
 20 99  1  0  0  0
 21 23  1  0  0  0
 22 28  1  0  0  0
 22 32  2  0  0  0
 26 27  1  0  0  0
 28100  1  0  0  0
 28101  1  0  0  0
 29102  1  0  0  0
 29103  1  0  0  0
 33 34  1  0  0  0
 33 66  1  0  0  0
 33 70  2  0  0  0
 34 36  1  0  0  0
 34 59  1  0  0  0
 34104  1  0  0  0
 35 44  2  0  0  0
 35 45  1  0  0  0
 35 68  1  0  0  0
 36 56  1  0  0  0
 36105  1  0  0  0
 37 39  1  0  0  0
 37 47  1  0  0  0
 37 66  1  0  0  0
 37106  1  0  0  0
 38 43  2  0  0  0
 38 46  1  0  0  0
 38 47  1  0  0  0
 39 64  1  0  0  0
 39 67  2  0  0  0
 40 52  1  0  0  0
 40 53  2  0  0  0
 40 58  1  0  0  0
 41107  1  0  0  0
 41108  1  0  0  0
 41109  1  0  0  0
 41 48  1  0  0  0
 42 43  1  0  0  0
 42 66  1  0  0  0
 42110  1  0  0  0
 42111  1  0  0  0
 43 44  1  0  0  0
 44112  1  0  0  0
 45 46  2  0  0  0
 45113  1  0  0  0
 46114  1  0  0  0
 47115  1  0  0  0
 47116  1  0  0  0
 48 56  1  0  0  0
 48 65  1  0  0  0
 48117  1  0  0  0
 49 50  1  0  0  0
 49 53  1  0  0  0
 49 64  1  0  0  0
 49118  1  0  0  0
 50 51  1  0  0  0
 50119  1  0  0  0
 50120  1  0  0  0
 51 52  1  0  0  0
 51121  1  0  0  0
 51122  1  0  0  0
 52123  1  0  0  0
 52124  1  0  0  0
 53 54  1  0  0  0
 54 55  2  0  0  0
 54125  1  0  0  0
 55 57  1  0  0  0
 55126  1  0  0  0
 56 69  2  0  0  0
 57 58  2  0  0  0
 57127  1  0  0  0
 58128  1  0  0  0
 59 60  1  0  0  0
 59 61  1  0  0  0
 59 62  1  0  0  0
 60129  1  0  0  0
 60130  1  0  0  0
 60131  1  0  0  0
 61132  1  0  0  0
 61133  1  0  0  0
 61134  1  0  0  0
 62135  1  0  0  0
 62136  1  0  0  0
 62137  1  0  0  0
 63 65  1  0  0  0
 63138  1  0  0  0
 63139  1  0  0  0
 63140  1  0  0  0
 64141  1  0  0  0
 65142  1  0  0  0
 68 81  1  0  0  0
 71 73  2  0  0  0
 71 75  1  0  0  0
 71143  1  0  0  0
 72 74  2  0  0  0
 72 82  1  0  0  0
 72144  1  0  0  0
 73 74  1  0  0  0
 73 77  1  0  0  0
 74 78  1  0  0  0
 75 79  1  0  0  0
 75 82  2  0  0  0
 76 78  1  0  0  0
 76145  1  0  0  0
 76146  1  0  0  0
 76147  1  0  0  0
 77 80  1  0  0  0
 77148  1  0  0  0
 77149  1  0  0  0
 78150  1  0  0  0
 78151  1  0  0  0
 79 83  1  0  0  0
 79152  1  0  0  0
 79153  1  0  0  0
 80 81  1  0  0  0
 80154  1  0  0  0
 80155  1  0  0  0
 81156  1  0  0  0
 81157  1  0  0  0
 83158  1  0  0  0
M  ISO  4   1 100  68 101  81 101  83 100
M  END
> <chiral flag>
0

> <version>
0

> <s_m_source_file>
/data/baiqing/PycharmProjects/Reinvent-master-3.2/result/LINK_invent/BTK/process_docking_weight1_custom_sum_contain_oxygen_bond_distance_aromatic_linkinvent_7_9_3/rearranged_h_0092.sdf

> <i_m_source_file_index>
50

> <r_mmod_Potential_Energy-OPLS-2005>
-76.3898010253906

> <r_mmod_Stretch_Energy-OPLS-2005>
108.457946777344

> <r_mmod_Bend_Energy-OPLS-2005>
182.61572265625

> <r_mmod_Torsional_Energy-OPLS-2005>
234.638198852539

> <r_mmod_Improper_Torsional_Energy-OPLS-2005>
7.30690145492554

> <r_mmod_Van_der_Waal_Energy-OPLS-2005>
153.57080078125

> <r_mmod_Electrostatic_Energy-OPLS-2005>
-601.112121582031

> <r_mmod_Solvation_Energy-OPLS-2005>
-240.096481323242

> <b_mmod_Minimization_Converged-OPLS-2005>
0

> <r_mmod_RMS_Derivative-OPLS-2005>
4.18315172195435

$$$$
52
                    3D
 Structure written by MMmdl.
172180  0  0  1  0            999 V2000
  -30.6670  -14.5066   20.6307 C   0  0  0  0  0  0
  -30.4377  -12.3482   19.4171 C   0  0  0  0  0  0
  -29.4998  -12.5361   18.2042 C   0  0  0  0  0  0
  -28.0228  -12.3666   18.6183 C   0  0  0  0  0  0
  -27.6667  -13.2044   19.8771 C   0  0  2  0  0  0
  -28.7027  -12.9594   20.9944 C   0  0  0  0  0  0
  -25.2657  -13.8136   20.5736 C   0  0  0  0  0  0
  -24.1881  -13.0428   20.9219 C   0  0  0  0  0  0
  -24.6413  -11.6890   20.8704 C   0  0  0  0  0  0
  -23.9047  -10.4306   21.0394 C   0  0  0  0  0  0
  -24.3616   -9.4246   21.9189 C   0  0  0  0  0  0
  -23.6352   -8.2238   22.0705 C   0  0  0  0  0  0
  -22.4321   -8.0284   21.3499 C   0  0  0  0  0  0
  -21.9947   -9.0228   20.4592 C   0  0  0  0  0  0
  -22.7221  -10.2139   20.3022 C   0  0  0  0  0  0
  -21.6863   -6.0806   22.5305 C   0  0  0  0  0  0
  -21.4010   -6.5687   23.8253 C   0  0  0  0  0  0
  -21.3650   -5.6809   24.9199 C   0  0  0  0  0  0
  -21.6021   -4.3067   24.7212 C   0  0  0  0  0  0
  -21.8824   -3.8212   23.4319 C   0  0  0  0  0  0
  -21.9200   -4.7045   22.3403 C   0  0  0  0  0  0
  -22.7912  -13.5249   21.1901 C   0  0  0  0  0  0
  -22.1688   -4.2251   21.0981 F   0  0  0  0  0  0
  -21.5606   -3.4514   25.7697 F   0  0  0  0  0  0
  -30.0328  -13.3072   20.4622 N   0  0  0  0  0  0
  -26.3073  -12.9299   20.3396 N   0  0  0  0  0  0
  -25.9336  -11.6452   20.5722 N   0  0  0  0  0  0
  -22.0515  -12.8232   22.0408 N   0  0  0  0  0  0
  -25.4435  -15.1848   20.4188 N   0  0  0  0  0  0
  -31.7596  -14.7672   20.1248 O   0  0  0  0  0  0
  -21.6632   -6.8927   21.4259 O   0  0  0  0  0  0
  -22.3602  -14.5569   20.6778 O   0  0  0  0  0  0
  -24.6176  -31.8633   23.2066 C   0  0  0  0  0  0
  -25.9057  -32.4797   23.8361 C   0  0  1  0  0  0
  -27.2571  -27.3852   20.0992 C   0  0  0  0  0  0
  -25.5912  -33.8598   24.2289 N   0  0  0  0  0  0
  -23.4092  -30.4872   21.5445 C   0  0  2  0  0  0
  -24.8601  -28.9419   20.1159 C   0  0  0  0  0  0
  -22.7405  -29.4661   22.4931 C   0  0  0  0  0  0
  -18.0281  -28.1391   22.8500 C   0  0  0  0  0  0
  -24.1486  -36.7294   23.2635 C   0  0  0  0  0  0
  -25.9411  -30.8167   21.3656 C   0  0  0  0  0  0
  -26.0205  -29.4446   20.7126 C   0  0  0  0  0  0
  -27.2102  -28.6734   20.7033 C   0  0  0  0  0  0
  -26.0646  -26.9071   19.5009 C   0  0  0  0  0  0
  -24.8784  -27.6723   19.5104 C   0  0  0  0  0  0
  -23.6235  -29.8158   20.1603 C   0  0  0  0  0  0
  -25.4117  -36.3091   24.0317 C   0  0  1  0  0  0
  -20.5870  -28.3694   23.1307 C   0  0  2  0  0  0
  -20.6764  -26.9430   22.5420 C   0  0  0  0  0  0
  -19.5756  -26.6396   21.5213 C   0  0  0  0  0  0
  -18.1929  -26.7940   22.1616 C   0  0  0  0  0  0
  -19.1524  -28.8853   23.2908 C   0  0  0  0  0  0
  -18.9456  -30.1446   23.8925 C   0  0  0  0  0  0
  -17.6463  -30.6606   24.0568 C   0  0  0  0  0  0
  -25.9043  -34.9461   23.5091 C   0  0  0  0  0  0
  -16.5360  -29.9110   23.6324 C   0  0  0  0  0  0
  -16.7265  -28.6523   23.0362 C   0  0  0  0  0  0
  -26.4480  -31.6591   25.0703 C   0  0  0  0  0  0
  -25.3730  -31.3713   26.1431 C   0  0  0  0  0  0
  -27.0291  -30.3023   24.6106 C   0  0  0  0  0  0
  -27.6053  -32.4297   25.7484 C   0  0  0  0  0  0
  -27.5581  -37.1806   24.8465 C   0  0  0  0  0  0
  -21.4139  -29.3055   22.3691 N   0  0  0  0  0  0
  -26.4294  -37.3792   23.9402 N   0  0  0  0  0  0
  -24.6739  -31.0701   22.0985 N   0  0  0  0  0  0
  -23.4157  -28.8196   23.2998 O   0  0  0  0  0  0
  -28.4520  -26.6651   20.1607 O   0  0  0  0  0  0
  -26.5622  -34.8931   22.4665 O   0  0  0  0  0  0
  -23.5354  -32.1413   23.7441 O   0  0  0  0  0  0
  -29.2639  -19.9934   21.8892 C   0  0  0  0  0  0
  -29.6258  -19.3355   20.7378 C   0  0  0  0  0  0
  -29.6388  -21.5853   20.3621 C   0  0  0  0  0  0
  -29.6474  -21.0333   14.6611 C   0  0  0  0  0  0
  -31.2633  -23.2261   19.3122 C   0  0  0  0  0  0
  -27.9477  -20.7918   17.4210 C   0  0  0  0  0  0
  -29.7180  -17.8286   20.4318 C   0  0  0  0  0  0
  -29.8935  -20.1667   15.9061 C   0  0  0  0  0  0
  -29.1925  -24.2280   20.4707 C   0  0  0  0  0  0
  -30.2538  -20.1293   18.3917 C   0  0  0  0  0  0
  -30.2222  -16.8715   21.5614 C   0  0  0  0  0  0
  -28.6704  -25.3747   19.5186 C   0  0  0  0  0  0
  -29.7932  -22.9784   19.7236 C   0  0  2  0  0  0
  -29.4788  -20.8185   17.2389 C   0  0  2  0  0  0
  -29.8177  -20.3546   19.7998 N   0  0  0  0  0  0
  -29.3057  -21.3413   21.6372 N   0  3  0  0  0  0
  -29.9522  -15.4322   21.3122 N   0  0  0  0  0  0
  -31.4742  -12.4947   19.1060 H   0  0  0  0  0  0
  -30.3773  -11.3237   19.7883 H   0  0  0  0  0  0
  -29.7541  -11.8242   17.4180 H   0  0  0  0  0  0
  -29.6444  -13.5337   17.7832 H   0  0  0  0  0  0
  -27.8560  -11.3070   18.8240 H   0  0  0  0  0  0
  -27.3623  -12.6340   17.7906 H   0  0  0  0  0  0
  -27.7190  -14.2566   19.5944 H   0  0  0  0  0  0
  -28.6792  -11.9081   21.2942 H   0  0  0  0  0  0
  -28.4362  -13.5162   21.8925 H   0  0  0  0  0  0
  -25.2766   -9.5777   22.4790 H   0  0  0  0  0  0
  -24.0104   -7.4628   22.7376 H   0  0  0  0  0  0
  -21.0881   -8.8705   19.8904 H   0  0  0  0  0  0
  -22.3640  -10.9678   19.6145 H   0  0  0  0  0  0
  -21.1974   -7.6186   23.9801 H   0  0  0  0  0  0
  -21.1476   -6.0513   25.9116 H   0  0  0  0  0  0
  -22.0608   -2.7671   23.2756 H   0  0  0  0  0  0
  -22.4117  -11.9863   22.4771 H   0  0  0  0  0  0
  -21.1113  -13.1253   22.2530 H   0  0  0  0  0  0
  -24.6770  -15.8413   20.5127 H   0  0  0  0  0  0
  -26.2946  -15.6179   20.0818 H   0  0  0  0  0  0
  -26.7118  -32.5502   23.1107 H   0  0  0  0  0  0
  -25.0028  -33.9764   25.0411 H   0  0  0  0  0  0
  -22.7024  -31.3075   21.4010 H   0  0  0  0  0  0
  -23.3751  -35.9622   23.3289 H   0  0  0  0  0  0
  -24.3571  -36.8928   22.2051 H   0  0  0  0  0  0
  -23.7230  -37.6490   23.6665 H   0  0  0  0  0  0
  -26.0555  -31.5844   20.5991 H   0  0  0  0  0  0
  -26.8277  -30.8717   21.9858 H   0  0  0  0  0  0
  -28.1038  -29.0614   21.1711 H   0  0  0  0  0  0
  -26.0082  -25.9375   19.0325 H   0  0  0  0  0  0
  -23.9793  -27.2784   19.0550 H   0  0  0  0  0  0
  -23.7417  -30.5913   19.4024 H   0  0  0  0  0  0
  -22.7457  -29.2409   19.8582 H   0  0  0  0  0  0
  -25.1290  -36.1929   25.0808 H   0  0  0  0  0  0
  -20.9993  -28.3264   24.1417 H   0  0  0  0  0  0
  -20.5665  -26.2302   23.3603 H   0  0  0  0  0  0
  -21.6635  -26.7471   22.1218 H   0  0  0  0  0  0
  -19.6919  -25.6300   21.1255 H   0  0  0  0  0  0
  -19.6708  -27.3186   20.6725 H   0  0  0  0  0  0
  -17.4206  -26.6711   21.4009 H   0  0  0  0  0  0
  -18.0340  -26.0072   22.9004 H   0  0  0  0  0  0
  -19.7930  -30.7256   24.2327 H   0  0  0  0  0  0
  -17.5025  -31.6297   24.5147 H   0  0  0  0  0  0
  -15.5357  -30.3033   23.7638 H   0  0  0  0  0  0
  -15.8661  -28.0850   22.7078 H   0  0  0  0  0  0
  -24.5919  -30.7047   25.7759 H   0  0  0  0  0  0
  -24.8900  -32.2868   26.4848 H   0  0  0  0  0  0
  -25.8056  -30.8900   27.0207 H   0  0  0  0  0  0
  -26.2831  -29.6808   24.1140 H   0  0  0  0  0  0
  -27.4012  -29.7242   25.4573 H   0  0  0  0  0  0
  -27.8692  -30.4312   23.9281 H   0  0  0  0  0  0
  -27.2684  -33.3602   26.2066 H   0  0  0  0  0  0
  -28.3883  -32.6839   25.0328 H   0  0  0  0  0  0
  -28.0694  -31.8403   26.5405 H   0  0  0  0  0  0
  -28.2598  -38.0111   24.7508 H   0  0  0  0  0  0
  -28.1073  -36.2625   24.6277 H   0  0  0  0  0  0
  -27.2294  -37.1448   25.8877 H   0  0  0  0  0  0
  -20.9274  -29.8767   21.6915 H   0  0  0  0  0  0
  -26.0156  -38.2856   24.1439 H   0  0  0  0  0  0
  -28.9751  -19.6095   22.8592 H   0  0  0  0  0  0
  -30.0784  -20.5573   13.7773 H   0  0  0  0  0  0
  -30.1081  -22.0191   14.7563 H   0  0  0  0  0  0
  -28.5833  -21.1726   14.4690 H   0  0  0  0  0  0
  -31.6503  -22.4464   18.6593 H   0  0  0  0  0  0
  -31.9222  -23.2552   20.1787 H   0  0  0  0  0  0
  -31.3804  -24.1625   18.7706 H   0  0  0  0  0  0
  -27.4337  -21.3147   16.6153 H   0  0  0  0  0  0
  -27.6327  -21.2654   18.3507 H   0  0  0  0  0  0
  -27.5742  -19.7664   17.4339 H   0  0  0  0  0  0
  -30.3851  -17.6455   19.5978 H   0  0  0  0  0  0
  -28.7265  -17.5219   20.0977 H   0  0  0  0  0  0
  -30.9624  -19.9410   15.9463 H   0  0  0  0  0  0
  -29.3822  -19.2068   15.7971 H   0  0  0  0  0  0
  -28.3479  -23.9138   21.0854 H   0  0  0  0  0  0
  -29.9365  -24.6147   21.1713 H   0  0  0  0  0  0
  -31.3175  -20.3484   18.3334 H   0  0  0  0  0  0
  -30.1713  -19.0706   18.1781 H   0  0  0  0  0  0
  -29.7009  -17.1151   22.4883 H   0  0  0  0  0  0
  -31.2879  -17.0148   21.7538 H   0  0  0  0  0  0
  -27.8209  -24.9964   18.9509 H   0  0  0  0  0  0
  -29.4352  -25.5622   18.7625 H   0  0  0  0  0  0
  -29.1847  -22.9147   18.8293 H   0  0  0  0  0  0
  -29.8164  -21.8512   17.1777 H   0  0  0  0  0  0
  -29.1131  -22.0557   22.3287 H   0  0  0  0  0  0
  -29.1060  -15.0731   21.7275 H   0  0  0  0  0  0
  1 25  1  0  0  0
  1 30  2  0  0  0
  1 87  1  0  0  0
  2  3  1  0  0  0
  2 25  1  0  0  0
  2 88  1  0  0  0
  2 89  1  0  0  0
  3  4  1  0  0  0
  3 90  1  0  0  0
  3 91  1  0  0  0
  4  5  1  0  0  0
  4 92  1  0  0  0
  4 93  1  0  0  0
  5  6  1  0  0  0
  5 26  1  0  0  0
  5 94  1  0  0  0
  6 25  1  0  0  0
  6 95  1  0  0  0
  6 96  1  0  0  0
  7  8  2  0  0  0
  7 26  1  0  0  0
  7 29  1  0  0  0
  8  9  1  0  0  0
  8 22  1  0  0  0
  9 10  1  0  0  0
  9 27  2  0  0  0
 10 11  2  0  0  0
 10 15  1  0  0  0
 11 12  1  0  0  0
 11 97  1  0  0  0
 12 13  2  0  0  0
 12 98  1  0  0  0
 13 14  1  0  0  0
 13 31  1  0  0  0
 14 15  2  0  0  0
 14 99  1  0  0  0
 15100  1  0  0  0
 16 17  2  0  0  0
 16 21  1  0  0  0
 16 31  1  0  0  0
 17 18  1  0  0  0
 17101  1  0  0  0
 18 19  2  0  0  0
 18102  1  0  0  0
 19 20  1  0  0  0
 19 24  1  0  0  0
 20 21  2  0  0  0
 20103  1  0  0  0
 21 23  1  0  0  0
 22 28  1  0  0  0
 22 32  2  0  0  0
 26 27  1  0  0  0
 28104  1  0  0  0
 28105  1  0  0  0
 29106  1  0  0  0
 29107  1  0  0  0
 33 34  1  0  0  0
 33 66  1  0  0  0
 33 70  2  0  0  0
 34 36  1  0  0  0
 34 59  1  0  0  0
 34108  1  0  0  0
 35 44  2  0  0  0
 35 45  1  0  0  0
 35 68  1  0  0  0
 36 56  1  0  0  0
 36109  1  0  0  0
 37 39  1  0  0  0
 37 47  1  0  0  0
 37 66  1  0  0  0
 37110  1  0  0  0
 38 43  2  0  0  0
 38 46  1  0  0  0
 38 47  1  0  0  0
 39 64  1  0  0  0
 39 67  2  0  0  0
 40 52  1  0  0  0
 40 53  2  0  0  0
 40 58  1  0  0  0
 41111  1  0  0  0
 41112  1  0  0  0
 41113  1  0  0  0
 41 48  1  0  0  0
 42 43  1  0  0  0
 42 66  1  0  0  0
 42114  1  0  0  0
 42115  1  0  0  0
 43 44  1  0  0  0
 44116  1  0  0  0
 45 46  2  0  0  0
 45117  1  0  0  0
 46118  1  0  0  0
 47119  1  0  0  0
 47120  1  0  0  0
 48 56  1  0  0  0
 48 65  1  0  0  0
 48121  1  0  0  0
 49 50  1  0  0  0
 49 53  1  0  0  0
 49 64  1  0  0  0
 49122  1  0  0  0
 50 51  1  0  0  0
 50123  1  0  0  0
 50124  1  0  0  0
 51 52  1  0  0  0
 51125  1  0  0  0
 51126  1  0  0  0
 52127  1  0  0  0
 52128  1  0  0  0
 53 54  1  0  0  0
 54 55  2  0  0  0
 54129  1  0  0  0
 55 57  1  0  0  0
 55130  1  0  0  0
 56 69  2  0  0  0
 57 58  2  0  0  0
 57131  1  0  0  0
 58132  1  0  0  0
 59 60  1  0  0  0
 59 61  1  0  0  0
 59 62  1  0  0  0
 60133  1  0  0  0
 60134  1  0  0  0
 60135  1  0  0  0
 61136  1  0  0  0
 61137  1  0  0  0
 61138  1  0  0  0
 62139  1  0  0  0
 62140  1  0  0  0
 62141  1  0  0  0
 63 65  1  0  0  0
 63142  1  0  0  0
 63143  1  0  0  0
 63144  1  0  0  0
 64145  1  0  0  0
 65146  1  0  0  0
 68 82  1  0  0  0
 71 72  2  0  0  0
 71 86  1  0  0  0
 71147  1  0  0  0
 72 77  1  0  0  0
 72 85  1  0  0  0
 73 83  1  0  0  0
 73 85  1  0  0  0
 73 86  2  0  0  0
 74 78  1  0  0  0
 74148  1  0  0  0
 74149  1  0  0  0
 74150  1  0  0  0
 75151  1  0  0  0
 75152  1  0  0  0
 75153  1  0  0  0
 75 83  1  0  0  0
 76154  1  0  0  0
 76155  1  0  0  0
 76156  1  0  0  0
 76 84  1  0  0  0
 77 81  1  0  0  0
 77157  1  0  0  0
 77158  1  0  0  0
 78 84  1  0  0  0
 78159  1  0  0  0
 78160  1  0  0  0
 79 82  1  0  0  0
 79 83  1  0  0  0
 79161  1  0  0  0
 79162  1  0  0  0
 80 84  1  0  0  0
 80 85  1  0  0  0
 80163  1  0  0  0
 80164  1  0  0  0
 81 87  1  0  0  0
 81165  1  0  0  0
 81166  1  0  0  0
 82167  1  0  0  0
 82168  1  0  0  0
 83169  1  0  0  0
 84170  1  0  0  0
 86171  1  0  0  0
 87172  1  0  0  0
M  CHG  1  86   1
M  ISO  4   1 100  68 101  82 101  87 100
M  END
> <chiral flag>
0

> <version>
0

> <s_m_source_file>
/data/baiqing/PycharmProjects/Reinvent-master-3.2/result/LINK_invent/BTK/process_docking_weight1_custom_sum_contain_oxygen_bond_distance_aromatic_linkinvent_7_9_3/rearranged_h_0092.sdf

> <i_m_source_file_index>
51

> <r_mmod_Potential_Energy-OPLS-2005>
-60.7411079406738

> <r_mmod_Stretch_Energy-OPLS-2005>
59.7243347167969

> <r_mmod_Bend_Energy-OPLS-2005>
144.632522583008

> <r_mmod_Torsional_Energy-OPLS-2005>
225.918167114258

> <r_mmod_Improper_Torsional_Energy-OPLS-2005>
3.07735347747803

> <r_mmod_Van_der_Waal_Energy-OPLS-2005>
131.085403442383

> <r_mmod_Electrostatic_Energy-OPLS-2005>
-228.152847290039

> <r_mmod_Solvation_Energy-OPLS-2005>
-416.534393310547

> <b_mmod_Minimization_Converged-OPLS-2005>
0

> <r_mmod_RMS_Derivative-OPLS-2005>
5.77238512039185

$$$$
53
                    3D
 Structure written by MMmdl.
174182  0  0  1  0            999 V2000
  -30.7236  -14.4393   20.6437 C   0  0  0  0  0  0
  -30.4244  -12.3161   19.4077 C   0  0  0  0  0  0
  -29.4884  -12.5209   18.1997 C   0  0  0  0  0  0
  -28.0131  -12.3699   18.6166 C   0  0  0  0  0  0
  -27.6638  -13.2023   19.8780 C   0  0  2  0  0  0
  -28.7030  -12.9652   20.9957 C   0  0  0  0  0  0
  -25.2601  -13.8152   20.5679 C   0  0  0  0  0  0
  -24.1841  -13.0436   20.9163 C   0  0  0  0  0  0
  -24.6388  -11.6900   20.8725 C   0  0  0  0  0  0
  -23.9048  -10.4293   21.0399 C   0  0  0  0  0  0
  -24.3605   -9.4212   21.9179 C   0  0  0  0  0  0
  -23.6286   -8.2246   22.0753 C   0  0  0  0  0  0
  -22.4268   -8.0280   21.3542 C   0  0  0  0  0  0
  -21.9897   -9.0252   20.4643 C   0  0  0  0  0  0
  -22.7221  -10.2135   20.3050 C   0  0  0  0  0  0
  -21.6852   -6.0732   22.5278 C   0  0  0  0  0  0
  -21.4014   -6.5637   23.8212 C   0  0  0  0  0  0
  -21.3657   -5.6791   24.9173 C   0  0  0  0  0  0
  -21.6046   -4.3054   24.7224 C   0  0  0  0  0  0
  -21.8819   -3.8148   23.4346 C   0  0  0  0  0  0
  -21.9194   -4.6961   22.3401 C   0  0  0  0  0  0
  -22.7868  -13.5244   21.1835 C   0  0  0  0  0  0
  -22.1662   -4.2147   21.0981 F   0  0  0  0  0  0
  -21.5629   -3.4540   25.7739 F   0  0  0  0  0  0
  -30.0388  -13.2764   20.4545 N   0  0  0  0  0  0
  -26.3035  -12.9311   20.3377 N   0  0  0  0  0  0
  -25.9313  -11.6476   20.5759 N   0  0  0  0  0  0
  -22.0509  -12.8235   22.0389 N   0  0  0  0  0  0
  -25.4337  -15.1869   20.4097 N   0  0  0  0  0  0
  -31.7794  -14.6965   20.0556 O   0  0  0  0  0  0
  -21.6637   -6.8875   21.4241 O   0  0  0  0  0  0
  -22.3554  -14.5554   20.6692 O   0  0  0  0  0  0
  -24.6162  -31.8673   23.2099 C   0  0  0  0  0  0
  -25.9058  -32.4814   23.8393 C   0  0  1  0  0  0
  -27.2355  -27.4248   20.0819 C   0  0  0  0  0  0
  -25.5913  -33.8612   24.2324 N   0  0  0  0  0  0
  -23.4024  -30.4929   21.5505 C   0  0  2  0  0  0
  -24.8461  -28.9546   20.1171 C   0  0  0  0  0  0
  -22.7398  -29.4673   22.4985 C   0  0  0  0  0  0
  -18.0267  -28.1372   22.8493 C   0  0  0  0  0  0
  -24.1487  -36.7315   23.2638 C   0  0  0  0  0  0
  -25.9330  -30.8275   21.3643 C   0  0  0  0  0  0
  -26.0075  -29.4607   20.7119 C   0  0  0  0  0  0
  -27.2003  -28.7004   20.6961 C   0  0  0  0  0  0
  -26.0416  -26.9235   19.5104 C   0  0  0  0  0  0
  -24.8567  -27.6841   19.5195 C   0  0  0  0  0  0
  -23.6107  -29.8256   20.1650 C   0  0  0  0  0  0
  -25.4108  -36.3104   24.0333 C   0  0  1  0  0  0
  -20.5856  -28.3663   23.1319 C   0  0  2  0  0  0
  -20.6757  -26.9398   22.5423 C   0  0  0  0  0  0
  -19.5740  -26.6384   21.5213 C   0  0  0  0  0  0
  -18.1914  -26.7922   22.1618 C   0  0  0  0  0  0
  -19.1514  -28.8833   23.2906 C   0  0  0  0  0  0
  -18.9451  -30.1440   23.8917 C   0  0  0  0  0  0
  -17.6452  -30.6580   24.0570 C   0  0  0  0  0  0
  -25.9038  -34.9468   23.5125 C   0  0  0  0  0  0
  -16.5344  -29.9080   23.6330 C   0  0  0  0  0  0
  -16.7259  -28.6500   23.0353 C   0  0  0  0  0  0
  -26.4479  -31.6593   25.0723 C   0  0  0  0  0  0
  -25.3750  -31.3692   26.1478 C   0  0  0  0  0  0
  -27.0322  -30.3039   24.6108 C   0  0  0  0  0  0
  -27.6063  -32.4311   25.7476 C   0  0  0  0  0  0
  -27.5576  -37.1805   24.8461 C   0  0  0  0  0  0
  -21.4125  -29.3040   22.3725 N   0  0  0  0  0  0
  -26.4290  -37.3792   23.9410 N   0  0  0  0  0  0
  -24.6689  -31.0768   22.1001 N   0  0  0  0  0  0
  -23.4165  -28.8213   23.3029 O   0  0  0  0  0  0
  -28.4283  -26.7216   20.0820 O   0  0  0  0  0  0
  -26.5591  -34.8919   22.4680 O   0  0  0  0  0  0
  -23.5356  -32.1436   23.7495 O   0  0  0  0  0  0
  -29.4982  -21.3720   20.6706 C   0  0  0  0  0  0
  -29.9367  -20.0879   21.0493 C   0  0  0  0  0  0
  -29.0715  -21.6307   19.3503 C   0  0  0  0  0  0
  -29.9774  -19.0235   20.1240 C   0  0  0  0  0  0
  -29.0474  -20.5492   18.4182 C   0  0  0  0  0  0
  -29.5144  -19.2505   18.7974 C   0  0  0  0  0  0
  -30.8478  -18.0700   16.9616 C   0  0  0  0  0  0
  -26.4004  -20.7413   15.5343 C   0  0  0  0  0  0
  -30.5272  -15.3106   22.8953 C   0  0  0  0  0  0
  -28.6898  -23.0570   18.8955 C   0  0  0  0  0  0
  -30.5834  -17.6819   20.5764 C   0  0  0  0  0  0
  -29.5469  -18.1056   17.7771 C   0  0  0  0  0  0
  -28.4958  -20.7846   17.0060 C   0  0  0  0  0  0
  -26.9805  -20.5199   16.9358 C   0  0  0  0  0  0
  -28.6357  -24.2216   19.9212 C   0  0  0  0  0  0
  -29.5544  -16.6092   21.0219 C   0  0  0  0  0  0
  -28.6136  -25.5976   19.2033 C   0  0  0  0  0  0
  -30.1499  -15.3352   21.4819 N   0  0  0  0  0  0
  -31.4654  -12.4296   19.1000 H   0  0  0  0  0  0
  -30.3395  -11.2975   19.7893 H   0  0  0  0  0  0
  -29.7277  -11.8046   17.4121 H   0  0  0  0  0  0
  -29.6485  -13.5118   17.7717 H   0  0  0  0  0  0
  -27.8281  -11.3122   18.8085 H   0  0  0  0  0  0
  -27.3576  -12.6466   17.7901 H   0  0  0  0  0  0
  -27.7139  -14.2522   19.5911 H   0  0  0  0  0  0
  -28.6787  -11.9246   21.3222 H   0  0  0  0  0  0
  -28.4482  -13.5498   21.8798 H   0  0  0  0  0  0
  -25.2754   -9.5691   22.4750 H   0  0  0  0  0  0
  -23.9999   -7.4638   22.7474 H   0  0  0  0  0  0
  -21.0832   -8.8766   19.8952 H   0  0  0  0  0  0
  -22.3679  -10.9670   19.6161 H   0  0  0  0  0  0
  -21.2006   -7.6144   23.9714 H   0  0  0  0  0  0
  -21.1477   -6.0522   25.9076 H   0  0  0  0  0  0
  -22.0602   -2.7610   23.2850 H   0  0  0  0  0  0
  -22.4122  -11.9892   22.4769 H   0  0  0  0  0  0
  -21.1132  -13.1271   22.2604 H   0  0  0  0  0  0
  -24.6728  -15.8466   20.5260 H   0  0  0  0  0  0
  -26.2958  -15.6255   20.1122 H   0  0  0  0  0  0
  -26.7122  -32.5511   23.1149 H   0  0  0  0  0  0
  -25.0091  -33.9775   25.0487 H   0  0  0  0  0  0
  -22.6935  -31.3114   21.4112 H   0  0  0  0  0  0
  -23.3742  -35.9652   23.3309 H   0  0  0  0  0  0
  -24.3585  -36.8931   22.2051 H   0  0  0  0  0  0
  -23.7247  -37.6522   23.6656 H   0  0  0  0  0  0
  -26.0474  -31.5921   20.5947 H   0  0  0  0  0  0
  -26.8198  -30.8794   21.9838 H   0  0  0  0  0  0
  -28.0991  -29.0920   21.1519 H   0  0  0  0  0  0
  -25.9911  -25.9402   19.0688 H   0  0  0  0  0  0
  -23.9577  -27.2804   19.0747 H   0  0  0  0  0  0
  -23.7211  -30.6005   19.4055 H   0  0  0  0  0  0
  -22.7327  -29.2481   19.8689 H   0  0  0  0  0  0
  -25.1283  -36.1966   25.0826 H   0  0  0  0  0  0
  -20.9955  -28.3232   24.1437 H   0  0  0  0  0  0
  -20.5661  -26.2268   23.3608 H   0  0  0  0  0  0
  -21.6631  -26.7442   22.1218 H   0  0  0  0  0  0
  -19.6905  -25.6297   21.1233 H   0  0  0  0  0  0
  -19.6685  -27.3205   20.6751 H   0  0  0  0  0  0
  -17.4190  -26.6685   21.4008 H   0  0  0  0  0  0
  -18.0309  -26.0045   22.8995 H   0  0  0  0  0  0
  -19.7929  -30.7249   24.2292 H   0  0  0  0  0  0
  -17.5011  -31.6268   24.5162 H   0  0  0  0  0  0
  -15.5346  -30.2994   23.7648 H   0  0  0  0  0  0
  -15.8658  -28.0834   22.7057 H   0  0  0  0  0  0
  -24.5953  -30.6993   25.7835 H   0  0  0  0  0  0
  -24.8903  -32.2832   26.4915 H   0  0  0  0  0  0
  -25.8121  -30.8897   27.0247 H   0  0  0  0  0  0
  -26.2869  -29.6780   24.1192 H   0  0  0  0  0  0
  -27.4120  -29.7297   25.4568 H   0  0  0  0  0  0
  -27.8682  -30.4363   23.9240 H   0  0  0  0  0  0
  -27.2708  -33.3625   26.2052 H   0  0  0  0  0  0
  -28.3872  -32.6849   25.0293 H   0  0  0  0  0  0
  -28.0721  -31.8429   26.5395 H   0  0  0  0  0  0
  -28.2594  -38.0101   24.7522 H   0  0  0  0  0  0
  -28.1069  -36.2633   24.6273 H   0  0  0  0  0  0
  -27.2295  -37.1453   25.8862 H   0  0  0  0  0  0
  -20.9270  -29.8779   21.6972 H   0  0  0  0  0  0
  -26.0175  -38.2868   24.1418 H   0  0  0  0  0  0
  -29.5166  -22.1576   21.4116 H   0  0  0  0  0  0
  -30.2782  -19.9332   22.0641 H   0  0  0  0  0  0
  -30.8362  -17.2380   16.2567 H   0  0  0  0  0  0
  -31.7194  -17.9426   17.6032 H   0  0  0  0  0  0
  -30.9932  -18.9851   16.3890 H   0  0  0  0  0  0
  -25.3347  -20.5103   15.5155 H   0  0  0  0  0  0
  -26.8908  -20.1039   14.7979 H   0  0  0  0  0  0
  -26.5198  -21.7771   15.2163 H   0  0  0  0  0  0
  -29.7649  -15.7748   23.5214 H   0  0  0  0  0  0
  -31.4654  -15.8455   23.0479 H   0  0  0  0  0  0
  -30.6619  -14.2892   23.2554 H   0  0  0  0  0  0
  -27.7196  -23.0171   18.3993 H   0  0  0  0  0  0
  -29.4147  -23.3339   18.1286 H   0  0  0  0  0  0
  -31.2636  -17.8800   21.4058 H   0  0  0  0  0  0
  -31.2219  -17.2958   19.7836 H   0  0  0  0  0  0
  -28.6898  -18.1579   17.1075 H   0  0  0  0  0  0
  -29.4185  -17.1447   18.2669 H   0  0  0  0  0  0
  -29.0152  -20.1672   16.2756 H   0  0  0  0  0  0
  -28.7076  -21.7955   16.6629 H   0  0  0  0  0  0
  -26.7699  -19.4977   17.2515 H   0  0  0  0  0  0
  -26.4577  -21.1628   17.6445 H   0  0  0  0  0  0
  -29.5141  -24.2075   20.5658 H   0  0  0  0  0  0
  -27.7637  -24.1076   20.5662 H   0  0  0  0  0  0
  -28.8619  -16.3825   20.2129 H   0  0  0  0  0  0
  -28.9299  -17.0234   21.8144 H   0  0  0  0  0  0
  -27.9258  -25.5901   18.3593 H   0  0  0  0  0  0
  -29.5879  -25.7419   18.7351 H   0  0  0  0  0  0
  1 25  1  0  0  0
  1 30  2  0  0  0
  1 88  1  0  0  0
  2  3  1  0  0  0
  2 25  1  0  0  0
  2 89  1  0  0  0
  2 90  1  0  0  0
  3  4  1  0  0  0
  3 91  1  0  0  0
  3 92  1  0  0  0
  4  5  1  0  0  0
  4 93  1  0  0  0
  4 94  1  0  0  0
  5  6  1  0  0  0
  5 26  1  0  0  0
  5 95  1  0  0  0
  6 25  1  0  0  0
  6 96  1  0  0  0
  6 97  1  0  0  0
  7  8  2  0  0  0
  7 26  1  0  0  0
  7 29  1  0  0  0
  8  9  1  0  0  0
  8 22  1  0  0  0
  9 10  1  0  0  0
  9 27  2  0  0  0
 10 11  2  0  0  0
 10 15  1  0  0  0
 11 12  1  0  0  0
 11 98  1  0  0  0
 12 13  2  0  0  0
 12 99  1  0  0  0
 13 14  1  0  0  0
 13 31  1  0  0  0
 14 15  2  0  0  0
 14100  1  0  0  0
 15101  1  0  0  0
 16 17  2  0  0  0
 16 21  1  0  0  0
 16 31  1  0  0  0
 17 18  1  0  0  0
 17102  1  0  0  0
 18 19  2  0  0  0
 18103  1  0  0  0
 19 20  1  0  0  0
 19 24  1  0  0  0
 20 21  2  0  0  0
 20104  1  0  0  0
 21 23  1  0  0  0
 22 28  1  0  0  0
 22 32  2  0  0  0
 26 27  1  0  0  0
 28105  1  0  0  0
 28106  1  0  0  0
 29107  1  0  0  0
 29108  1  0  0  0
 33 34  1  0  0  0
 33 66  1  0  0  0
 33 70  2  0  0  0
 34 36  1  0  0  0
 34 59  1  0  0  0
 34109  1  0  0  0
 35 44  2  0  0  0
 35 45  1  0  0  0
 35 68  1  0  0  0
 36 56  1  0  0  0
 36110  1  0  0  0
 37 39  1  0  0  0
 37 47  1  0  0  0
 37 66  1  0  0  0
 37111  1  0  0  0
 38 43  2  0  0  0
 38 46  1  0  0  0
 38 47  1  0  0  0
 39 64  1  0  0  0
 39 67  2  0  0  0
 40 52  1  0  0  0
 40 53  2  0  0  0
 40 58  1  0  0  0
 41112  1  0  0  0
 41113  1  0  0  0
 41114  1  0  0  0
 41 48  1  0  0  0
 42 43  1  0  0  0
 42 66  1  0  0  0
 42115  1  0  0  0
 42116  1  0  0  0
 43 44  1  0  0  0
 44117  1  0  0  0
 45 46  2  0  0  0
 45118  1  0  0  0
 46119  1  0  0  0
 47120  1  0  0  0
 47121  1  0  0  0
 48 56  1  0  0  0
 48 65  1  0  0  0
 48122  1  0  0  0
 49 50  1  0  0  0
 49 53  1  0  0  0
 49 64  1  0  0  0
 49123  1  0  0  0
 50 51  1  0  0  0
 50124  1  0  0  0
 50125  1  0  0  0
 51 52  1  0  0  0
 51126  1  0  0  0
 51127  1  0  0  0
 52128  1  0  0  0
 52129  1  0  0  0
 53 54  1  0  0  0
 54 55  2  0  0  0
 54130  1  0  0  0
 55 57  1  0  0  0
 55131  1  0  0  0
 56 69  2  0  0  0
 57 58  2  0  0  0
 57132  1  0  0  0
 58133  1  0  0  0
 59 60  1  0  0  0
 59 61  1  0  0  0
 59 62  1  0  0  0
 60134  1  0  0  0
 60135  1  0  0  0
 60136  1  0  0  0
 61137  1  0  0  0
 61138  1  0  0  0
 61139  1  0  0  0
 62140  1  0  0  0
 62141  1  0  0  0
 62142  1  0  0  0
 63 65  1  0  0  0
 63143  1  0  0  0
 63144  1  0  0  0
 63145  1  0  0  0
 64146  1  0  0  0
 65147  1  0  0  0
 68 87  1  0  0  0
 71 72  2  0  0  0
 71 73  1  0  0  0
 71148  1  0  0  0
 72 74  1  0  0  0
 72149  1  0  0  0
 73 75  2  0  0  0
 73 80  1  0  0  0
 74 76  2  0  0  0
 74 81  1  0  0  0
 75 76  1  0  0  0
 75 83  1  0  0  0
 76 82  1  0  0  0
 77 82  1  0  0  0
 77150  1  0  0  0
 77151  1  0  0  0
 77152  1  0  0  0
 78 84  1  0  0  0
 78153  1  0  0  0
 78154  1  0  0  0
 78155  1  0  0  0
 79 88  1  0  0  0
 79156  1  0  0  0
 79157  1  0  0  0
 79158  1  0  0  0
 80 85  1  0  0  0
 80159  1  0  0  0
 80160  1  0  0  0
 81 86  1  0  0  0
 81161  1  0  0  0
 81162  1  0  0  0
 82163  1  0  0  0
 82164  1  0  0  0
 83 84  1  0  0  0
 83165  1  0  0  0
 83166  1  0  0  0
 84167  1  0  0  0
 84168  1  0  0  0
 85 87  1  0  0  0
 85169  1  0  0  0
 85170  1  0  0  0
 86 88  1  0  0  0
 86171  1  0  0  0
 86172  1  0  0  0
 87173  1  0  0  0
 87174  1  0  0  0
M  ISO  4   1 100  68 101  87 101  88 100
M  END
> <chiral flag>
0

> <version>
0

> <s_m_source_file>
/data/baiqing/PycharmProjects/Reinvent-master-3.2/result/LINK_invent/BTK/process_docking_weight1_custom_sum_contain_oxygen_bond_distance_aromatic_linkinvent_7_9_3/rearranged_h_0092.sdf

> <i_m_source_file_index>
52

> <r_mmod_Potential_Energy-OPLS-2005>
99.0528717041016

> <r_mmod_Stretch_Energy-OPLS-2005>
45.6731109619141

> <r_mmod_Bend_Energy-OPLS-2005>
109.883323669434

> <r_mmod_Torsional_Energy-OPLS-2005>
281.345520019531

> <r_mmod_Improper_Torsional_Energy-OPLS-2005>
3.25250148773193

> <r_mmod_Van_der_Waal_Energy-OPLS-2005>
155.056228637695

> <r_mmod_Electrostatic_Energy-OPLS-2005>
-324.071441650391

> <r_mmod_Solvation_Energy-OPLS-2005>
-182.475997924805

> <b_mmod_Minimization_Converged-OPLS-2005>
0

> <r_mmod_RMS_Derivative-OPLS-2005>
1.12754893302917

$$$$
54
                    3D
 Structure written by MMmdl.
170178  0  0  1  0            999 V2000
  -30.6378  -14.5599   20.5599 C   0  0  0  0  0  0
  -30.4430  -12.3570   19.4454 C   0  0  0  0  0  0
  -29.5011  -12.5034   18.2303 C   0  0  0  0  0  0
  -28.0250  -12.3422   18.6411 C   0  0  0  0  0  0
  -27.6596  -13.2032   19.8769 C   0  0  2  0  0  0
  -28.6962  -13.0114   21.0083 C   0  0  0  0  0  0
  -25.2576  -13.8176   20.5675 C   0  0  0  0  0  0
  -24.1841  -13.0479   20.9191 C   0  0  0  0  0  0
  -24.6392  -11.6933   20.8777 C   0  0  0  0  0  0
  -23.9072  -10.4325   21.0411 C   0  0  0  0  0  0
  -24.3632   -9.4239   21.9184 C   0  0  0  0  0  0
  -23.6320   -8.2270   22.0743 C   0  0  0  0  0  0
  -22.4294   -8.0325   21.3536 C   0  0  0  0  0  0
  -21.9931   -9.0296   20.4628 C   0  0  0  0  0  0
  -22.7252  -10.2175   20.3046 C   0  0  0  0  0  0
  -21.6873   -6.0775   22.5271 C   0  0  0  0  0  0
  -21.4030   -6.5664   23.8212 C   0  0  0  0  0  0
  -21.3645   -5.6795   24.9161 C   0  0  0  0  0  0
  -21.6024   -4.3059   24.7188 C   0  0  0  0  0  0
  -21.8839   -3.8172   23.4311 C   0  0  0  0  0  0
  -21.9204   -4.7003   22.3377 C   0  0  0  0  0  0
  -22.7839  -13.5257   21.1843 C   0  0  0  0  0  0
  -22.1679   -4.2204   21.0954 F   0  0  0  0  0  0
  -21.5606   -3.4535   25.7692 F   0  0  0  0  0  0
  -30.0263  -13.3418   20.4613 N   0  0  0  0  0  0
  -26.3011  -12.9339   20.3361 N   0  0  0  0  0  0
  -25.9312  -11.6514   20.5791 N   0  0  0  0  0  0
  -22.0498  -12.8242   22.0404 N   0  0  0  0  0  0
  -25.4326  -15.1894   20.4044 N   0  0  0  0  0  0
  -31.7611  -14.7820   20.0988 O   0  0  0  0  0  0
  -21.6665   -6.8921   21.4233 O   0  0  0  0  0  0
  -22.3528  -14.5570   20.6691 O   0  0  0  0  0  0
  -24.6170  -31.8644   23.2026 C   0  0  0  0  0  0
  -25.9046  -32.4811   23.8354 C   0  0  1  0  0  0
  -27.2452  -27.3945   20.1165 C   0  0  0  0  0  0
  -25.5890  -33.8621   24.2289 N   0  0  0  0  0  0
  -23.4067  -30.4804   21.5452 C   0  0  2  0  0  0
  -24.8546  -28.9409   20.1106 C   0  0  0  0  0  0
  -22.7419  -29.4632   22.4999 C   0  0  0  0  0  0
  -18.0308  -28.1365   22.8536 C   0  0  0  0  0  0
  -24.1477  -36.7314   23.2636 C   0  0  0  0  0  0
  -25.9325  -30.8241   21.3538 C   0  0  0  0  0  0
  -26.0131  -29.4510   20.7078 C   0  0  0  0  0  0
  -27.2060  -28.6876   20.7012 C   0  0  0  0  0  0
  -26.0644  -26.9062   19.5124 C   0  0  0  0  0  0
  -24.8787  -27.6723   19.5039 C   0  0  0  0  0  0
  -23.6127  -29.8047   20.1620 C   0  0  0  0  0  0
  -25.4106  -36.3127   24.0330 C   0  0  1  0  0  0
  -20.5891  -28.3668   23.1348 C   0  0  2  0  0  0
  -20.6784  -26.9390   22.5477 C   0  0  0  0  0  0
  -19.5751  -26.6380   21.5286 C   0  0  0  0  0  0
  -18.1938  -26.7912   22.1686 C   0  0  0  0  0  0
  -19.1548  -28.8833   23.2923 C   0  0  0  0  0  0
  -18.9461  -30.1438   23.8939 C   0  0  0  0  0  0
  -17.6448  -30.6574   24.0572 C   0  0  0  0  0  0
  -25.9040  -34.9484   23.5116 C   0  0  0  0  0  0
  -16.5355  -29.9075   23.6313 C   0  0  0  0  0  0
  -16.7297  -28.6489   23.0371 C   0  0  0  0  0  0
  -26.4465  -31.6625   25.0707 C   0  0  0  0  0  0
  -25.3693  -31.3704   26.1411 C   0  0  0  0  0  0
  -27.0296  -30.3073   24.6092 C   0  0  0  0  0  0
  -27.6064  -32.4322   25.7470 C   0  0  0  0  0  0
  -27.5585  -37.1809   24.8474 C   0  0  0  0  0  0
  -21.4148  -29.3028   22.3747 N   0  0  0  0  0  0
  -26.4303  -37.3803   23.9415 N   0  0  0  0  0  0
  -24.6703  -31.0710   22.0939 N   0  0  0  0  0  0
  -23.4162  -28.8207   23.3085 O   0  0  0  0  0  0
  -28.4357  -26.6807   20.1703 O   0  0  0  0  0  0
  -26.5612  -34.8952   22.4687 O   0  0  0  0  0  0
  -23.5351  -32.1425   23.7387 O   0  0  0  0  0  0
  -26.9786  -21.5004   21.4590 C   0  0  0  0  0  0
  -29.0382  -20.2968   21.0322 C   0  0  0  0  0  0
  -28.2716  -21.5011   20.9038 C   0  0  0  0  0  0
  -26.5112  -20.3757   22.1516 C   0  0  0  0  0  0
  -28.4776  -19.1723   21.7101 C   0  0  0  0  0  0
  -29.9657  -17.8121   23.2818 C   0  0  0  0  0  0
  -24.3436  -22.7043   23.5527 C   0  0  0  0  0  0
  -24.1549  -20.7618   25.1398 C   0  0  0  0  0  0
  -28.7397  -22.7428   20.1080 C   0  0  0  0  0  0
  -25.1248  -20.3786   22.7952 C   0  0  0  0  0  0
  -28.2713  -24.1643   20.6098 C   0  0  0  0  0  0
  -29.9228  -17.0327   20.8332 C   0  0  0  0  0  0
  -28.5879  -25.3427   19.6347 C   0  0  0  0  0  0
  -29.1605  -17.7926   21.9733 C   0  0  1  0  0  0
  -24.9736  -21.3655   23.9832 C   0  0  0  0  0  0
  -27.2494  -19.2541   22.2800 N   0  0  0  0  0  0
  -29.8500  -15.5544   21.0302 N   0  0  0  0  0  0
  -31.4720  -12.5164   19.1208 H   0  0  0  0  0  0
  -30.4201  -11.3458   19.8559 H   0  0  0  0  0  0
  -29.7624  -11.7698   17.4665 H   0  0  0  0  0  0
  -29.6448  -13.4843   17.7768 H   0  0  0  0  0  0
  -27.8496  -11.2889   18.8592 H   0  0  0  0  0  0
  -27.3760  -12.5908   17.8006 H   0  0  0  0  0  0
  -27.6976  -14.2436   19.5548 H   0  0  0  0  0  0
  -28.6848  -11.9828   21.3740 H   0  0  0  0  0  0
  -28.4329  -13.6211   21.8744 H   0  0  0  0  0  0
  -25.2785   -9.5736   22.4761 H   0  0  0  0  0  0
  -24.0060   -7.4655   22.7438 H   0  0  0  0  0  0
  -21.0884   -8.8810   19.8910 H   0  0  0  0  0  0
  -22.3728  -10.9730   19.6161 H   0  0  0  0  0  0
  -21.2062   -7.6181   23.9739 H   0  0  0  0  0  0
  -21.1419   -6.0508   25.9060 H   0  0  0  0  0  0
  -22.0636   -2.7650   23.2769 H   0  0  0  0  0  0
  -22.4125  -11.9902   22.4786 H   0  0  0  0  0  0
  -21.1095  -13.1211   22.2590 H   0  0  0  0  0  0
  -24.6672  -15.8455   20.5176 H   0  0  0  0  0  0
  -26.2826  -15.6299   20.0790 H   0  0  0  0  0  0
  -26.7131  -32.5495   23.1131 H   0  0  0  0  0  0
  -25.0022  -33.9798   25.0418 H   0  0  0  0  0  0
  -22.6943  -31.2942   21.4016 H   0  0  0  0  0  0
  -23.3756  -35.9637   23.3309 H   0  0  0  0  0  0
  -24.3550  -36.8919   22.2052 H   0  0  0  0  0  0
  -23.7223  -37.6513   23.6642 H   0  0  0  0  0  0
  -26.0378  -31.5849   20.5781 H   0  0  0  0  0  0
  -26.8218  -30.8842   21.9681 H   0  0  0  0  0  0
  -28.1009  -29.0880   21.1558 H   0  0  0  0  0  0
  -26.0269  -25.9298   19.0517 H   0  0  0  0  0  0
  -23.9897  -27.2741   19.0328 H   0  0  0  0  0  0
  -23.7112  -30.5715   19.3929 H   0  0  0  0  0  0
  -22.7363  -29.2185   19.8790 H   0  0  0  0  0  0
  -25.1290  -36.1988   25.0823 H   0  0  0  0  0  0
  -20.9986  -28.3213   24.1474 H   0  0  0  0  0  0
  -20.5744  -26.2314   23.3714 H   0  0  0  0  0  0
  -21.6644  -26.7400   22.1232 H   0  0  0  0  0  0
  -19.6913  -25.6305   21.1315 H   0  0  0  0  0  0
  -19.6718  -27.3217   20.6841 H   0  0  0  0  0  0
  -17.4220  -26.6691   21.4076 H   0  0  0  0  0  0
  -18.0323  -26.0043   22.9083 H   0  0  0  0  0  0
  -19.7914  -30.7300   24.2326 H   0  0  0  0  0  0
  -17.4968  -31.6250   24.5167 H   0  0  0  0  0  0
  -15.5346  -30.2976   23.7570 H   0  0  0  0  0  0
  -15.8732  -28.0794   22.7052 H   0  0  0  0  0  0
  -24.5891  -30.7058   25.7672 H   0  0  0  0  0  0
  -24.8851  -32.2845   26.4858 H   0  0  0  0  0  0
  -25.8000  -30.8839   27.0170 H   0  0  0  0  0  0
  -26.2843  -29.6836   24.1145 H   0  0  0  0  0  0
  -27.4061  -29.7313   25.4553 H   0  0  0  0  0  0
  -27.8679  -30.4394   23.9248 H   0  0  0  0  0  0
  -27.2741  -33.3621   26.2084 H   0  0  0  0  0  0
  -28.3867  -32.6871   25.0290 H   0  0  0  0  0  0
  -28.0749  -31.8414   26.5347 H   0  0  0  0  0  0
  -28.2619  -38.0084   24.7518 H   0  0  0  0  0  0
  -28.1060  -36.2630   24.6306 H   0  0  0  0  0  0
  -27.2301  -37.1465   25.8869 H   0  0  0  0  0  0
  -20.9315  -29.8658   21.6887 H   0  0  0  0  0  0
  -26.0195  -38.2886   24.1399 H   0  0  0  0  0  0
  -26.3260  -22.3500   21.3520 H   0  0  0  0  0  0
  -30.0351  -20.2364   20.6153 H   0  0  0  0  0  0
  -30.7910  -18.5232   23.2308 H   0  0  0  0  0  0
  -30.3812  -16.8298   23.5068 H   0  0  0  0  0  0
  -29.3302  -18.0892   24.1252 H   0  0  0  0  0  0
  -24.2493  -23.3876   24.3963 H   0  0  0  0  0  0
  -23.3446  -22.5604   23.1375 H   0  0  0  0  0  0
  -24.9410  -23.2171   22.8012 H   0  0  0  0  0  0
  -24.0848  -21.4676   25.9676 H   0  0  0  0  0  0
  -24.6170  -19.8555   25.5347 H   0  0  0  0  0  0
  -23.1374  -20.5179   24.8293 H   0  0  0  0  0  0
  -28.3657  -22.5957   19.0936 H   0  0  0  0  0  0
  -29.8267  -22.7260   20.0272 H   0  0  0  0  0  0
  -24.9247  -19.3656   23.1444 H   0  0  0  0  0  0
  -24.3691  -20.5664   22.0315 H   0  0  0  0  0  0
  -27.1989  -24.1853   20.7881 H   0  0  0  0  0  0
  -28.7426  -24.3632   21.5719 H   0  0  0  0  0  0
  -29.4394  -17.2397   19.8789 H   0  0  0  0  0  0
  -30.9497  -17.3961   20.7412 H   0  0  0  0  0  0
  -28.0593  -25.2277   18.6893 H   0  0  0  0  0  0
  -29.6446  -25.2612   19.3738 H   0  0  0  0  0  0
  -28.3138  -17.1328   22.1732 H   0  0  0  0  0  0
  -25.9673  -21.5665   24.3875 H   0  0  0  0  0  0
  -28.9768  -15.2297   21.4142 H   0  0  0  0  0  0
  1 25  1  0  0  0
  1 30  2  0  0  0
  1 87  1  0  0  0
  2  3  1  0  0  0
  2 25  1  0  0  0
  2 88  1  0  0  0
  2 89  1  0  0  0
  3  4  1  0  0  0
  3 90  1  0  0  0
  3 91  1  0  0  0
  4  5  1  0  0  0
  4 92  1  0  0  0
  4 93  1  0  0  0
  5  6  1  0  0  0
  5 26  1  0  0  0
  5 94  1  0  0  0
  6 25  1  0  0  0
  6 95  1  0  0  0
  6 96  1  0  0  0
  7  8  2  0  0  0
  7 26  1  0  0  0
  7 29  1  0  0  0
  8  9  1  0  0  0
  8 22  1  0  0  0
  9 10  1  0  0  0
  9 27  2  0  0  0
 10 11  2  0  0  0
 10 15  1  0  0  0
 11 12  1  0  0  0
 11 97  1  0  0  0
 12 13  2  0  0  0
 12 98  1  0  0  0
 13 14  1  0  0  0
 13 31  1  0  0  0
 14 15  2  0  0  0
 14 99  1  0  0  0
 15100  1  0  0  0
 16 17  2  0  0  0
 16 21  1  0  0  0
 16 31  1  0  0  0
 17 18  1  0  0  0
 17101  1  0  0  0
 18 19  2  0  0  0
 18102  1  0  0  0
 19 20  1  0  0  0
 19 24  1  0  0  0
 20 21  2  0  0  0
 20103  1  0  0  0
 21 23  1  0  0  0
 22 28  1  0  0  0
 22 32  2  0  0  0
 26 27  1  0  0  0
 28104  1  0  0  0
 28105  1  0  0  0
 29106  1  0  0  0
 29107  1  0  0  0
 33 34  1  0  0  0
 33 66  1  0  0  0
 33 70  2  0  0  0
 34 36  1  0  0  0
 34 59  1  0  0  0
 34108  1  0  0  0
 35 44  2  0  0  0
 35 45  1  0  0  0
 35 68  1  0  0  0
 36 56  1  0  0  0
 36109  1  0  0  0
 37 39  1  0  0  0
 37 47  1  0  0  0
 37 66  1  0  0  0
 37110  1  0  0  0
 38 43  2  0  0  0
 38 46  1  0  0  0
 38 47  1  0  0  0
 39 64  1  0  0  0
 39 67  2  0  0  0
 40 52  1  0  0  0
 40 53  2  0  0  0
 40 58  1  0  0  0
 41111  1  0  0  0
 41112  1  0  0  0
 41113  1  0  0  0
 41 48  1  0  0  0
 42 43  1  0  0  0
 42 66  1  0  0  0
 42114  1  0  0  0
 42115  1  0  0  0
 43 44  1  0  0  0
 44116  1  0  0  0
 45 46  2  0  0  0
 45117  1  0  0  0
 46118  1  0  0  0
 47119  1  0  0  0
 47120  1  0  0  0
 48 56  1  0  0  0
 48 65  1  0  0  0
 48121  1  0  0  0
 49 50  1  0  0  0
 49 53  1  0  0  0
 49 64  1  0  0  0
 49122  1  0  0  0
 50 51  1  0  0  0
 50123  1  0  0  0
 50124  1  0  0  0
 51 52  1  0  0  0
 51125  1  0  0  0
 51126  1  0  0  0
 52127  1  0  0  0
 52128  1  0  0  0
 53 54  1  0  0  0
 54 55  2  0  0  0
 54129  1  0  0  0
 55 57  1  0  0  0
 55130  1  0  0  0
 56 69  2  0  0  0
 57 58  2  0  0  0
 57131  1  0  0  0
 58132  1  0  0  0
 59 60  1  0  0  0
 59 61  1  0  0  0
 59 62  1  0  0  0
 60133  1  0  0  0
 60134  1  0  0  0
 60135  1  0  0  0
 61136  1  0  0  0
 61137  1  0  0  0
 61138  1  0  0  0
 62139  1  0  0  0
 62140  1  0  0  0
 62141  1  0  0  0
 63 65  1  0  0  0
 63142  1  0  0  0
 63143  1  0  0  0
 63144  1  0  0  0
 64145  1  0  0  0
 65146  1  0  0  0
 68 83  1  0  0  0
 71 73  2  0  0  0
 71 74  1  0  0  0
 71147  1  0  0  0
 72 73  1  0  0  0
 72 75  2  0  0  0
 72148  1  0  0  0
 73 79  1  0  0  0
 74 80  1  0  0  0
 74 86  2  0  0  0
 75 84  1  0  0  0
 75 86  1  0  0  0
 76149  1  0  0  0
 76150  1  0  0  0
 76151  1  0  0  0
 76 84  1  0  0  0
 77152  1  0  0  0
 77153  1  0  0  0
 77154  1  0  0  0
 77 85  1  0  0  0
 78 85  1  0  0  0
 78155  1  0  0  0
 78156  1  0  0  0
 78157  1  0  0  0
 79 81  1  0  0  0
 79158  1  0  0  0
 79159  1  0  0  0
 80 85  1  0  0  0
 80160  1  0  0  0
 80161  1  0  0  0
 81 83  1  0  0  0
 81162  1  0  0  0
 81163  1  0  0  0
 82 84  1  0  0  0
 82 87  1  0  0  0
 82164  1  0  0  0
 82165  1  0  0  0
 83166  1  0  0  0
 83167  1  0  0  0
 84168  1  0  0  0
 85169  1  0  0  0
 87170  1  0  0  0
M  ISO  4   1 100  68 101  83 101  87 100
M  END
> <chiral flag>
0

> <version>
0

> <s_m_source_file>
/data/baiqing/PycharmProjects/Reinvent-master-3.2/result/LINK_invent/BTK/process_docking_weight1_custom_sum_contain_oxygen_bond_distance_aromatic_linkinvent_7_9_3/rearranged_h_0092.sdf

> <i_m_source_file_index>
53

> <r_mmod_Potential_Energy-OPLS-2005>
-152.651580810547

> <r_mmod_Stretch_Energy-OPLS-2005>
55.1195030212402

> <r_mmod_Bend_Energy-OPLS-2005>
140.945159912109

> <r_mmod_Torsional_Energy-OPLS-2005>
201.970031738281

> <r_mmod_Improper_Torsional_Energy-OPLS-2005>
5.09943437576294

> <r_mmod_Van_der_Waal_Energy-OPLS-2005>
142.836532592773

> <r_mmod_Electrostatic_Energy-OPLS-2005>
-513.856689453125

> <r_mmod_Solvation_Energy-OPLS-2005>
-209.000106811523

> <b_mmod_Minimization_Converged-OPLS-2005>
0

> <r_mmod_RMS_Derivative-OPLS-2005>
4.44493770599365

$$$$
55
                    3D
 Structure written by MMmdl.
171179  0  0  1  0            999 V2000
  -30.6579  -14.5781   20.4926 C   0  0  0  0  0  0
  -30.4271  -12.3484   19.4587 C   0  0  0  0  0  0
  -29.5019  -12.4921   18.2305 C   0  0  0  0  0  0
  -28.0259  -12.3377   18.6440 C   0  0  0  0  0  0
  -27.6560  -13.2124   19.8717 C   0  0  2  0  0  0
  -28.6990  -13.0626   21.0043 C   0  0  0  0  0  0
  -25.2565  -13.8170   20.5665 C   0  0  0  0  0  0
  -24.1824  -13.0448   20.9188 C   0  0  0  0  0  0
  -24.6390  -11.6919   20.8768 C   0  0  0  0  0  0
  -23.9062  -10.4294   21.0427 C   0  0  0  0  0  0
  -24.3614   -9.4204   21.9200 C   0  0  0  0  0  0
  -23.6286   -8.2241   22.0766 C   0  0  0  0  0  0
  -22.4273   -8.0280   21.3544 C   0  0  0  0  0  0
  -21.9912   -9.0257   20.4646 C   0  0  0  0  0  0
  -22.7240  -10.2137   20.3066 C   0  0  0  0  0  0
  -21.6849   -6.0729   22.5276 C   0  0  0  0  0  0
  -21.4013   -6.5639   23.8208 C   0  0  0  0  0  0
  -21.3660   -5.6795   24.9172 C   0  0  0  0  0  0
  -21.6048   -4.3057   24.7227 C   0  0  0  0  0  0
  -21.8820   -3.8143   23.4349 C   0  0  0  0  0  0
  -21.9193   -4.6957   22.3403 C   0  0  0  0  0  0
  -22.7854  -13.5248   21.1846 C   0  0  0  0  0  0
  -22.1663   -4.2147   21.0983 F   0  0  0  0  0  0
  -21.5626   -3.4539   25.7738 F   0  0  0  0  0  0
  -30.0225  -13.3705   20.4415 N   0  0  0  0  0  0
  -26.3000  -12.9343   20.3375 N   0  0  0  0  0  0
  -25.9323  -11.6506   20.5821 N   0  0  0  0  0  0
  -22.0504  -12.8228   22.0404 N   0  0  0  0  0  0
  -25.4267  -15.1864   20.3985 N   0  0  0  0  0  0
  -31.8179  -14.7222   20.0979 O   0  0  0  0  0  0
  -21.6635   -6.8875   21.4238 O   0  0  0  0  0  0
  -22.3537  -14.5545   20.6693 O   0  0  0  0  0  0
  -24.6210  -31.8628   23.2063 C   0  0  0  0  0  0
  -25.9079  -32.4799   23.8382 C   0  0  1  0  0  0
  -27.2295  -27.3779   20.1124 C   0  0  0  0  0  0
  -25.5915  -33.8601   24.2305 N   0  0  0  0  0  0
  -23.4123  -30.4854   21.5482 C   0  0  2  0  0  0
  -24.8602  -28.9443   20.1133 C   0  0  0  0  0  0
  -22.7451  -29.4636   22.4981 C   0  0  0  0  0  0
  -18.0275  -28.1383   22.8494 C   0  0  0  0  0  0
  -24.1485  -36.7305   23.2645 C   0  0  0  0  0  0
  -25.9468  -30.8138   21.3658 C   0  0  0  0  0  0
  -26.0251  -29.4442   20.7110 C   0  0  0  0  0  0
  -27.2174  -28.6718   20.6996 C   0  0  0  0  0  0
  -26.0495  -26.9112   19.4975 C   0  0  0  0  0  0
  -24.8703  -27.6804   19.4996 C   0  0  0  0  0  0
  -23.6233  -29.8161   20.1642 C   0  0  0  0  0  0
  -25.4107  -36.3095   24.0334 C   0  0  1  0  0  0
  -20.5870  -28.3675   23.1305 C   0  0  2  0  0  0
  -20.6762  -26.9405   22.5412 C   0  0  0  0  0  0
  -19.5737  -26.6381   21.5215 C   0  0  0  0  0  0
  -18.1916  -26.7930   22.1624 C   0  0  0  0  0  0
  -19.1526  -28.8848   23.2888 C   0  0  0  0  0  0
  -18.9453  -30.1454   23.8896 C   0  0  0  0  0  0
  -17.6454  -30.6586   24.0565 C   0  0  0  0  0  0
  -25.9044  -34.9465   23.5118 C   0  0  0  0  0  0
  -16.5343  -29.9083   23.6335 C   0  0  0  0  0  0
  -16.7261  -28.6500   23.0357 C   0  0  0  0  0  0
  -26.4493  -31.6599   25.0734 C   0  0  0  0  0  0
  -25.3745  -31.3691   26.1470 C   0  0  0  0  0  0
  -27.0355  -30.3049   24.6138 C   0  0  0  0  0  0
  -27.6041  -32.4350   25.7501 C   0  0  0  0  0  0
  -27.5576  -37.1805   24.8466 C   0  0  0  0  0  0
  -21.4170  -29.3034   22.3715 N   0  0  0  0  0  0
  -26.4287  -37.3784   23.9414 N   0  0  0  0  0  0
  -24.6787  -31.0692   22.0981 N   0  0  0  0  0  0
  -23.4196  -28.8180   23.3046 O   0  0  0  0  0  0
  -28.3487  -26.5552   20.1318 O   0  0  0  0  0  0
  -26.5604  -34.8924   22.4678 O   0  0  0  0  0  0
  -23.5387  -32.1403   23.7420 O   0  0  0  0  0  0
  -26.5545  -19.3925   23.1941 C   0  0  0  0  0  0
  -27.0465  -20.2722   22.2257 C   0  0  0  0  0  0
  -27.3039  -18.2760   23.5851 C   0  0  0  0  0  0
  -28.2866  -20.0637   21.5765 C   0  0  0  0  0  0
  -28.5343  -18.0004   22.9362 C   0  0  0  0  0  0
  -28.9775  -18.8142   21.8432 C   0  0  0  0  0  0
  -29.3820  -16.8507   23.4849 C   0  0  0  0  0  0
  -24.6229  -16.5945   23.4715 C   0  0  0  0  0  0
  -26.7379  -17.3932   24.6981 C   0  0  0  0  0  0
  -28.7827  -21.2282   20.6501 C   0  0  0  0  0  0
  -30.1906  -18.3177   21.0155 C   0  0  0  0  0  0
  -25.9272  -16.1930   24.1738 C   0  0  0  0  0  0
  -28.3947  -22.6975   21.1227 C   0  0  0  0  0  0
  -28.7189  -23.9616   20.2398 C   0  0  0  0  0  0
  -30.0188  -17.0181   20.1277 C   0  0  0  0  0  0
  -28.1831  -25.3047   20.8690 C   0  0  0  0  0  0
  -29.8690  -15.6589   20.7367 N   0  0  0  0  0  0
  -31.4718  -12.4475   19.1599 H   0  0  0  0  0  0
  -30.3366  -11.3531   19.8968 H   0  0  0  0  0  0
  -29.7584  -11.7472   17.4756 H   0  0  0  0  0  0
  -29.6518  -13.4678   17.7652 H   0  0  0  0  0  0
  -27.8617  -11.2857   18.8801 H   0  0  0  0  0  0
  -27.3690  -12.5662   17.8043 H   0  0  0  0  0  0
  -27.6793  -14.2479   19.5304 H   0  0  0  0  0  0
  -28.6922  -12.0465   21.4020 H   0  0  0  0  0  0
  -28.4575  -13.7135   21.8460 H   0  0  0  0  0  0
  -25.2760   -9.5677   22.4776 H   0  0  0  0  0  0
  -23.9990   -7.4636   22.7494 H   0  0  0  0  0  0
  -21.0843   -8.8782   19.8946 H   0  0  0  0  0  0
  -22.3709  -10.9680   19.6176 H   0  0  0  0  0  0
  -21.2008   -7.6151   23.9708 H   0  0  0  0  0  0
  -21.1480   -6.0526   25.9073 H   0  0  0  0  0  0
  -22.0598   -2.7607   23.2850 H   0  0  0  0  0  0
  -22.4134  -11.9889   22.4775 H   0  0  0  0  0  0
  -21.1122  -13.1239   22.2617 H   0  0  0  0  0  0
  -24.6669  -15.8404   20.5438 H   0  0  0  0  0  0
  -26.2850  -15.6350   20.1071 H   0  0  0  0  0  0
  -26.7149  -32.5491   23.1140 H   0  0  0  0  0  0
  -25.0069  -33.9749   25.0454 H   0  0  0  0  0  0
  -22.7027  -31.3033   21.4069 H   0  0  0  0  0  0
  -23.3748  -35.9635   23.3301 H   0  0  0  0  0  0
  -24.3575  -36.8935   22.2060 H   0  0  0  0  0  0
  -23.7234  -37.6503   23.6676 H   0  0  0  0  0  0
  -26.0656  -31.5800   20.5984 H   0  0  0  0  0  0
  -26.8313  -30.8665   21.9890 H   0  0  0  0  0  0
  -28.1159  -29.0501   21.1665 H   0  0  0  0  0  0
  -26.0380  -25.9378   19.0273 H   0  0  0  0  0  0
  -23.9747  -27.2903   19.0357 H   0  0  0  0  0  0
  -23.7331  -30.5903   19.4039 H   0  0  0  0  0  0
  -22.7455  -29.2379   19.8693 H   0  0  0  0  0  0
  -25.1284  -36.1948   25.0825 H   0  0  0  0  0  0
  -20.9953  -28.3241   24.1431 H   0  0  0  0  0  0
  -20.5667  -26.2281   23.3606 H   0  0  0  0  0  0
  -21.6631  -26.7445   22.1202 H   0  0  0  0  0  0
  -19.6892  -25.6294   21.1240 H   0  0  0  0  0  0
  -19.6668  -27.3192   20.6746 H   0  0  0  0  0  0
  -17.4186  -26.6692   21.4022 H   0  0  0  0  0  0
  -18.0301  -26.0064   22.9011 H   0  0  0  0  0  0
  -19.7929  -30.7272   24.2259 H   0  0  0  0  0  0
  -17.5009  -31.6267   24.5166 H   0  0  0  0  0  0
  -15.5344  -30.2980   23.7665 H   0  0  0  0  0  0
  -15.8662  -28.0815   22.7075 H   0  0  0  0  0  0
  -24.5920  -30.7044   25.7796 H   0  0  0  0  0  0
  -24.8938  -32.2836   26.4951 H   0  0  0  0  0  0
  -25.8097  -30.8834   27.0211 H   0  0  0  0  0  0
  -26.2920  -29.6773   24.1211 H   0  0  0  0  0  0
  -27.4155  -29.7323   25.4609 H   0  0  0  0  0  0
  -27.8737  -30.4385   23.9290 H   0  0  0  0  0  0
  -27.2647  -33.3655   26.2062 H   0  0  0  0  0  0
  -28.3856  -32.6903   25.0333 H   0  0  0  0  0  0
  -28.0708  -31.8494   26.5433 H   0  0  0  0  0  0
  -28.2583  -38.0111   24.7532 H   0  0  0  0  0  0
  -28.1081  -36.2646   24.6273 H   0  0  0  0  0  0
  -27.2298  -37.1427   25.8868 H   0  0  0  0  0  0
  -20.9350  -29.8760   21.6926 H   0  0  0  0  0  0
  -26.0172  -38.2855   24.1424 H   0  0  0  0  0  0
  -25.6049  -19.6036   23.6660 H   0  0  0  0  0  0
  -26.4224  -21.1222   22.0069 H   0  0  0  0  0  0
  -29.5570  -16.9902   24.5511 H   0  0  0  0  0  0
  -30.3777  -16.7718   23.0580 H   0  0  0  0  0  0
  -28.8822  -15.8924   23.3480 H   0  0  0  0  0  0
  -24.0573  -15.7133   23.1694 H   0  0  0  0  0  0
  -24.8192  -17.1809   22.5737 H   0  0  0  0  0  0
  -23.9873  -17.1894   24.1281 H   0  0  0  0  0  0
  -26.1000  -17.9991   25.3441 H   0  0  0  0  0  0
  -27.5299  -17.0427   25.3575 H   0  0  0  0  0  0
  -28.3875  -21.0522   19.6490 H   0  0  0  0  0  0
  -29.8677  -21.1872   20.5636 H   0  0  0  0  0  0
  -31.0682  -18.2333   21.6552 H   0  0  0  0  0  0
  -30.4604  -19.1103   20.3208 H   0  0  0  0  0  0
  -26.5355  -15.5905   23.4984 H   0  0  0  0  0  0
  -25.6797  -15.5452   25.0150 H   0  0  0  0  0  0
  -28.8234  -22.8539   22.1139 H   0  0  0  0  0  0
  -27.3186  -22.7602   21.2538 H   0  0  0  0  0  0
  -28.2719  -23.8299   19.2543 H   0  0  0  0  0  0
  -29.7949  -24.0360   20.0823 H   0  0  0  0  0  0
  -30.8677  -16.9913   19.4424 H   0  0  0  0  0  0
  -29.1526  -17.1665   19.4817 H   0  0  0  0  0  0
  -28.6889  -25.4516   21.8235 H   0  0  0  0  0  0
  -27.1360  -25.1531   21.1371 H   0  0  0  0  0  0
  -28.9475  -15.4435   21.0862 H   0  0  0  0  0  0
  1 25  1  0  0  0
  1 30  2  0  0  0
  1 87  1  0  0  0
  2  3  1  0  0  0
  2 25  1  0  0  0
  2 88  1  0  0  0
  2 89  1  0  0  0
  3  4  1  0  0  0
  3 90  1  0  0  0
  3 91  1  0  0  0
  4  5  1  0  0  0
  4 92  1  0  0  0
  4 93  1  0  0  0
  5  6  1  0  0  0
  5 26  1  0  0  0
  5 94  1  0  0  0
  6 25  1  0  0  0
  6 95  1  0  0  0
  6 96  1  0  0  0
  7  8  2  0  0  0
  7 26  1  0  0  0
  7 29  1  0  0  0
  8  9  1  0  0  0
  8 22  1  0  0  0
  9 10  1  0  0  0
  9 27  2  0  0  0
 10 11  2  0  0  0
 10 15  1  0  0  0
 11 12  1  0  0  0
 11 97  1  0  0  0
 12 13  2  0  0  0
 12 98  1  0  0  0
 13 14  1  0  0  0
 13 31  1  0  0  0
 14 15  2  0  0  0
 14 99  1  0  0  0
 15100  1  0  0  0
 16 17  2  0  0  0
 16 21  1  0  0  0
 16 31  1  0  0  0
 17 18  1  0  0  0
 17101  1  0  0  0
 18 19  2  0  0  0
 18102  1  0  0  0
 19 20  1  0  0  0
 19 24  1  0  0  0
 20 21  2  0  0  0
 20103  1  0  0  0
 21 23  1  0  0  0
 22 28  1  0  0  0
 22 32  2  0  0  0
 26 27  1  0  0  0
 28104  1  0  0  0
 28105  1  0  0  0
 29106  1  0  0  0
 29107  1  0  0  0
 33 34  1  0  0  0
 33 66  1  0  0  0
 33 70  2  0  0  0
 34 36  1  0  0  0
 34 59  1  0  0  0
 34108  1  0  0  0
 35 44  2  0  0  0
 35 45  1  0  0  0
 35 68  1  0  0  0
 36 56  1  0  0  0
 36109  1  0  0  0
 37 39  1  0  0  0
 37 47  1  0  0  0
 37 66  1  0  0  0
 37110  1  0  0  0
 38 43  2  0  0  0
 38 46  1  0  0  0
 38 47  1  0  0  0
 39 64  1  0  0  0
 39 67  2  0  0  0
 40 52  1  0  0  0
 40 53  2  0  0  0
 40 58  1  0  0  0
 41111  1  0  0  0
 41112  1  0  0  0
 41113  1  0  0  0
 41 48  1  0  0  0
 42 43  1  0  0  0
 42 66  1  0  0  0
 42114  1  0  0  0
 42115  1  0  0  0
 43 44  1  0  0  0
 44116  1  0  0  0
 45 46  2  0  0  0
 45117  1  0  0  0
 46118  1  0  0  0
 47119  1  0  0  0
 47120  1  0  0  0
 48 56  1  0  0  0
 48 65  1  0  0  0
 48121  1  0  0  0
 49 50  1  0  0  0
 49 53  1  0  0  0
 49 64  1  0  0  0
 49122  1  0  0  0
 50 51  1  0  0  0
 50123  1  0  0  0
 50124  1  0  0  0
 51 52  1  0  0  0
 51125  1  0  0  0
 51126  1  0  0  0
 52127  1  0  0  0
 52128  1  0  0  0
 53 54  1  0  0  0
 54 55  2  0  0  0
 54129  1  0  0  0
 55 57  1  0  0  0
 55130  1  0  0  0
 56 69  2  0  0  0
 57 58  2  0  0  0
 57131  1  0  0  0
 58132  1  0  0  0
 59 60  1  0  0  0
 59 61  1  0  0  0
 59 62  1  0  0  0
 60133  1  0  0  0
 60134  1  0  0  0
 60135  1  0  0  0
 61136  1  0  0  0
 61137  1  0  0  0
 61138  1  0  0  0
 62139  1  0  0  0
 62140  1  0  0  0
 62141  1  0  0  0
 63 65  1  0  0  0
 63142  1  0  0  0
 63143  1  0  0  0
 63144  1  0  0  0
 64145  1  0  0  0
 65146  1  0  0  0
 68 86  1  0  0  0
 71 72  2  0  0  0
 71 73  1  0  0  0
 71147  1  0  0  0
 72 74  1  0  0  0
 72148  1  0  0  0
 73 75  2  0  0  0
 73 79  1  0  0  0
 74 76  2  0  0  0
 74 80  1  0  0  0
 75 76  1  0  0  0
 75 77  1  0  0  0
 76 81  1  0  0  0
 77149  1  0  0  0
 77150  1  0  0  0
 77151  1  0  0  0
 78 82  1  0  0  0
 78152  1  0  0  0
 78153  1  0  0  0
 78154  1  0  0  0
 79 82  1  0  0  0
 79155  1  0  0  0
 79156  1  0  0  0
 80 83  1  0  0  0
 80157  1  0  0  0
 80158  1  0  0  0
 81 85  1  0  0  0
 81159  1  0  0  0
 81160  1  0  0  0
 82161  1  0  0  0
 82162  1  0  0  0
 83 84  1  0  0  0
 83163  1  0  0  0
 83164  1  0  0  0
 84 86  1  0  0  0
 84165  1  0  0  0
 84166  1  0  0  0
 85 87  1  0  0  0
 85167  1  0  0  0
 85168  1  0  0  0
 86169  1  0  0  0
 86170  1  0  0  0
 87171  1  0  0  0
M  ISO  4   1 100  68 101  86 101  87 100
M  END
> <chiral flag>
0

> <version>
0

> <s_m_source_file>
/data/baiqing/PycharmProjects/Reinvent-master-3.2/result/LINK_invent/BTK/process_docking_weight1_custom_sum_contain_oxygen_bond_distance_aromatic_linkinvent_7_9_3/rearranged_h_0092.sdf

> <i_m_source_file_index>
54

> <r_mmod_Potential_Energy-OPLS-2005>
49.1951713562012

> <r_mmod_Stretch_Energy-OPLS-2005>
69.8414077758789

> <r_mmod_Bend_Energy-OPLS-2005>
136.158004760742

> <r_mmod_Torsional_Energy-OPLS-2005>
255.437789916992

> <r_mmod_Improper_Torsional_Energy-OPLS-2005>
7.71352386474609

> <r_mmod_Van_der_Waal_Energy-OPLS-2005>
145.430358886719

> <r_mmod_Electrostatic_Energy-OPLS-2005>
-404.328247070312

> <r_mmod_Solvation_Energy-OPLS-2005>
-191.712585449219

> <b_mmod_Minimization_Converged-OPLS-2005>
0

> <r_mmod_RMS_Derivative-OPLS-2005>
1.16014790534973

$$$$
56
                    3D
 Structure written by MMmdl.
162170  0  0  1  0            999 V2000
  -30.4253  -15.1806   20.3434 C   0  0  0  0  0  0
  -30.4495  -12.7326   19.5192 C   0  0  0  0  0  0
  -29.5441  -12.5678   18.2723 C   0  0  0  0  0  0
  -28.0838  -12.3070   18.6869 C   0  0  0  0  0  0
  -27.6187  -13.2648   19.8131 C   0  0  2  0  0  0
  -28.6474  -13.4010   20.9504 C   0  0  0  0  0  0
  -25.2473  -13.8232   20.5702 C   0  0  0  0  0  0
  -24.1796  -13.0427   20.9187 C   0  0  0  0  0  0
  -24.6414  -11.6924   20.8697 C   0  0  0  0  0  0
  -23.9097  -10.4291   21.0378 C   0  0  0  0  0  0
  -24.3649   -9.4218   21.9162 C   0  0  0  0  0  0
  -23.6324   -8.2250   22.0754 C   0  0  0  0  0  0
  -22.4289   -8.0302   21.3561 C   0  0  0  0  0  0
  -21.9933   -9.0256   20.4644 C   0  0  0  0  0  0
  -22.7264  -10.2141   20.3043 C   0  0  0  0  0  0
  -21.6860   -6.0732   22.5262 C   0  0  0  0  0  0
  -21.4043   -6.5622   23.8201 C   0  0  0  0  0  0
  -21.3672   -5.6778   24.9167 C   0  0  0  0  0  0
  -21.6035   -4.3037   24.7228 C   0  0  0  0  0  0
  -21.8827   -3.8126   23.4341 C   0  0  0  0  0  0
  -21.9218   -4.6951   22.3404 C   0  0  0  0  0  0
  -22.7820  -13.5192   21.1843 C   0  0  0  0  0  0
  -22.1680   -4.2137   21.0978 F   0  0  0  0  0  0
  -21.5637   -3.4530   25.7742 F   0  0  0  0  0  0
  -29.9087  -13.8608   20.3528 N   0  0  0  0  0  0
  -26.2865  -12.9453   20.3104 N   0  0  0  0  0  0
  -25.9339  -11.6572   20.5613 N   0  0  0  0  0  0
  -22.0479  -12.8188   22.0427 N   0  0  0  0  0  0
  -25.4100  -15.1976   20.4227 N   0  0  0  0  0  0
  -31.6566  -15.2043   20.1814 O   0  0  0  0  0  0
  -21.6648   -6.8892   21.4234 O   0  0  0  0  0  0
  -22.3511  -14.5470   20.6668 O   0  0  0  0  0  0
  -24.6665  -31.8275   23.1750 C   0  0  0  0  0  0
  -25.9346  -32.4602   23.8203 C   0  0  1  0  0  0
  -27.2001  -26.9466   20.1525 C   0  0  0  0  0  0
  -25.6034  -33.8411   24.2127 N   0  0  0  0  0  0
  -23.4742  -30.4457   21.5283 C   0  0  2  0  0  0
  -24.9166  -28.8353   20.1109 C   0  0  0  0  0  0
  -22.7663  -29.4472   22.4809 C   0  0  0  0  0  0
  -18.0311  -28.1404   22.8479 C   0  0  0  0  0  0
  -24.1494  -36.7219   23.2639 C   0  0  0  0  0  0
  -26.0433  -30.6341   21.3977 C   0  0  0  0  0  0
  -26.1045  -29.2270   20.7407 C   0  0  0  0  0  0
  -27.2441  -28.3041   20.7363 C   0  0  0  0  0  0
  -25.9793  -26.6982   19.4856 C   0  0  0  0  0  0
  -24.8760  -27.5910   19.4652 C   0  0  0  0  0  0
  -23.7078  -29.7697   20.1506 C   0  0  0  0  0  0
  -25.4124  -36.2977   24.0311 C   0  0  1  0  0  0
  -20.5940  -28.3752   23.1189 C   0  0  2  0  0  0
  -20.6794  -26.9439   22.5380 C   0  0  0  0  0  0
  -19.5753  -26.6382   21.5202 C   0  0  0  0  0  0
  -18.1942  -26.7939   22.1620 C   0  0  0  0  0  0
  -19.1579  -28.8895   23.2833 C   0  0  0  0  0  0
  -18.9490  -30.1478   23.8860 C   0  0  0  0  0  0
  -17.6487  -30.6595   24.0562 C   0  0  0  0  0  0
  -25.9110  -34.9347   23.5029 C   0  0  0  0  0  0
  -16.5375  -29.9086   23.6342 C   0  0  0  0  0  0
  -16.7302  -28.6506   23.0372 C   0  0  0  0  0  0
  -26.4601  -31.6519   25.0706 C   0  0  0  0  0  0
  -25.3757  -31.3738   26.1391 C   0  0  0  0  0  0
  -27.0473  -30.2897   24.6377 C   0  0  0  0  0  0
  -27.6130  -32.4285   25.7479 C   0  0  0  0  0  0
  -27.5590  -37.1752   24.8461 C   0  0  0  0  0  0
  -21.4341  -29.3063   22.3556 N   0  0  0  0  0  0
  -26.4282  -37.3729   23.9427 N   0  0  0  0  0  0
  -24.7506  -30.9930   22.0885 N   0  0  0  0  0  0
  -23.4223  -28.8021   23.3037 O   0  0  0  0  0  0
  -28.2149  -25.8604   20.1850 O   0  0  0  0  0  0
  -26.5697  -34.8901   22.4613 O   0  0  0  0  0  0
  -23.5733  -32.1232   23.6855 O   0  0  0  0  0  0
  -31.8285  -20.0073   21.0057 C   0  0  0  0  0  0
  -31.3625  -19.2152   22.0654 C   0  0  0  0  0  0
  -31.0430  -20.0877   19.8401 C   0  0  0  0  0  0
  -29.7034  -19.6583   19.9776 C   0  0  0  0  0  0
  -29.7321  -18.2886   20.6957 C   0  0  0  0  0  0
  -32.6203  -19.2584   18.1280 C   0  0  0  0  0  0
  -32.5690  -21.7098   18.6258 C   0  0  0  0  0  0
  -30.6667  -20.6094   17.3529 C   0  0  0  0  0  0
  -28.6648  -21.0352   20.1154 C   0  0  0  0  0  0
  -29.5109  -16.6574   20.1945 C   0  0  0  0  0  0
  -28.9919  -22.7942   20.0593 C   0  0  0  0  0  0
  -27.9464  -24.2423   20.1503 C   0  0  0  0  0  0
  -31.6963  -20.4431   18.4939 C   0  0  0  0  0  0
  -30.3860  -18.2951   21.8820 N   0  0  0  0  0  0
  -31.4731  -12.9294   19.1979 H   0  0  0  0  0  0
  -30.4896  -11.8071   20.0968 H   0  0  0  0  0  0
  -29.8995  -11.7526   17.6384 H   0  0  0  0  0  0
  -29.5978  -13.4752   17.6664 H   0  0  0  0  0  0
  -28.0110  -11.2721   19.0262 H   0  0  0  0  0  0
  -27.4249  -12.3927   17.8222 H   0  0  0  0  0  0
  -27.5477  -14.2412   19.3332 H   0  0  0  0  0  0
  -28.7750  -12.4656   21.4937 H   0  0  0  0  0  0
  -28.2981  -14.1382   21.6753 H   0  0  0  0  0  0
  -25.2824   -9.5675   22.4715 H   0  0  0  0  0  0
  -24.0025   -7.4647   22.7469 H   0  0  0  0  0  0
  -21.0873   -8.8763   19.8954 H   0  0  0  0  0  0
  -22.3711  -10.9673   19.6143 H   0  0  0  0  0  0
  -21.2008   -7.6138   23.9699 H   0  0  0  0  0  0
  -21.1498   -6.0505   25.9061 H   0  0  0  0  0  0
  -22.0593   -2.7590   23.2831 H   0  0  0  0  0  0
  -22.4128  -11.9923   22.4891 H   0  0  0  0  0  0
  -21.1078  -13.1191   22.2554 H   0  0  0  0  0  0
  -24.6410  -15.8442   20.5626 H   0  0  0  0  0  0
  -26.2480  -15.6545   20.0866 H   0  0  0  0  0  0
  -26.7413  -32.5134   23.0914 H   0  0  0  0  0  0
  -25.0187  -33.9505   25.0284 H   0  0  0  0  0  0
  -22.7887  -31.2797   21.3680 H   0  0  0  0  0  0
  -23.3803  -35.9512   23.3197 H   0  0  0  0  0  0
  -24.3598  -36.8971   22.2082 H   0  0  0  0  0  0
  -23.7194  -37.6357   23.6752 H   0  0  0  0  0  0
  -26.2202  -31.3718   20.6138 H   0  0  0  0  0  0
  -26.9070  -30.6878   22.0485 H   0  0  0  0  0  0
  -28.1469  -28.5995   21.2498 H   0  0  0  0  0  0
  -25.8394  -25.7543   18.9816 H   0  0  0  0  0  0
  -23.9735  -27.2878   18.9526 H   0  0  0  0  0  0
  -23.8759  -30.5471   19.4036 H   0  0  0  0  0  0
  -22.8084  -29.2468   19.8227 H   0  0  0  0  0  0
  -25.1305  -36.1786   25.0812 H   0  0  0  0  0  0
  -21.0033  -28.3338   24.1317 H   0  0  0  0  0  0
  -20.5679  -26.2371   23.3626 H   0  0  0  0  0  0
  -21.6659  -26.7422   22.1184 H   0  0  0  0  0  0
  -19.6915  -25.6284   21.1266 H   0  0  0  0  0  0
  -19.6678  -27.3164   20.6709 H   0  0  0  0  0  0
  -17.4214  -26.6696   21.4028 H   0  0  0  0  0  0
  -18.0340  -26.0081   22.9016 H   0  0  0  0  0  0
  -19.7957  -30.7311   24.2232 H   0  0  0  0  0  0
  -17.5027  -31.6270   24.5167 H   0  0  0  0  0  0
  -15.5368  -30.2975   23.7677 H   0  0  0  0  0  0
  -15.8706  -28.0803   22.7114 H   0  0  0  0  0  0
  -24.5899  -30.7151   25.7674 H   0  0  0  0  0  0
  -24.9014  -32.2934   26.4824 H   0  0  0  0  0  0
  -25.8011  -30.8862   27.0171 H   0  0  0  0  0  0
  -26.3109  -29.6580   24.1406 H   0  0  0  0  0  0
  -27.4067  -29.7249   25.4982 H   0  0  0  0  0  0
  -27.9030  -30.4103   23.9732 H   0  0  0  0  0  0
  -27.2785  -33.3674   26.1908 H   0  0  0  0  0  0
  -28.4022  -32.6690   25.0334 H   0  0  0  0  0  0
  -28.0717  -31.8490   26.5515 H   0  0  0  0  0  0
  -28.2528  -38.0128   24.7614 H   0  0  0  0  0  0
  -28.1173  -36.2662   24.6145 H   0  0  0  0  0  0
  -27.2335  -37.1219   25.8872 H   0  0  0  0  0  0
  -20.9585  -29.8801   21.6740 H   0  0  0  0  0  0
  -26.0124  -38.2789   24.1482 H   0  0  0  0  0  0
  -32.7958  -20.4839   21.0706 H   0  0  0  0  0  0
  -31.9044  -19.1743   22.9990 H   0  0  0  0  0  0
  -33.4430  -19.1646   18.8372 H   0  0  0  0  0  0
  -33.0594  -19.3608   17.1341 H   0  0  0  0  0  0
  -32.0802  -18.3099   18.1488 H   0  0  0  0  0  0
  -32.8600  -22.1125   17.6560 H   0  0  0  0  0  0
  -33.4995  -21.5052   19.1567 H   0  0  0  0  0  0
  -32.0549  -22.4975   19.1742 H   0  0  0  0  0  0
  -30.1051  -19.6891   17.1836 H   0  0  0  0  0  0
  -31.1558  -20.8573   16.4089 H   0  0  0  0  0  0
  -29.9454  -21.3964   17.5533 H   0  0  0  0  0  0
  -28.0621  -20.8593   21.0058 H   0  0  0  0  0  0
  -27.9625  -20.8717   19.2972 H   0  0  0  0  0  0
  -29.3602  -16.7417   19.1194 H   0  0  0  0  0  0
  -28.5216  -16.3997   20.5750 H   0  0  0  0  0  0
  -29.5136  -22.9345   19.1158 H   0  0  0  0  0  0
  -29.7614  -22.9576   20.8123 H   0  0  0  0  0  0
  -27.3476  -24.0747   21.0488 H   0  0  0  0  0  0
  -27.2379  -24.0971   19.3334 H   0  0  0  0  0  0
  1 25  1  0  0  0
  1 30  2  0  0  0
  1 80  1  0  0  0
  2  3  1  0  0  0
  2 25  1  0  0  0
  2 85  1  0  0  0
  2 86  1  0  0  0
  3  4  1  0  0  0
  3 87  1  0  0  0
  3 88  1  0  0  0
  4  5  1  0  0  0
  4 89  1  0  0  0
  4 90  1  0  0  0
  5  6  1  0  0  0
  5 26  1  0  0  0
  5 91  1  0  0  0
  6 25  1  0  0  0
  6 92  1  0  0  0
  6 93  1  0  0  0
  7  8  2  0  0  0
  7 26  1  0  0  0
  7 29  1  0  0  0
  8  9  1  0  0  0
  8 22  1  0  0  0
  9 10  1  0  0  0
  9 27  2  0  0  0
 10 11  2  0  0  0
 10 15  1  0  0  0
 11 12  1  0  0  0
 11 94  1  0  0  0
 12 13  2  0  0  0
 12 95  1  0  0  0
 13 14  1  0  0  0
 13 31  1  0  0  0
 14 15  2  0  0  0
 14 96  1  0  0  0
 15 97  1  0  0  0
 16 17  2  0  0  0
 16 21  1  0  0  0
 16 31  1  0  0  0
 17 18  1  0  0  0
 17 98  1  0  0  0
 18 19  2  0  0  0
 18 99  1  0  0  0
 19 20  1  0  0  0
 19 24  1  0  0  0
 20 21  2  0  0  0
 20100  1  0  0  0
 21 23  1  0  0  0
 22 28  1  0  0  0
 22 32  2  0  0  0
 26 27  1  0  0  0
 28101  1  0  0  0
 28102  1  0  0  0
 29103  1  0  0  0
 29104  1  0  0  0
 33 34  1  0  0  0
 33 66  1  0  0  0
 33 70  2  0  0  0
 34 36  1  0  0  0
 34 59  1  0  0  0
 34105  1  0  0  0
 35 44  2  0  0  0
 35 45  1  0  0  0
 35 68  1  0  0  0
 36 56  1  0  0  0
 36106  1  0  0  0
 37 39  1  0  0  0
 37 47  1  0  0  0
 37 66  1  0  0  0
 37107  1  0  0  0
 38 43  2  0  0  0
 38 46  1  0  0  0
 38 47  1  0  0  0
 39 64  1  0  0  0
 39 67  2  0  0  0
 40 52  1  0  0  0
 40 53  2  0  0  0
 40 58  1  0  0  0
 41108  1  0  0  0
 41109  1  0  0  0
 41110  1  0  0  0
 41 48  1  0  0  0
 42 43  1  0  0  0
 42 66  1  0  0  0
 42111  1  0  0  0
 42112  1  0  0  0
 43 44  1  0  0  0
 44113  1  0  0  0
 45 46  2  0  0  0
 45114  1  0  0  0
 46115  1  0  0  0
 47116  1  0  0  0
 47117  1  0  0  0
 48 56  1  0  0  0
 48 65  1  0  0  0
 48118  1  0  0  0
 49 50  1  0  0  0
 49 53  1  0  0  0
 49 64  1  0  0  0
 49119  1  0  0  0
 50 51  1  0  0  0
 50120  1  0  0  0
 50121  1  0  0  0
 51 52  1  0  0  0
 51122  1  0  0  0
 51123  1  0  0  0
 52124  1  0  0  0
 52125  1  0  0  0
 53 54  1  0  0  0
 54 55  2  0  0  0
 54126  1  0  0  0
 55 57  1  0  0  0
 55127  1  0  0  0
 56 69  2  0  0  0
 57 58  2  0  0  0
 57128  1  0  0  0
 58129  1  0  0  0
 59 60  1  0  0  0
 59 61  1  0  0  0
 59 62  1  0  0  0
 60130  1  0  0  0
 60131  1  0  0  0
 60132  1  0  0  0
 61133  1  0  0  0
 61134  1  0  0  0
 61135  1  0  0  0
 62136  1  0  0  0
 62137  1  0  0  0
 62138  1  0  0  0
 63 65  1  0  0  0
 63139  1  0  0  0
 63140  1  0  0  0
 63141  1  0  0  0
 64142  1  0  0  0
 65143  1  0  0  0
 68 82  1  0  0  0
 71 72  2  0  0  0
 71 73  1  0  0  0
 71144  1  0  0  0
 72 84  1  0  0  0
 72145  1  0  0  0
 73 74  2  0  0  0
 73 83  1  0  0  0
 74 75  1  0  0  0
 74 79  1  0  0  0
 75 80  1  0  0  0
 75 84  2  0  0  0
 76146  1  0  0  0
 76147  1  0  0  0
 76148  1  0  0  0
 76 83  1  0  0  0
 77 83  1  0  0  0
 77149  1  0  0  0
 77150  1  0  0  0
 77151  1  0  0  0
 78 83  1  0  0  0
 78152  1  0  0  0
 78153  1  0  0  0
 78154  1  0  0  0
 79 81  1  0  0  0
 79155  1  0  0  0
 79156  1  0  0  0
 80157  1  0  0  0
 80158  1  0  0  0
 81 82  1  0  0  0
 81159  1  0  0  0
 81160  1  0  0  0
 82161  1  0  0  0
 82162  1  0  0  0
M  ISO  4   1 100  68 101  80 100  82 101
M  END
> <chiral flag>
0

> <version>
0

> <s_m_source_file>
/data/baiqing/PycharmProjects/Reinvent-master-3.2/result/LINK_invent/BTK/process_docking_weight1_custom_sum_contain_oxygen_bond_distance_aromatic_linkinvent_7_9_3/rearranged_h_0092.sdf

> <i_m_source_file_index>
55

> <r_mmod_Potential_Energy-OPLS-2005>
1306.08996582031

> <r_mmod_Stretch_Energy-OPLS-2005>
560.109252929688

> <r_mmod_Bend_Energy-OPLS-2005>
432.732513427734

> <r_mmod_Torsional_Energy-OPLS-2005>
436.555267333984

> <r_mmod_Improper_Torsional_Energy-OPLS-2005>
24.894136428833

> <r_mmod_Van_der_Waal_Energy-OPLS-2005>
129.956497192383

> <r_mmod_Electrostatic_Energy-OPLS-2005>
-462.352874755859

> <r_mmod_Solvation_Energy-OPLS-2005>
-210.5673828125

> <b_mmod_Minimization_Converged-OPLS-2005>
0

> <r_mmod_RMS_Derivative-OPLS-2005>
5.54505157470703

$$$$
57
                    3D
 Structure written by MMmdl.
172180  0  0  1  0            999 V2000
  -30.6873  -14.5035   20.5846 C   0  0  0  0  0  0
  -30.4247  -12.3278   19.4346 C   0  0  0  0  0  0
  -29.5012  -12.5184   18.2135 C   0  0  0  0  0  0
  -28.0203  -12.3728   18.6141 C   0  0  0  0  0  0
  -27.6623  -13.2043   19.8753 C   0  0  2  0  0  0
  -28.7012  -12.9982   21.0018 C   0  0  0  0  0  0
  -25.2595  -13.8137   20.5625 C   0  0  0  0  0  0
  -24.1844  -13.0429   20.9136 C   0  0  0  0  0  0
  -24.6390  -11.6895   20.8695 C   0  0  0  0  0  0
  -23.9044  -10.4299   21.0388 C   0  0  0  0  0  0
  -24.3622   -9.4224   21.9160 C   0  0  0  0  0  0
  -23.6315   -8.2253   22.0746 C   0  0  0  0  0  0
  -22.4304   -8.0260   21.3532 C   0  0  0  0  0  0
  -21.9922   -9.0230   20.4642 C   0  0  0  0  0  0
  -22.7220  -10.2120   20.3038 C   0  0  0  0  0  0
  -21.6868   -6.0729   22.5265 C   0  0  0  0  0  0
  -21.4024   -6.5643   23.8187 C   0  0  0  0  0  0
  -21.3669   -5.6805   24.9164 C   0  0  0  0  0  0
  -21.6046   -4.3059   24.7218 C   0  0  0  0  0  0
  -21.8825   -3.8146   23.4345 C   0  0  0  0  0  0
  -21.9204   -4.6957   22.3398 C   0  0  0  0  0  0
  -22.7875  -13.5238   21.1804 C   0  0  0  0  0  0
  -22.1658   -4.2131   21.0979 F   0  0  0  0  0  0
  -21.5653   -3.4528   25.7723 F   0  0  0  0  0  0
  -30.0327  -13.3155   20.4551 N   0  0  0  0  0  0
  -26.3025  -12.9294   20.3322 N   0  0  0  0  0  0
  -25.9316  -11.6464   20.5724 N   0  0  0  0  0  0
  -22.0537  -12.8225   22.0363 N   0  0  0  0  0  0
  -25.4345  -15.1846   20.3995 N   0  0  0  0  0  0
  -31.8025  -14.7109   20.0959 O   0  0  0  0  0  0
  -21.6664   -6.8867   21.4224 O   0  0  0  0  0  0
  -22.3548  -14.5539   20.6659 O   0  0  0  0  0  0
  -24.6190  -31.8666   23.2109 C   0  0  0  0  0  0
  -25.9067  -32.4817   23.8415 C   0  0  1  0  0  0
  -27.2225  -27.4005   20.0856 C   0  0  0  0  0  0
  -25.5904  -33.8616   24.2337 N   0  0  0  0  0  0
  -23.4078  -30.4944   21.5532 C   0  0  2  0  0  0
  -24.8501  -28.9685   20.1101 C   0  0  0  0  0  0
  -22.7446  -29.4639   22.4971 C   0  0  0  0  0  0
  -18.0270  -28.1352   22.8491 C   0  0  0  0  0  0
  -24.1482  -36.7335   23.2640 C   0  0  0  0  0  0
  -25.9435  -30.8215   21.3701 C   0  0  0  0  0  0
  -26.0167  -29.4560   20.7123 C   0  0  0  0  0  0
  -27.2052  -28.6798   20.6994 C   0  0  0  0  0  0
  -26.0298  -26.9568   19.4566 C   0  0  0  0  0  0
  -24.8535  -27.7196   19.4786 C   0  0  0  0  0  0
  -23.6161  -29.8377   20.1647 C   0  0  0  0  0  0
  -25.4098  -36.3117   24.0342 C   0  0  1  0  0  0
  -20.5864  -28.3642   23.1299 C   0  0  2  0  0  0
  -20.6744  -26.9369   22.5405 C   0  0  0  0  0  0
  -19.5723  -26.6362   21.5200 C   0  0  0  0  0  0
  -18.1911  -26.7900   22.1621 C   0  0  0  0  0  0
  -19.1526  -28.8818   23.2890 C   0  0  0  0  0  0
  -18.9451  -30.1420   23.8905 C   0  0  0  0  0  0
  -17.6453  -30.6561   24.0557 C   0  0  0  0  0  0
  -25.9030  -34.9475   23.5139 C   0  0  0  0  0  0
  -16.5340  -29.9063   23.6313 C   0  0  0  0  0  0
  -16.7264  -28.6474   23.0354 C   0  0  0  0  0  0
  -26.4470  -31.6603   25.0756 C   0  0  0  0  0  0
  -25.3737  -31.3730   26.1512 C   0  0  0  0  0  0
  -27.0281  -30.3038   24.6144 C   0  0  0  0  0  0
  -27.6043  -32.4317   25.7522 C   0  0  0  0  0  0
  -27.5582  -37.1815   24.8455 C   0  0  0  0  0  0
  -21.4167  -29.3024   22.3728 N   0  0  0  0  0  0
  -26.4285  -37.3802   23.9413 N   0  0  0  0  0  0
  -24.6760  -31.0745   22.1025 N   0  0  0  0  0  0
  -23.4216  -28.8159   23.3000 O   0  0  0  0  0  0
  -28.3643  -26.6024   20.1279 O   0  0  0  0  0  0
  -26.5592  -34.8923   22.4700 O   0  0  0  0  0  0
  -23.5371  -32.1425   23.7479 O   0  0  0  0  0  0
  -28.8256  -20.3295   20.2490 C   0  0  0  0  0  0
  -29.7420  -19.3016   20.1842 C   0  0  0  0  0  0
  -30.7744  -21.2487   19.7306 C   0  0  0  0  0  0
  -36.2149  -23.3914   17.0953 C   0  0  0  0  0  0
  -35.6083  -20.9524   17.1953 C   0  0  0  0  0  0
  -29.5302  -17.7937   20.1819 C   0  0  0  0  0  0
  -31.8277  -22.2407   19.3302 C   0  0  0  0  0  0
  -33.1419  -21.6454   18.7992 C   0  0  0  0  0  0
  -34.0462  -22.7372   18.1963 C   0  0  0  0  0  0
  -29.2278  -24.1454   20.1568 C   0  0  0  0  0  0
  -28.7684  -22.7734   19.5622 C   0  0  0  0  0  0
  -30.3218  -16.9466   21.2174 C   0  0  0  0  0  0
  -28.1668  -25.2123   19.7729 C   0  0  0  0  0  0
  -35.4994  -22.3066   17.9135 C   0  0  0  0  0  0
  -29.4653  -21.5033   19.9102 N   0  0  0  0  0  0
  -30.9415  -19.9263   19.9271 N   0  3  0  0  0  0
  -29.9800  -15.5036   21.1542 N   0  0  0  0  0  0
  -31.4688  -12.4369   19.1350 H   0  0  0  0  0  0
  -30.3244  -11.3155   19.8309 H   0  0  0  0  0  0
  -29.7507  -11.7964   17.4352 H   0  0  0  0  0  0
  -29.6641  -13.5089   17.7859 H   0  0  0  0  0  0
  -27.8335  -11.3143   18.7950 H   0  0  0  0  0  0
  -27.3753  -12.6554   17.7812 H   0  0  0  0  0  0
  -27.7075  -14.2529   19.5798 H   0  0  0  0  0  0
  -28.6826  -11.9645   21.3493 H   0  0  0  0  0  0
  -28.4504  -13.6017   21.8770 H   0  0  0  0  0  0
  -25.2774   -9.5713   22.4715 H   0  0  0  0  0  0
  -24.0026   -7.4674   22.7497 H   0  0  0  0  0  0
  -21.0832   -8.8735   19.8996 H   0  0  0  0  0  0
  -22.3638  -10.9654   19.6152 H   0  0  0  0  0  0
  -21.2001   -7.6152   23.9673 H   0  0  0  0  0  0
  -21.1493   -6.0547   25.9064 H   0  0  0  0  0  0
  -22.0595   -2.7605   23.2838 H   0  0  0  0  0  0
  -22.4192  -11.9901   22.4752 H   0  0  0  0  0  0
  -21.1162  -13.1236   22.2610 H   0  0  0  0  0  0
  -24.6642  -15.8377   20.4903 H   0  0  0  0  0  0
  -26.2854  -15.6157   20.0614 H   0  0  0  0  0  0
  -26.7139  -32.5511   23.1177 H   0  0  0  0  0  0
  -25.0042  -33.9777   25.0474 H   0  0  0  0  0  0
  -22.6973  -31.3121   21.4172 H   0  0  0  0  0  0
  -23.3735  -35.9674   23.3279 H   0  0  0  0  0  0
  -24.3598  -36.8972   22.2061 H   0  0  0  0  0  0
  -23.7227  -37.6537   23.6660 H   0  0  0  0  0  0
  -26.0585  -31.5852   20.5995 H   0  0  0  0  0  0
  -26.8317  -30.8744   21.9879 H   0  0  0  0  0  0
  -28.1033  -29.0476   21.1769 H   0  0  0  0  0  0
  -25.9632  -26.0131   18.9363 H   0  0  0  0  0  0
  -23.9600  -27.3445   18.9986 H   0  0  0  0  0  0
  -23.7262  -30.6158   19.4086 H   0  0  0  0  0  0
  -22.7393  -29.2610   19.8658 H   0  0  0  0  0  0
  -25.1259  -36.1993   25.0833 H   0  0  0  0  0  0
  -20.9953  -28.3182   24.1418 H   0  0  0  0  0  0
  -20.5606  -26.2251   23.3595 H   0  0  0  0  0  0
  -21.6619  -26.7377   22.1212 H   0  0  0  0  0  0
  -19.6875  -25.6277   21.1213 H   0  0  0  0  0  0
  -19.6659  -27.3185   20.6739 H   0  0  0  0  0  0
  -17.4174  -26.6645   21.4031 H   0  0  0  0  0  0
  -18.0320  -26.0033   22.9009 H   0  0  0  0  0  0
  -19.7935  -30.7221   24.2292 H   0  0  0  0  0  0
  -17.5012  -31.6254   24.5140 H   0  0  0  0  0  0
  -15.5341  -30.2974   23.7624 H   0  0  0  0  0  0
  -15.8663  -28.0793   22.7072 H   0  0  0  0  0  0
  -24.5882  -30.7102   25.7864 H   0  0  0  0  0  0
  -24.8967  -32.2899   26.4989 H   0  0  0  0  0  0
  -25.8097  -30.8885   27.0260 H   0  0  0  0  0  0
  -26.2827  -29.6829   24.1166 H   0  0  0  0  0  0
  -27.3990  -29.7250   25.4612 H   0  0  0  0  0  0
  -27.8690  -30.4341   23.9330 H   0  0  0  0  0  0
  -27.2660  -33.3606   26.2125 H   0  0  0  0  0  0
  -28.3849  -32.6897   25.0353 H   0  0  0  0  0  0
  -28.0710  -31.8427   26.5428 H   0  0  0  0  0  0
  -28.2573  -38.0137   24.7525 H   0  0  0  0  0  0
  -28.1094  -36.2667   24.6231 H   0  0  0  0  0  0
  -27.2317  -37.1408   25.8861 H   0  0  0  0  0  0
  -20.9316  -29.8839   21.7035 H   0  0  0  0  0  0
  -26.0174  -38.2877   24.1432 H   0  0  0  0  0  0
  -27.7544  -20.2930   20.4008 H   0  0  0  0  0  0
  -37.2726  -23.1584   16.9647 H   0  0  0  0  0  0
  -36.1504  -24.3682   17.5759 H   0  0  0  0  0  0
  -35.7756  -23.4846   16.1014 H   0  0  0  0  0  0
  -36.6466  -20.7278   16.9479 H   0  0  0  0  0  0
  -35.0389  -20.9445   16.2657 H   0  0  0  0  0  0
  -35.2490  -20.1322   17.8165 H   0  0  0  0  0  0
  -29.7637  -17.4332   19.1797 H   0  0  0  0  0  0
  -28.4628  -17.6084   20.3116 H   0  0  0  0  0  0
  -32.0139  -22.8606   20.2080 H   0  0  0  0  0  0
  -31.3814  -22.8734   18.5629 H   0  0  0  0  0  0
  -32.9178  -20.9145   18.0208 H   0  0  0  0  0  0
  -33.6626  -21.1138   19.5958 H   0  0  0  0  0  0
  -34.0794  -23.5946   18.8707 H   0  0  0  0  0  0
  -33.5835  -23.1041   17.2781 H   0  0  0  0  0  0
  -30.1997  -24.4504   19.7729 H   0  0  0  0  0  0
  -29.3179  -24.0775   21.2410 H   0  0  0  0  0  0
  -28.7783  -22.8357   18.4730 H   0  0  0  0  0  0
  -27.7218  -22.6226   19.8297 H   0  0  0  0  0  0
  -30.0874  -17.3076   22.2201 H   0  0  0  0  0  0
  -31.3944  -17.0942   21.0832 H   0  0  0  0  0  0
  -27.2437  -24.8573   20.2352 H   0  0  0  0  0  0
  -28.0242  -25.1739   18.6909 H   0  0  0  0  0  0
  -36.0152  -22.2151   18.8718 H   0  0  0  0  0  0
  -31.8289  -19.4498   19.8178 H   0  0  0  0  0  0
  -29.0803  -15.2373   21.5276 H   0  0  0  0  0  0
  1 25  1  0  0  0
  1 30  2  0  0  0
  1 87  1  0  0  0
  2  3  1  0  0  0
  2 25  1  0  0  0
  2 88  1  0  0  0
  2 89  1  0  0  0
  3  4  1  0  0  0
  3 90  1  0  0  0
  3 91  1  0  0  0
  4  5  1  0  0  0
  4 92  1  0  0  0
  4 93  1  0  0  0
  5  6  1  0  0  0
  5 26  1  0  0  0
  5 94  1  0  0  0
  6 25  1  0  0  0
  6 95  1  0  0  0
  6 96  1  0  0  0
  7  8  2  0  0  0
  7 26  1  0  0  0
  7 29  1  0  0  0
  8  9  1  0  0  0
  8 22  1  0  0  0
  9 10  1  0  0  0
  9 27  2  0  0  0
 10 11  2  0  0  0
 10 15  1  0  0  0
 11 12  1  0  0  0
 11 97  1  0  0  0
 12 13  2  0  0  0
 12 98  1  0  0  0
 13 14  1  0  0  0
 13 31  1  0  0  0
 14 15  2  0  0  0
 14 99  1  0  0  0
 15100  1  0  0  0
 16 17  2  0  0  0
 16 21  1  0  0  0
 16 31  1  0  0  0
 17 18  1  0  0  0
 17101  1  0  0  0
 18 19  2  0  0  0
 18102  1  0  0  0
 19 20  1  0  0  0
 19 24  1  0  0  0
 20 21  2  0  0  0
 20103  1  0  0  0
 21 23  1  0  0  0
 22 28  1  0  0  0
 22 32  2  0  0  0
 26 27  1  0  0  0
 28104  1  0  0  0
 28105  1  0  0  0
 29106  1  0  0  0
 29107  1  0  0  0
 33 34  1  0  0  0
 33 66  1  0  0  0
 33 70  2  0  0  0
 34 36  1  0  0  0
 34 59  1  0  0  0
 34108  1  0  0  0
 35 44  2  0  0  0
 35 45  1  0  0  0
 35 68  1  0  0  0
 36 56  1  0  0  0
 36109  1  0  0  0
 37 39  1  0  0  0
 37 47  1  0  0  0
 37 66  1  0  0  0
 37110  1  0  0  0
 38 43  2  0  0  0
 38 46  1  0  0  0
 38 47  1  0  0  0
 39 64  1  0  0  0
 39 67  2  0  0  0
 40 52  1  0  0  0
 40 53  2  0  0  0
 40 58  1  0  0  0
 41111  1  0  0  0
 41112  1  0  0  0
 41113  1  0  0  0
 41 48  1  0  0  0
 42 43  1  0  0  0
 42 66  1  0  0  0
 42114  1  0  0  0
 42115  1  0  0  0
 43 44  1  0  0  0
 44116  1  0  0  0
 45 46  2  0  0  0
 45117  1  0  0  0
 46118  1  0  0  0
 47119  1  0  0  0
 47120  1  0  0  0
 48 56  1  0  0  0
 48 65  1  0  0  0
 48121  1  0  0  0
 49 50  1  0  0  0
 49 53  1  0  0  0
 49 64  1  0  0  0
 49122  1  0  0  0
 50 51  1  0  0  0
 50123  1  0  0  0
 50124  1  0  0  0
 51 52  1  0  0  0
 51125  1  0  0  0
 51126  1  0  0  0
 52127  1  0  0  0
 52128  1  0  0  0
 53 54  1  0  0  0
 54 55  2  0  0  0
 54129  1  0  0  0
 55 57  1  0  0  0
 55130  1  0  0  0
 56 69  2  0  0  0
 57 58  2  0  0  0
 57131  1  0  0  0
 58132  1  0  0  0
 59 60  1  0  0  0
 59 61  1  0  0  0
 59 62  1  0  0  0
 60133  1  0  0  0
 60134  1  0  0  0
 60135  1  0  0  0
 61136  1  0  0  0
 61137  1  0  0  0
 61138  1  0  0  0
 62139  1  0  0  0
 62140  1  0  0  0
 62141  1  0  0  0
 63 65  1  0  0  0
 63142  1  0  0  0
 63143  1  0  0  0
 63144  1  0  0  0
 64145  1  0  0  0
 65146  1  0  0  0
 68 83  1  0  0  0
 71 72  2  0  0  0
 71 85  1  0  0  0
 71147  1  0  0  0
 72 76  1  0  0  0
 72 86  1  0  0  0
 73 77  1  0  0  0
 73 85  1  0  0  0
 73 86  2  0  0  0
 74148  1  0  0  0
 74149  1  0  0  0
 74150  1  0  0  0
 74 84  1  0  0  0
 75 84  1  0  0  0
 75151  1  0  0  0
 75152  1  0  0  0
 75153  1  0  0  0
 76 82  1  0  0  0
 76154  1  0  0  0
 76155  1  0  0  0
 77 78  1  0  0  0
 77156  1  0  0  0
 77157  1  0  0  0
 78 79  1  0  0  0
 78158  1  0  0  0
 78159  1  0  0  0
 79 84  1  0  0  0
 79160  1  0  0  0
 79161  1  0  0  0
 80 81  1  0  0  0
 80 83  1  0  0  0
 80162  1  0  0  0
 80163  1  0  0  0
 81 85  1  0  0  0
 81164  1  0  0  0
 81165  1  0  0  0
 82 87  1  0  0  0
 82166  1  0  0  0
 82167  1  0  0  0
 83168  1  0  0  0
 83169  1  0  0  0
 84170  1  0  0  0
 86171  1  0  0  0
 87172  1  0  0  0
M  CHG  1  86   1
M  ISO  4   1 100  68 101  83 101  87 100
M  END
> <chiral flag>
0

> <version>
0

> <s_m_source_file>
/data/baiqing/PycharmProjects/Reinvent-master-3.2/result/LINK_invent/BTK/process_docking_weight1_custom_sum_contain_oxygen_bond_distance_aromatic_linkinvent_7_9_3/rearranged_h_0092.sdf

> <i_m_source_file_index>
56

> <r_mmod_Potential_Energy-OPLS-2005>
-76.3746719360352

> <r_mmod_Stretch_Energy-OPLS-2005>
43.8782844543457

> <r_mmod_Bend_Energy-OPLS-2005>
122.795593261719

> <r_mmod_Torsional_Energy-OPLS-2005>
224.233627319336

> <r_mmod_Improper_Torsional_Energy-OPLS-2005>
5.72944307327271

> <r_mmod_Van_der_Waal_Energy-OPLS-2005>
135.937622070312

> <r_mmod_Electrostatic_Energy-OPLS-2005>
-210.371856689453

> <r_mmod_Solvation_Energy-OPLS-2005>
-417.556121826172

> <b_mmod_Minimization_Converged-OPLS-2005>
0

> <r_mmod_RMS_Derivative-OPLS-2005>
2.80291700363159

$$$$
58
                    3D
 Structure written by MMmdl.
174182  0  0  1  0            999 V2000
  -30.6759  -14.4537   20.5912 C   0  0  0  0  0  0
  -30.4188  -12.2921   19.4226 C   0  0  0  0  0  0
  -29.4897  -12.4938   18.2054 C   0  0  0  0  0  0
  -28.0104  -12.3378   18.6149 C   0  0  0  0  0  0
  -27.6517  -13.1961   19.8578 C   0  0  2  0  0  0
  -28.6873  -12.9512   20.9795 C   0  0  0  0  0  0
  -25.2532  -13.8142   20.5656 C   0  0  0  0  0  0
  -24.1781  -13.0396   20.9163 C   0  0  0  0  0  0
  -24.6366  -11.6881   20.8760 C   0  0  0  0  0  0
  -23.9056  -10.4255   21.0468 C   0  0  0  0  0  0
  -24.3601   -9.4152   21.9233 C   0  0  0  0  0  0
  -23.6261   -8.2190   22.0772 C   0  0  0  0  0  0
  -22.4247   -8.0267   21.3558 C   0  0  0  0  0  0
  -21.9909   -9.0240   20.4661 C   0  0  0  0  0  0
  -22.7248  -10.2107   20.3087 C   0  0  0  0  0  0
  -21.6821   -6.0731   22.5299 C   0  0  0  0  0  0
  -21.3992   -6.5642   23.8234 C   0  0  0  0  0  0
  -21.3657   -5.6801   24.9201 C   0  0  0  0  0  0
  -21.6038   -4.3068   24.7250 C   0  0  0  0  0  0
  -21.8795   -3.8150   23.4377 C   0  0  0  0  0  0
  -21.9166   -4.6960   22.3427 C   0  0  0  0  0  0
  -22.7809  -13.5203   21.1820 C   0  0  0  0  0  0
  -22.1633   -4.2145   21.1006 F   0  0  0  0  0  0
  -21.5638   -3.4551   25.7769 F   0  0  0  0  0  0
  -30.0244  -13.2687   20.4447 N   0  0  0  0  0  0
  -26.2941  -12.9284   20.3259 N   0  0  0  0  0  0
  -25.9257  -11.6465   20.5715 N   0  0  0  0  0  0
  -22.0448  -12.8229   22.0427 N   0  0  0  0  0  0
  -25.4230  -15.1854   20.4114 N   0  0  0  0  0  0
  -31.7902  -14.6818   20.1122 O   0  0  0  0  0  0
  -21.6593   -6.8884   21.4262 O   0  0  0  0  0  0
  -22.3469  -14.5464   20.6636 O   0  0  0  0  0  0
  -24.6163  -31.8707   23.2116 C   0  0  0  0  0  0
  -25.9045  -32.4855   23.8446 C   0  0  1  0  0  0
  -27.2118  -27.3760   20.0946 C   0  0  0  0  0  0
  -25.5906  -33.8656   24.2376 N   0  0  0  0  0  0
  -23.4093  -30.4886   21.5580 C   0  0  2  0  0  0
  -24.8491  -28.9613   20.1162 C   0  0  0  0  0  0
  -22.7426  -29.4638   22.5040 C   0  0  0  0  0  0
  -18.0288  -28.1403   22.8492 C   0  0  0  0  0  0
  -24.1487  -36.7283   23.2639 C   0  0  0  0  0  0
  -25.9443  -30.8130   21.3795 C   0  0  0  0  0  0
  -26.0145  -29.4457   20.7196 C   0  0  0  0  0  0
  -27.1946  -28.6560   20.7141 C   0  0  0  0  0  0
  -26.0244  -26.9420   19.4553 C   0  0  0  0  0  0
  -24.8499  -27.7095   19.4864 C   0  0  0  0  0  0
  -23.6165  -29.8332   20.1683 C   0  0  0  0  0  0
  -25.4119  -36.3115   24.0344 C   0  0  1  0  0  0
  -20.5868  -28.3671   23.1378 C   0  0  2  0  0  0
  -20.6795  -26.9419   22.5438 C   0  0  0  0  0  0
  -19.5794  -26.6465   21.5203 C   0  0  0  0  0  0
  -18.1958  -26.7966   22.1595 C   0  0  0  0  0  0
  -19.1521  -28.8859   23.2919 C   0  0  0  0  0  0
  -18.9425  -30.1482   23.8912 C   0  0  0  0  0  0
  -17.6416  -30.6593   24.0577 C   0  0  0  0  0  0
  -25.9040  -34.9487   23.5144 C   0  0  0  0  0  0
  -16.5325  -29.9079   23.6345 C   0  0  0  0  0  0
  -16.7263  -28.6510   23.0330 C   0  0  0  0  0  0
  -26.4468  -31.6630   25.0777 C   0  0  0  0  0  0
  -25.3728  -31.3687   26.1501 C   0  0  0  0  0  0
  -27.0301  -30.3077   24.6172 C   0  0  0  0  0  0
  -27.6073  -32.4333   25.7510 C   0  0  0  0  0  0
  -27.5589  -37.1800   24.8475 C   0  0  0  0  0  0
  -21.4145  -29.3031   22.3793 N   0  0  0  0  0  0
  -26.4316  -37.3797   23.9402 N   0  0  0  0  0  0
  -24.6752  -31.0717   22.1087 N   0  0  0  0  0  0
  -23.4167  -28.8191   23.3114 O   0  0  0  0  0  0
  -28.3624  -26.5953   20.1524 O   0  0  0  0  0  0
  -26.5580  -34.8936   22.4694 O   0  0  0  0  0  0
  -23.5332  -32.1534   23.7425 O   0  0  0  0  0  0
  -27.6949  -21.5550   21.4090 C   0  0  0  0  0  0
  -29.4058  -20.2788   20.2453 C   0  0  0  0  0  0
  -28.8211  -21.5341   20.5573 C   0  0  0  0  0  0
  -27.1887  -20.3621   21.9884 C   0  0  0  0  0  0
  -28.8975  -19.0707   20.7864 C   0  0  0  0  0  0
  -27.8079  -19.1247   21.6888 C   0  0  0  0  0  0
  -27.1450  -24.7339   25.0379 C   0  0  0  0  0  0
  -24.6634  -24.4360   24.6480 C   0  0  0  0  0  0
  -29.3648  -22.8087   19.8773 C   0  0  0  0  0  0
  -25.9490  -20.3606   22.8911 C   0  0  0  0  0  0
  -29.4049  -17.7075   20.2911 C   0  0  0  0  0  0
  -29.1638  -24.2112   20.5453 C   0  0  0  0  0  0
  -25.3680  -21.7310   23.2730 C   0  0  0  0  0  0
  -26.2595  -22.4933   24.2690 C   0  0  0  0  0  0
  -30.2144  -16.8535   21.3119 C   0  0  0  0  0  0
  -28.3306  -25.2129   19.6924 C   0  0  0  0  0  0
  -26.0729  -24.0177   24.2060 C   0  0  0  0  0  0
  -29.9450  -15.4118   21.1838 N   0  0  0  0  0  0
  -27.1868  -17.6654   22.3922 Cl  0  0  0  0  0  0
  -31.4669  -12.3851   19.1345 H   0  0  0  0  0  0
  -30.3055  -11.2844   19.8234 H   0  0  0  0  0  0
  -29.7357  -11.7727   17.4248 H   0  0  0  0  0  0
  -29.6474  -13.4849   17.7793 H   0  0  0  0  0  0
  -27.8462  -11.2831   18.8425 H   0  0  0  0  0  0
  -27.3505  -12.5686   17.7772 H   0  0  0  0  0  0
  -27.7002  -14.2415   19.5484 H   0  0  0  0  0  0
  -28.6530  -11.9001   21.2711 H   0  0  0  0  0  0
  -28.4358  -13.5066   21.8845 H   0  0  0  0  0  0
  -25.2734   -9.5570   22.4838 H   0  0  0  0  0  0
  -23.9936   -7.4550   22.7485 H   0  0  0  0  0  0
  -21.0835   -8.8762   19.8972 H   0  0  0  0  0  0
  -22.3731  -10.9649   19.6188 H   0  0  0  0  0  0
  -21.1987   -7.6147   23.9738 H   0  0  0  0  0  0
  -21.1510   -6.0545   25.9106 H   0  0  0  0  0  0
  -22.0581   -2.7611   23.2882 H   0  0  0  0  0  0
  -22.4022  -11.9873   22.4810 H   0  0  0  0  0  0
  -21.1089  -13.1296   22.2642 H   0  0  0  0  0  0
  -24.6652  -15.8468   20.5603 H   0  0  0  0  0  0
  -26.2953  -15.6375   20.1702 H   0  0  0  0  0  0
  -26.7104  -32.5545   23.1190 H   0  0  0  0  0  0
  -25.0067  -33.9893   25.0523 H   0  0  0  0  0  0
  -22.7047  -31.3098   21.4207 H   0  0  0  0  0  0
  -23.3795  -35.9572   23.3335 H   0  0  0  0  0  0
  -24.3545  -36.8863   22.2039 H   0  0  0  0  0  0
  -23.7217  -37.6489   23.6636 H   0  0  0  0  0  0
  -26.0658  -31.5887   20.6213 H   0  0  0  0  0  0
  -26.8279  -30.8572   22.0044 H   0  0  0  0  0  0
  -28.0858  -29.0152   21.2087 H   0  0  0  0  0  0
  -25.9488  -26.0114   18.9171 H   0  0  0  0  0  0
  -23.9519  -27.3413   19.0102 H   0  0  0  0  0  0
  -23.7276  -30.6174   19.4175 H   0  0  0  0  0  0
  -22.7435  -29.2531   19.8620 H   0  0  0  0  0  0
  -25.1298  -36.1986   25.0845 H   0  0  0  0  0  0
  -20.9910  -28.3196   24.1516 H   0  0  0  0  0  0
  -20.5747  -26.2208   23.3559 H   0  0  0  0  0  0
  -21.6667  -26.7517   22.1214 H   0  0  0  0  0  0
  -19.6964  -25.6411   21.1148 H   0  0  0  0  0  0
  -19.6772  -27.3358   20.6799 H   0  0  0  0  0  0
  -17.4249  -26.6720   21.3974 H   0  0  0  0  0  0
  -18.0368  -26.0093   22.8968 H   0  0  0  0  0  0
  -19.7879  -30.7328   24.2269 H   0  0  0  0  0  0
  -17.4944  -31.6268   24.5178 H   0  0  0  0  0  0
  -15.5314  -30.2946   23.7699 H   0  0  0  0  0  0
  -15.8667  -28.0842   22.7012 H   0  0  0  0  0  0
  -24.5928  -30.7030   25.7790 H   0  0  0  0  0  0
  -24.8895  -32.2805   26.5012 H   0  0  0  0  0  0
  -25.8076  -30.8803   27.0225 H   0  0  0  0  0  0
  -26.2849  -29.6848   24.1211 H   0  0  0  0  0  0
  -27.4030  -29.7308   25.4644 H   0  0  0  0  0  0
  -27.8713  -30.4412   23.9369 H   0  0  0  0  0  0
  -27.2756  -33.3633   26.2131 H   0  0  0  0  0  0
  -28.3841  -32.6880   25.0293 H   0  0  0  0  0  0
  -28.0786  -31.8427   26.5372 H   0  0  0  0  0  0
  -28.2622  -38.0083   24.7507 H   0  0  0  0  0  0
  -28.1074  -36.2609   24.6333 H   0  0  0  0  0  0
  -27.2288  -37.1472   25.8877 H   0  0  0  0  0  0
  -20.9300  -29.8694   21.6977 H   0  0  0  0  0  0
  -26.0209  -38.2882   24.1411 H   0  0  0  0  0  0
  -27.2057  -22.4961   21.6032 H   0  0  0  0  0  0
  -30.2253  -20.2381   19.5396 H   0  0  0  0  0  0
  -27.0508  -25.8177   24.9537 H   0  0  0  0  0  0
  -28.1501  -24.4676   24.7063 H   0  0  0  0  0  0
  -27.0618  -24.4722   26.0931 H   0  0  0  0  0  0
  -24.5329  -25.5156   24.5752 H   0  0  0  0  0  0
  -24.4741  -24.1480   25.6818 H   0  0  0  0  0  0
  -23.8887  -23.9758   24.0330 H   0  0  0  0  0  0
  -28.9591  -22.8242   18.8653 H   0  0  0  0  0  0
  -30.4408  -22.6618   19.7633 H   0  0  0  0  0  0
  -26.1790  -19.8165   23.8098 H   0  0  0  0  0  0
  -25.1814  -19.7831   22.3744 H   0  0  0  0  0  0
  -29.9908  -17.8409   19.3790 H   0  0  0  0  0  0
  -28.5124  -17.1727   19.9630 H   0  0  0  0  0  0
  -30.1567  -24.6403   20.6783 H   0  0  0  0  0  0
  -28.7587  -24.1255   21.5519 H   0  0  0  0  0  0
  -24.3923  -21.5773   23.7355 H   0  0  0  0  0  0
  -25.1668  -22.3178   22.3756 H   0  0  0  0  0  0
  -27.3044  -22.2619   24.0655 H   0  0  0  0  0  0
  -26.0732  -22.1215   25.2777 H   0  0  0  0  0  0
  -31.2803  -17.0661   21.2225 H   0  0  0  0  0  0
  -29.9400  -17.1180   22.3349 H   0  0  0  0  0  0
  -27.3378  -24.7718   19.6485 H   0  0  0  0  0  0
  -28.7194  -25.2149   18.6731 H   0  0  0  0  0  0
  -26.2111  -24.3301   23.1696 H   0  0  0  0  0  0
  -29.0618  -15.0940   21.5537 H   0  0  0  0  0  0
  1 25  1  0  0  0
  1 30  2  0  0  0
  1 88  1  0  0  0
  2  3  1  0  0  0
  2 25  1  0  0  0
  2 90  1  0  0  0
  2 91  1  0  0  0
  3  4  1  0  0  0
  3 92  1  0  0  0
  3 93  1  0  0  0
  4  5  1  0  0  0
  4 94  1  0  0  0
  4 95  1  0  0  0
  5  6  1  0  0  0
  5 26  1  0  0  0
  5 96  1  0  0  0
  6 25  1  0  0  0
  6 97  1  0  0  0
  6 98  1  0  0  0
  7  8  2  0  0  0
  7 26  1  0  0  0
  7 29  1  0  0  0
  8  9  1  0  0  0
  8 22  1  0  0  0
  9 10  1  0  0  0
  9 27  2  0  0  0
 10 11  2  0  0  0
 10 15  1  0  0  0
 11 12  1  0  0  0
 11 99  1  0  0  0
 12 13  2  0  0  0
 12100  1  0  0  0
 13 14  1  0  0  0
 13 31  1  0  0  0
 14 15  2  0  0  0
 14101  1  0  0  0
 15102  1  0  0  0
 16 17  2  0  0  0
 16 21  1  0  0  0
 16 31  1  0  0  0
 17 18  1  0  0  0
 17103  1  0  0  0
 18 19  2  0  0  0
 18104  1  0  0  0
 19 20  1  0  0  0
 19 24  1  0  0  0
 20 21  2  0  0  0
 20105  1  0  0  0
 21 23  1  0  0  0
 22 28  1  0  0  0
 22 32  2  0  0  0
 26 27  1  0  0  0
 28106  1  0  0  0
 28107  1  0  0  0
 29108  1  0  0  0
 29109  1  0  0  0
 33 34  1  0  0  0
 33 66  1  0  0  0
 33 70  2  0  0  0
 34 36  1  0  0  0
 34 59  1  0  0  0
 34110  1  0  0  0
 35 44  2  0  0  0
 35 45  1  0  0  0
 35 68  1  0  0  0
 36 56  1  0  0  0
 36111  1  0  0  0
 37 39  1  0  0  0
 37 47  1  0  0  0
 37 66  1  0  0  0
 37112  1  0  0  0
 38 43  2  0  0  0
 38 46  1  0  0  0
 38 47  1  0  0  0
 39 64  1  0  0  0
 39 67  2  0  0  0
 40 52  1  0  0  0
 40 53  2  0  0  0
 40 58  1  0  0  0
 41113  1  0  0  0
 41114  1  0  0  0
 41115  1  0  0  0
 41 48  1  0  0  0
 42 43  1  0  0  0
 42 66  1  0  0  0
 42116  1  0  0  0
 42117  1  0  0  0
 43 44  1  0  0  0
 44118  1  0  0  0
 45 46  2  0  0  0
 45119  1  0  0  0
 46120  1  0  0  0
 47121  1  0  0  0
 47122  1  0  0  0
 48 56  1  0  0  0
 48 65  1  0  0  0
 48123  1  0  0  0
 49 50  1  0  0  0
 49 53  1  0  0  0
 49 64  1  0  0  0
 49124  1  0  0  0
 50 51  1  0  0  0
 50125  1  0  0  0
 50126  1  0  0  0
 51 52  1  0  0  0
 51127  1  0  0  0
 51128  1  0  0  0
 52129  1  0  0  0
 52130  1  0  0  0
 53 54  1  0  0  0
 54 55  2  0  0  0
 54131  1  0  0  0
 55 57  1  0  0  0
 55132  1  0  0  0
 56 69  2  0  0  0
 57 58  2  0  0  0
 57133  1  0  0  0
 58134  1  0  0  0
 59 60  1  0  0  0
 59 61  1  0  0  0
 59 62  1  0  0  0
 60135  1  0  0  0
 60136  1  0  0  0
 60137  1  0  0  0
 61138  1  0  0  0
 61139  1  0  0  0
 61140  1  0  0  0
 62141  1  0  0  0
 62142  1  0  0  0
 62143  1  0  0  0
 63 65  1  0  0  0
 63144  1  0  0  0
 63145  1  0  0  0
 63146  1  0  0  0
 64147  1  0  0  0
 65148  1  0  0  0
 68 86  1  0  0  0
 71 73  2  0  0  0
 71 74  1  0  0  0
 71149  1  0  0  0
 72 73  1  0  0  0
 72 75  2  0  0  0
 72150  1  0  0  0
 73 79  1  0  0  0
 74 76  2  0  0  0
 74 80  1  0  0  0
 75 76  1  0  0  0
 75 81  1  0  0  0
 76 89  1  0  0  0
 77151  1  0  0  0
 77152  1  0  0  0
 77153  1  0  0  0
 77 87  1  0  0  0
 78 87  1  0  0  0
 78154  1  0  0  0
 78155  1  0  0  0
 78156  1  0  0  0
 79 82  1  0  0  0
 79157  1  0  0  0
 79158  1  0  0  0
 80 83  1  0  0  0
 80159  1  0  0  0
 80160  1  0  0  0
 81 85  1  0  0  0
 81161  1  0  0  0
 81162  1  0  0  0
 82 86  1  0  0  0
 82163  1  0  0  0
 82164  1  0  0  0
 83 84  1  0  0  0
 83165  1  0  0  0
 83166  1  0  0  0
 84 87  1  0  0  0
 84167  1  0  0  0
 84168  1  0  0  0
 85 88  1  0  0  0
 85169  1  0  0  0
 85170  1  0  0  0
 86171  1  0  0  0
 86172  1  0  0  0
 87173  1  0  0  0
 88174  1  0  0  0
M  ISO  4   1 100  68 101  86 101  88 100
M  END
> <chiral flag>
0

> <version>
0

> <s_m_source_file>
/data/baiqing/PycharmProjects/Reinvent-master-3.2/result/LINK_invent/BTK/process_docking_weight1_custom_sum_contain_oxygen_bond_distance_aromatic_linkinvent_7_9_3/rearranged_h_0092.sdf

> <i_m_source_file_index>
57

> <r_mmod_Potential_Energy-OPLS-2005>
-18.4015693664551

> <r_mmod_Stretch_Energy-OPLS-2005>
46.1893653869629

> <r_mmod_Bend_Energy-OPLS-2005>
119.738578796387

> <r_mmod_Torsional_Energy-OPLS-2005>
224.8369140625

> <r_mmod_Improper_Torsional_Energy-OPLS-2005>
3.85874199867249

> <r_mmod_Van_der_Waal_Energy-OPLS-2005>
150.541107177734

> <r_mmod_Electrostatic_Energy-OPLS-2005>
-393.300201416016

> <r_mmod_Solvation_Energy-OPLS-2005>
-189.586181640625

> <b_mmod_Minimization_Converged-OPLS-2005>
0

> <r_mmod_RMS_Derivative-OPLS-2005>
4.7479453086853

$$$$
59
                    3D
 Structure written by MMmdl.
165173  0  0  1  0            999 V2000
  -30.6337  -14.9068   20.4911 C   0  0  0  0  0  0
  -30.4433  -12.5696   19.5171 C   0  0  0  0  0  0
  -29.5255  -12.5533   18.2716 C   0  0  0  0  0  0
  -28.0615  -12.3356   18.6899 C   0  0  0  0  0  0
  -27.6463  -13.2592   19.8622 C   0  0  2  0  0  0
  -28.6930  -13.2776   21.0044 C   0  0  0  0  0  0
  -25.2517  -13.8262   20.5755 C   0  0  0  0  0  0
  -24.1798  -13.0442   20.9226 C   0  0  0  0  0  0
  -24.6442  -11.6953   20.8759 C   0  0  0  0  0  0
  -23.9114  -10.4303   21.0404 C   0  0  0  0  0  0
  -24.3649   -9.4212   21.9196 C   0  0  0  0  0  0
  -23.6299   -8.2258   22.0773 C   0  0  0  0  0  0
  -22.4289   -8.0304   21.3547 C   0  0  0  0  0  0
  -21.9938   -9.0277   20.4650 C   0  0  0  0  0  0
  -22.7281  -10.2153   20.3049 C   0  0  0  0  0  0
  -21.6857   -6.0746   22.5275 C   0  0  0  0  0  0
  -21.4013   -6.5648   23.8213 C   0  0  0  0  0  0
  -21.3649   -5.6803   24.9168 C   0  0  0  0  0  0
  -21.6052   -4.3062   24.7212 C   0  0  0  0  0  0
  -21.8811   -3.8156   23.4338 C   0  0  0  0  0  0
  -21.9188   -4.6978   22.3392 C   0  0  0  0  0  0
  -22.7818  -13.5214   21.1841 C   0  0  0  0  0  0
  -22.1659   -4.2168   21.0969 F   0  0  0  0  0  0
  -21.5621   -3.4543   25.7723 F   0  0  0  0  0  0
  -29.9880  -13.6673   20.4261 N   0  0  0  0  0  0
  -26.2998  -12.9516   20.3391 N   0  0  0  0  0  0
  -25.9409  -11.6633   20.5823 N   0  0  0  0  0  0
  -22.0454  -12.8193   22.0392 N   0  0  0  0  0  0
  -25.4110  -15.1980   20.4180 N   0  0  0  0  0  0
  -31.7988  -14.9498   20.0941 O   0  0  0  0  0  0
  -21.6646   -6.8906   21.4246 O   0  0  0  0  0  0
  -22.3521  -14.5506   20.6688 O   0  0  0  0  0  0
  -24.6431  -31.8419   23.1875 C   0  0  0  0  0  0
  -25.9208  -32.4675   23.8252 C   0  0  1  0  0  0
  -27.2248  -27.1288   20.1631 C   0  0  0  0  0  0
  -25.5932  -33.8476   24.2171 N   0  0  0  0  0  0
  -23.4473  -30.4586   21.5316 C   0  0  2  0  0  0
  -24.8996  -28.8835   20.1094 C   0  0  0  0  0  0
  -22.7564  -29.4514   22.4832 C   0  0  0  0  0  0
  -18.0321  -28.1397   22.8449 C   0  0  0  0  0  0
  -24.1487  -36.7267   23.2642 C   0  0  0  0  0  0
  -25.9991  -30.7166   21.3856 C   0  0  0  0  0  0
  -26.0721  -29.3250   20.7329 C   0  0  0  0  0  0
  -27.2328  -28.4635   20.7400 C   0  0  0  0  0  0
  -26.0255  -26.7881   19.4981 C   0  0  0  0  0  0
  -24.8891  -27.6290   19.4797 C   0  0  0  0  0  0
  -23.6748  -29.7850   20.1509 C   0  0  0  0  0  0
  -25.4123  -36.3018   24.0303 C   0  0  1  0  0  0
  -20.5913  -28.3745   23.1205 C   0  0  2  0  0  0
  -20.6806  -26.9435   22.5382 C   0  0  0  0  0  0
  -19.5787  -26.6380   21.5186 C   0  0  0  0  0  0
  -18.1962  -26.7950   22.1576 C   0  0  0  0  0  0
  -19.1567  -28.8878   23.2838 C   0  0  0  0  0  0
  -18.9488  -30.1461   23.8885 C   0  0  0  0  0  0
  -17.6492  -30.6604   24.0533 C   0  0  0  0  0  0
  -25.9080  -34.9391   23.5052 C   0  0  0  0  0  0
  -16.5369  -29.9087   23.6318 C   0  0  0  0  0  0
  -16.7297  -28.6507   23.0345 C   0  0  0  0  0  0
  -26.4548  -31.6539   25.0696 C   0  0  0  0  0  0
  -25.3743  -31.3626   26.1374 C   0  0  0  0  0  0
  -27.0472  -30.2968   24.6278 C   0  0  0  0  0  0
  -27.6058  -32.4332   25.7484 C   0  0  0  0  0  0
  -27.5598  -37.1789   24.8451 C   0  0  0  0  0  0
  -21.4257  -29.3071   22.3590 N   0  0  0  0  0  0
  -26.4294  -37.3734   23.9410 N   0  0  0  0  0  0
  -24.7150  -31.0268   22.0920 N   0  0  0  0  0  0
  -23.4210  -28.8076   23.2993 O   0  0  0  0  0  0
  -28.3003  -26.1737   20.2886 O   0  0  0  0  0  0
  -26.5673  -34.8887   22.4636 O   0  0  0  0  0  0
  -23.5535  -32.1286   23.7089 O   0  0  0  0  0  0
  -30.7983  -18.0983   23.2285 C   0  0  0  0  0  0
  -31.9368  -18.4877   22.2914 C   0  0  0  0  0  0
  -29.5055  -18.8209   22.7989 C   0  0  0  0  0  0
  -31.6185  -18.1438   20.8144 C   0  0  0  0  0  0
  -29.1972  -18.7778   21.2717 C   0  0  2  0  0  0
  -30.1679  -17.6485   20.5406 C   0  0  2  0  0  0
  -26.2115  -20.5491   19.7361 C   0  0  0  0  0  0
  -27.5994  -19.9246   19.5544 C   0  0  0  0  0  0
  -28.5551  -23.2931   20.8170 C   0  0  0  0  0  0
  -29.2338  -21.7890   20.4099 C   0  0  0  0  0  0
  -28.3211  -24.6697   19.8599 C   0  0  0  0  0  0
  -28.5761  -20.2645   20.7063 C   0  0  2  0  0  0
  -29.9421  -16.0997   20.8229 N   0  0  0  0  0  0
  -31.4821  -12.6939   19.2083 H   0  0  0  0  0  0
  -30.4071  -11.6107   20.0324 H   0  0  0  0  0  0
  -29.8361  -11.7734   17.5759 H   0  0  0  0  0  0
  -29.6180  -13.4993   17.7356 H   0  0  0  0  0  0
  -27.9562  -11.2927   18.9890 H   0  0  0  0  0  0
  -27.3959  -12.4764   17.8377 H   0  0  0  0  0  0
  -27.6159  -14.2668   19.4465 H   0  0  0  0  0  0
  -28.7667  -12.3032   21.4914 H   0  0  0  0  0  0
  -28.4006  -13.9886   21.7792 H   0  0  0  0  0  0
  -25.2786   -9.5697   22.4800 H   0  0  0  0  0  0
  -23.9979   -7.4677   22.7519 H   0  0  0  0  0  0
  -21.0871   -8.8822   19.8974 H   0  0  0  0  0  0
  -22.3743  -10.9699   19.6170 H   0  0  0  0  0  0
  -21.2018   -7.6167   23.9717 H   0  0  0  0  0  0
  -21.1471   -6.0534   25.9076 H   0  0  0  0  0  0
  -22.0598   -2.7627   23.2827 H   0  0  0  0  0  0
  -22.4034  -11.9816   22.4732 H   0  0  0  0  0  0
  -21.1083  -13.1242   22.2577 H   0  0  0  0  0  0
  -24.6376  -15.8438   20.5331 H   0  0  0  0  0  0
  -26.2579  -15.6500   20.1008 H   0  0  0  0  0  0
  -26.7306  -32.5301   23.1000 H   0  0  0  0  0  0
  -24.9939  -33.9528   25.0227 H   0  0  0  0  0  0
  -22.7537  -31.2889   21.3812 H   0  0  0  0  0  0
  -23.3740  -35.9615   23.3275 H   0  0  0  0  0  0
  -24.3547  -36.8941   22.2066 H   0  0  0  0  0  0
  -23.7277  -37.6457   23.6726 H   0  0  0  0  0  0
  -26.1505  -31.4697   20.6102 H   0  0  0  0  0  0
  -26.8709  -30.7723   22.0256 H   0  0  0  0  0  0
  -28.1261  -28.7911   21.2527 H   0  0  0  0  0  0
  -25.9163  -25.8298   19.0177 H   0  0  0  0  0  0
  -23.9888  -27.2860   18.9861 H   0  0  0  0  0  0
  -23.8245  -30.5612   19.4005 H   0  0  0  0  0  0
  -22.7884  -29.2330   19.8342 H   0  0  0  0  0  0
  -25.1323  -36.1816   25.0802 H   0  0  0  0  0  0
  -21.0018  -28.3381   24.1319 H   0  0  0  0  0  0
  -20.5702  -26.2353   23.3624 H   0  0  0  0  0  0
  -21.6685  -26.7449   22.1192 H   0  0  0  0  0  0
  -19.6929  -25.6283   21.1253 H   0  0  0  0  0  0
  -19.6733  -27.3158   20.6699 H   0  0  0  0  0  0
  -17.4243  -26.6674   21.3978 H   0  0  0  0  0  0
  -18.0342  -26.0087   22.8957 H   0  0  0  0  0  0
  -19.7961  -30.7242   24.2280 H   0  0  0  0  0  0
  -17.5059  -31.6277   24.5146 H   0  0  0  0  0  0
  -15.5366  -30.2989   23.7697 H   0  0  0  0  0  0
  -15.8685  -28.0830   22.7078 H   0  0  0  0  0  0
  -24.5984  -30.6942   25.7632 H   0  0  0  0  0  0
  -24.8840  -32.2737   26.4828 H   0  0  0  0  0  0
  -25.8044  -30.8764   27.0143 H   0  0  0  0  0  0
  -26.3103  -29.6622   24.1368 H   0  0  0  0  0  0
  -27.4205  -29.7343   25.4846 H   0  0  0  0  0  0
  -27.8944  -30.4238   23.9537 H   0  0  0  0  0  0
  -27.2715  -33.3733   26.1906 H   0  0  0  0  0  0
  -28.3973  -32.6739   25.0372 H   0  0  0  0  0  0
  -28.0658  -31.8565   26.5534 H   0  0  0  0  0  0
  -28.2531  -38.0170   24.7577 H   0  0  0  0  0  0
  -28.1177  -36.2693   24.6180 H   0  0  0  0  0  0
  -27.2288  -37.1285   25.8837 H   0  0  0  0  0  0
  -20.9494  -29.8773   21.6743 H   0  0  0  0  0  0
  -26.0136  -38.2770   24.1471 H   0  0  0  0  0  0
  -31.0446  -18.3508   24.2618 H   0  0  0  0  0  0
  -30.6709  -17.0151   23.2156 H   0  0  0  0  0  0
  -32.8758  -18.0353   22.6166 H   0  0  0  0  0  0
  -32.0834  -19.5664   22.3918 H   0  0  0  0  0  0
  -29.5508  -19.8541   23.1414 H   0  0  0  0  0  0
  -28.6764  -18.3612   23.3403 H   0  0  0  0  0  0
  -32.3710  -17.4770   20.3954 H   0  0  0  0  0  0
  -31.7318  -19.0837   20.2680 H   0  0  0  0  0  0
  -28.2808  -18.1904   21.2873 H   0  0  0  0  0  0
  -30.0127  -17.7456   19.4658 H   0  0  0  0  0  0
  -25.5494  -20.2334   18.9298 H   0  0  0  0  0  0
  -26.2563  -21.6381   19.7312 H   0  0  0  0  0  0
  -25.7562  -20.2337   20.6782 H   0  0  0  0  0  0
  -28.0258  -20.2176   18.5945 H   0  0  0  0  0  0
  -27.4547  -18.8475   19.4648 H   0  0  0  0  0  0
  -29.1976  -23.6492   21.6209 H   0  0  0  0  0  0
  -27.6097  -23.0890   21.3157 H   0  0  0  0  0  0
  -30.2189  -21.7764   20.8772 H   0  0  0  0  0  0
  -29.4755  -21.8321   19.3471 H   0  0  0  0  0  0
  -27.4522  -24.4580   19.2431 H   0  0  0  0  0  0
  -29.1420  -24.6426   19.1430 H   0  0  0  0  0  0
  -27.9404  -20.5099   21.5589 H   0  0  0  0  0  0
  -29.0589  -15.9099   21.2716 H   0  0  0  0  0  0
  1 25  1  0  0  0
  1 30  2  0  0  0
  1 83  1  0  0  0
  2  3  1  0  0  0
  2 25  1  0  0  0
  2 84  1  0  0  0
  2 85  1  0  0  0
  3  4  1  0  0  0
  3 86  1  0  0  0
  3 87  1  0  0  0
  4  5  1  0  0  0
  4 88  1  0  0  0
  4 89  1  0  0  0
  5  6  1  0  0  0
  5 26  1  0  0  0
  5 90  1  0  0  0
  6 25  1  0  0  0
  6 91  1  0  0  0
  6 92  1  0  0  0
  7  8  2  0  0  0
  7 26  1  0  0  0
  7 29  1  0  0  0
  8  9  1  0  0  0
  8 22  1  0  0  0
  9 10  1  0  0  0
  9 27  2  0  0  0
 10 11  2  0  0  0
 10 15  1  0  0  0
 11 12  1  0  0  0
 11 93  1  0  0  0
 12 13  2  0  0  0
 12 94  1  0  0  0
 13 14  1  0  0  0
 13 31  1  0  0  0
 14 15  2  0  0  0
 14 95  1  0  0  0
 15 96  1  0  0  0
 16 17  2  0  0  0
 16 21  1  0  0  0
 16 31  1  0  0  0
 17 18  1  0  0  0
 17 97  1  0  0  0
 18 19  2  0  0  0
 18 98  1  0  0  0
 19 20  1  0  0  0
 19 24  1  0  0  0
 20 21  2  0  0  0
 20 99  1  0  0  0
 21 23  1  0  0  0
 22 28  1  0  0  0
 22 32  2  0  0  0
 26 27  1  0  0  0
 28100  1  0  0  0
 28101  1  0  0  0
 29102  1  0  0  0
 29103  1  0  0  0
 33 34  1  0  0  0
 33 66  1  0  0  0
 33 70  2  0  0  0
 34 36  1  0  0  0
 34 59  1  0  0  0
 34104  1  0  0  0
 35 44  2  0  0  0
 35 45  1  0  0  0
 35 68  1  0  0  0
 36 56  1  0  0  0
 36105  1  0  0  0
 37 39  1  0  0  0
 37 47  1  0  0  0
 37 66  1  0  0  0
 37106  1  0  0  0
 38 43  2  0  0  0
 38 46  1  0  0  0
 38 47  1  0  0  0
 39 64  1  0  0  0
 39 67  2  0  0  0
 40 52  1  0  0  0
 40 53  2  0  0  0
 40 58  1  0  0  0
 41107  1  0  0  0
 41108  1  0  0  0
 41109  1  0  0  0
 41 48  1  0  0  0
 42 43  1  0  0  0
 42 66  1  0  0  0
 42110  1  0  0  0
 42111  1  0  0  0
 43 44  1  0  0  0
 44112  1  0  0  0
 45 46  2  0  0  0
 45113  1  0  0  0
 46114  1  0  0  0
 47115  1  0  0  0
 47116  1  0  0  0
 48 56  1  0  0  0
 48 65  1  0  0  0
 48117  1  0  0  0
 49 50  1  0  0  0
 49 53  1  0  0  0
 49 64  1  0  0  0
 49118  1  0  0  0
 50 51  1  0  0  0
 50119  1  0  0  0
 50120  1  0  0  0
 51 52  1  0  0  0
 51121  1  0  0  0
 51122  1  0  0  0
 52123  1  0  0  0
 52124  1  0  0  0
 53 54  1  0  0  0
 54 55  2  0  0  0
 54125  1  0  0  0
 55 57  1  0  0  0
 55126  1  0  0  0
 56 69  2  0  0  0
 57 58  2  0  0  0
 57127  1  0  0  0
 58128  1  0  0  0
 59 60  1  0  0  0
 59 61  1  0  0  0
 59 62  1  0  0  0
 60129  1  0  0  0
 60130  1  0  0  0
 60131  1  0  0  0
 61132  1  0  0  0
 61133  1  0  0  0
 61134  1  0  0  0
 62135  1  0  0  0
 62136  1  0  0  0
 62137  1  0  0  0
 63 65  1  0  0  0
 63138  1  0  0  0
 63139  1  0  0  0
 63140  1  0  0  0
 64141  1  0  0  0
 65142  1  0  0  0
 68 81  1  0  0  0
 71 72  1  0  0  0
 71 73  1  0  0  0
 71143  1  0  0  0
 71144  1  0  0  0
 72 74  1  0  0  0
 72145  1  0  0  0
 72146  1  0  0  0
 73147  1  0  0  0
 73148  1  0  0  0
 73 75  1  0  0  0
 74 76  1  0  0  0
 74149  1  0  0  0
 74150  1  0  0  0
 75 76  1  0  0  0
 75 82  1  0  0  0
 75151  1  0  0  0
 76 83  1  0  0  0
 76152  1  0  0  0
 77 78  1  0  0  0
 77153  1  0  0  0
 77154  1  0  0  0
 77155  1  0  0  0
 78156  1  0  0  0
 78157  1  0  0  0
 78 82  1  0  0  0
 79 80  1  0  0  0
 79 81  1  0  0  0
 79158  1  0  0  0
 79159  1  0  0  0
 80 82  1  0  0  0
 80160  1  0  0  0
 80161  1  0  0  0
 81162  1  0  0  0
 81163  1  0  0  0
 82164  1  0  0  0
 83165  1  0  0  0
M  ISO  4   1 100  68 101  81 101  83 100
M  END
> <chiral flag>
0

> <version>
0

> <s_m_source_file>
/data/baiqing/PycharmProjects/Reinvent-master-3.2/result/LINK_invent/BTK/process_docking_weight1_custom_sum_contain_oxygen_bond_distance_aromatic_linkinvent_7_9_3/rearranged_h_0092.sdf

> <i_m_source_file_index>
58

> <r_mmod_Potential_Energy-OPLS-2005>
671.918579101562

> <r_mmod_Stretch_Energy-OPLS-2005>
286.832122802734

> <r_mmod_Bend_Energy-OPLS-2005>
355.490173339844

> <r_mmod_Torsional_Energy-OPLS-2005>
289.710113525391

> <r_mmod_Improper_Torsional_Energy-OPLS-2005>
3.76233172416687

> <r_mmod_Van_der_Waal_Energy-OPLS-2005>
121.384887695312

> <r_mmod_Electrostatic_Energy-OPLS-2005>
-365.533996582031

> <r_mmod_Solvation_Energy-OPLS-2005>
-194.160278320312

> <b_mmod_Minimization_Converged-OPLS-2005>
0

> <r_mmod_RMS_Derivative-OPLS-2005>
6.20374631881714

$$$$
60
                    3D
 Structure written by MMmdl.
176184  0  0  1  0            999 V2000
  -30.6509  -14.6225   20.4631 C   0  0  0  0  0  0
  -30.4355  -12.3907   19.4162 C   0  0  0  0  0  0
  -29.4876  -12.4813   18.2024 C   0  0  0  0  0  0
  -28.0154  -12.3321   18.6381 C   0  0  0  0  0  0
  -27.6451  -13.2178   19.8584 C   0  0  2  0  0  0
  -28.7034  -13.0975   20.9744 C   0  0  0  0  0  0
  -25.2556  -13.8194   20.5783 C   0  0  0  0  0  0
  -24.1808  -13.0423   20.9221 C   0  0  0  0  0  0
  -24.6374  -11.6909   20.8758 C   0  0  0  0  0  0
  -23.9036  -10.4273   21.0378 C   0  0  0  0  0  0
  -24.3585   -9.4195   21.9175 C   0  0  0  0  0  0
  -23.6267   -8.2220   22.0741 C   0  0  0  0  0  0
  -22.4252   -8.0270   21.3521 C   0  0  0  0  0  0
  -21.9861   -9.0244   20.4633 C   0  0  0  0  0  0
  -22.7186  -10.2135   20.3033 C   0  0  0  0  0  0
  -21.6859   -6.0715   22.5251 C   0  0  0  0  0  0
  -21.4009   -6.5622   23.8189 C   0  0  0  0  0  0
  -21.3648   -5.6783   24.9157 C   0  0  0  0  0  0
  -21.6034   -4.3037   24.7217 C   0  0  0  0  0  0
  -21.8822   -3.8119   23.4339 C   0  0  0  0  0  0
  -21.9199   -4.6932   22.3387 C   0  0  0  0  0  0
  -22.7849  -13.5236   21.1900 C   0  0  0  0  0  0
  -22.1664   -4.2106   21.0963 F   0  0  0  0  0  0
  -21.5628   -3.4546   25.7743 F   0  0  0  0  0  0
  -30.0086  -13.4179   20.3822 N   0  0  0  0  0  0
  -26.2957  -12.9354   20.3377 N   0  0  0  0  0  0
  -25.9303  -11.6505   20.5771 N   0  0  0  0  0  0
  -22.0471  -12.8222   22.0449 N   0  0  0  0  0  0
  -25.4261  -15.1931   20.4263 N   0  0  0  0  0  0
  -31.8545  -14.7308   20.2195 O   0  0  0  0  0  0
  -21.6625   -6.8860   21.4219 O   0  0  0  0  0  0
  -22.3529  -14.5540   20.6768 O   0  0  0  0  0  0
  -24.6180  -31.8652   23.2049 C   0  0  0  0  0  0
  -25.9057  -32.4814   23.8368 C   0  0  1  0  0  0
  -27.2440  -27.4035   20.1079 C   0  0  0  0  0  0
  -25.5905  -33.8604   24.2302 N   0  0  0  0  0  0
  -23.4076  -30.4861   21.5457 C   0  0  2  0  0  0
  -24.8583  -28.9397   20.1170 C   0  0  0  0  0  0
  -22.7426  -29.4643   22.4968 C   0  0  0  0  0  0
  -18.0281  -28.1388   22.8501 C   0  0  0  0  0  0
  -24.1484  -36.7301   23.2632 C   0  0  0  0  0  0
  -25.9367  -30.8244   21.3576 C   0  0  0  0  0  0
  -26.0204  -29.4516   20.7105 C   0  0  0  0  0  0
  -27.2177  -28.6926   20.6994 C   0  0  0  0  0  0
  -26.0635  -26.9102   19.5171 C   0  0  0  0  0  0
  -24.8756  -27.6684   19.5172 C   0  0  0  0  0  0
  -23.6195  -29.8093   20.1649 C   0  0  0  0  0  0
  -25.4105  -36.3091   24.0338 C   0  0  1  0  0  0
  -20.5872  -28.3670   23.1324 C   0  0  2  0  0  0
  -20.6770  -26.9404   22.5428 C   0  0  0  0  0  0
  -19.5752  -26.6394   21.5222 C   0  0  0  0  0  0
  -18.1929  -26.7935   22.1632 C   0  0  0  0  0  0
  -19.1533  -28.8847   23.2911 C   0  0  0  0  0  0
  -18.9449  -30.1456   23.8924 C   0  0  0  0  0  0
  -17.6457  -30.6591   24.0573 C   0  0  0  0  0  0
  -25.9037  -34.9467   23.5112 C   0  0  0  0  0  0
  -16.5349  -29.9092   23.6333 C   0  0  0  0  0  0
  -16.7275  -28.6508   23.0351 C   0  0  0  0  0  0
  -26.4489  -31.6592   25.0698 C   0  0  0  0  0  0
  -25.3753  -31.3714   26.1447 C   0  0  0  0  0  0
  -27.0295  -30.3033   24.6047 C   0  0  0  0  0  0
  -27.6076  -32.4303   25.7453 C   0  0  0  0  0  0
  -27.5582  -37.1798   24.8463 C   0  0  0  0  0  0
  -21.4145  -29.3036   22.3720 N   0  0  0  0  0  0
  -26.4287  -37.3788   23.9414 N   0  0  0  0  0  0
  -24.6720  -31.0733   22.0962 N   0  0  0  0  0  0
  -23.4180  -28.8195   23.3026 O   0  0  0  0  0  0
  -28.4005  -26.6443   20.0592 O   0  0  0  0  0  0
  -26.5591  -34.8928   22.4667 O   0  0  0  0  0  0
  -23.5376  -32.1409   23.7453 O   0  0  0  0  0  0
  -31.6642  -18.8118   20.0692 C   0  0  0  0  0  0
  -30.9871  -21.3240   19.2373 C   0  0  0  0  0  0
  -30.3812  -19.2759   20.4302 C   0  0  0  0  0  0
  -30.0465  -20.6209   20.0243 C   0  0  0  0  0  0
  -32.5295  -19.6083   19.3103 C   0  0  0  0  0  0
  -33.0154  -16.2896   16.2947 C   0  0  0  0  0  0
  -34.5106  -15.9586   18.3020 C   0  0  0  0  0  0
  -29.4272  -16.2621   19.1667 C   0  0  0  0  0  0
  -29.4624  -18.3070   21.2239 C   0  0  0  0  0  0
  -28.7231  -21.3559   20.3255 C   0  0  0  0  0  0
  -33.8937  -19.0793   18.9075 C   0  0  0  0  0  0
  -28.8189  -22.8137   20.9198 C   0  0  0  0  0  0
  -33.8631  -18.3201   17.5659 C   0  0  0  0  0  0
  -28.6664  -24.0783   19.9943 C   0  0  0  0  0  0
  -29.9599  -16.8139   21.5201 C   0  0  0  0  0  0
  -28.3989  -25.3980   20.8014 C   0  0  0  0  0  0
  -33.4206  -16.8427   17.6704 C   0  0  0  0  0  0
  -32.1945  -20.8404   18.8843 N   0  0  0  0  0  0
  -29.8509  -15.7439   20.4745 N   0  0  0  0  0  0
  -30.3918  -11.4017   19.8737 H   0  0  0  0  0  0
  -31.4665  -12.5302   19.0840 H   0  0  0  0  0  0
  -29.7375  -11.7123   17.4712 H   0  0  0  0  0  0
  -29.6285  -13.4272   17.6811 H   0  0  0  0  0  0
  -27.8625  -11.2851   18.8976 H   0  0  0  0  0  0
  -27.3458  -12.5354   17.8019 H   0  0  0  0  0  0
  -27.6414  -14.2460   19.5020 H   0  0  0  0  0  0
  -28.7181  -12.0884   21.3829 H   0  0  0  0  0  0
  -28.4696  -13.7666   21.8050 H   0  0  0  0  0  0
  -25.2710   -9.5725   22.4772 H   0  0  0  0  0  0
  -23.9978   -7.4625   22.7477 H   0  0  0  0  0  0
  -21.0766   -8.8770   19.8965 H   0  0  0  0  0  0
  -22.3603  -10.9694   19.6162 H   0  0  0  0  0  0
  -21.1986   -7.6132   23.9699 H   0  0  0  0  0  0
  -21.1481   -6.0501   25.9078 H   0  0  0  0  0  0
  -22.0604   -2.7581   23.2852 H   0  0  0  0  0  0
  -22.4052  -11.9885   22.4852 H   0  0  0  0  0  0
  -21.1111  -13.1323   22.2646 H   0  0  0  0  0  0
  -24.6761  -15.8596   20.5716 H   0  0  0  0  0  0
  -26.3002  -15.6327   20.1638 H   0  0  0  0  0  0
  -26.7123  -32.5533   23.1134 H   0  0  0  0  0  0
  -25.0118  -33.9757   25.0489 H   0  0  0  0  0  0
  -22.6981  -31.3037   21.4014 H   0  0  0  0  0  0
  -23.3753  -35.9627   23.3289 H   0  0  0  0  0  0
  -24.3591  -36.8915   22.2048 H   0  0  0  0  0  0
  -23.7232  -37.6505   23.6647 H   0  0  0  0  0  0
  -26.0416  -31.5852   20.5826 H   0  0  0  0  0  0
  -26.8291  -30.8918   21.9676 H   0  0  0  0  0  0
  -28.1165  -29.0911   21.1494 H   0  0  0  0  0  0
  -26.0691  -25.9386   19.0464 H   0  0  0  0  0  0
  -23.9815  -27.2656   19.0585 H   0  0  0  0  0  0
  -23.7274  -30.5791   19.4004 H   0  0  0  0  0  0
  -22.7434  -29.2271   19.8720 H   0  0  0  0  0  0
  -25.1281  -36.1951   25.0838 H   0  0  0  0  0  0
  -20.9986  -28.3239   24.1435 H   0  0  0  0  0  0
  -20.5677  -26.2273   23.3608 H   0  0  0  0  0  0
  -21.6632  -26.7444   22.1214 H   0  0  0  0  0  0
  -19.6892  -25.6304   21.1240 H   0  0  0  0  0  0
  -19.6688  -27.3218   20.6758 H   0  0  0  0  0  0
  -17.4197  -26.6710   21.4029 H   0  0  0  0  0  0
  -18.0308  -26.0076   22.9024 H   0  0  0  0  0  0
  -19.7922  -30.7270   24.2290 H   0  0  0  0  0  0
  -17.5004  -31.6269   24.5169 H   0  0  0  0  0  0
  -15.5350  -30.2996   23.7628 H   0  0  0  0  0  0
  -15.8675  -28.0835   22.7034 H   0  0  0  0  0  0
  -24.5927  -30.7060   25.7791 H   0  0  0  0  0  0
  -24.8957  -32.2876   26.4893 H   0  0  0  0  0  0
  -25.8122  -30.8893   27.0194 H   0  0  0  0  0  0
  -26.2811  -29.6811   24.1126 H   0  0  0  0  0  0
  -27.4090  -29.7265   25.4486 H   0  0  0  0  0  0
  -27.8641  -30.4355   23.9161 H   0  0  0  0  0  0
  -27.2711  -33.3600   26.2048 H   0  0  0  0  0  0
  -28.3880  -32.6855   25.0273 H   0  0  0  0  0  0
  -28.0738  -31.8404   26.5347 H   0  0  0  0  0  0
  -28.2596  -38.0098   24.7526 H   0  0  0  0  0  0
  -28.1081  -36.2635   24.6267 H   0  0  0  0  0  0
  -27.2310  -37.1423   25.8869 H   0  0  0  0  0  0
  -20.9290  -29.8749   21.6945 H   0  0  0  0  0  0
  -26.0171  -38.2859   24.1448 H   0  0  0  0  0  0
  -31.9952  -17.8199   20.3307 H   0  0  0  0  0  0
  -30.7614  -22.3103   18.8608 H   0  0  0  0  0  0
  -32.6752  -15.2559   16.3650 H   0  0  0  0  0  0
  -33.8487  -16.3171   15.5938 H   0  0  0  0  0  0
  -32.2030  -16.8725   15.8571 H   0  0  0  0  0  0
  -34.1803  -14.9225   18.3762 H   0  0  0  0  0  0
  -34.7639  -16.2761   19.3131 H   0  0  0  0  0  0
  -35.4283  -15.9693   17.7130 H   0  0  0  0  0  0
  -28.4229  -16.6816   19.2206 H   0  0  0  0  0  0
  -29.4160  -15.5018   18.3894 H   0  0  0  0  0  0
  -30.1061  -17.0390   18.8194 H   0  0  0  0  0  0
  -28.4696  -18.3008   20.7764 H   0  0  0  0  0  0
  -29.3236  -18.7886   22.1942 H   0  0  0  0  0  0
  -28.1695  -20.7515   21.0428 H   0  0  0  0  0  0
  -28.1156  -21.3624   19.4198 H   0  0  0  0  0  0
  -34.2889  -18.4533   19.7063 H   0  0  0  0  0  0
  -34.5818  -19.9234   18.8391 H   0  0  0  0  0  0
  -29.7109  -22.9078   21.5408 H   0  0  0  0  0  0
  -27.9899  -22.8869   21.6255 H   0  0  0  0  0  0
  -34.8579  -18.3530   17.1207 H   0  0  0  0  0  0
  -33.2195  -18.8666   16.8734 H   0  0  0  0  0  0
  -27.8463  -23.9331   19.2895 H   0  0  0  0  0  0
  -29.5683  -24.2075   19.3909 H   0  0  0  0  0  0
  -29.3528  -16.4469   22.3469 H   0  0  0  0  0  0
  -30.9695  -16.8344   21.9280 H   0  0  0  0  0  0
  -29.1914  -25.5024   21.5446 H   0  0  0  0  0  0
  -27.4773  -25.2947   21.3772 H   0  0  0  0  0  0
  -32.5341  -16.7842   18.3043 H   0  0  0  0  0  0
  1 25  1  0  0  0
  1 30  2  0  0  0
  1 89  1  0  0  0
  2  3  1  0  0  0
  2 25  1  0  0  0
  2 90  1  0  0  0
  2 91  1  0  0  0
  3  4  1  0  0  0
  3 92  1  0  0  0
  3 93  1  0  0  0
  4  5  1  0  0  0
  4 94  1  0  0  0
  4 95  1  0  0  0
  5  6  1  0  0  0
  5 26  1  0  0  0
  5 96  1  0  0  0
  6 25  1  0  0  0
  6 97  1  0  0  0
  6 98  1  0  0  0
  7  8  2  0  0  0
  7 26  1  0  0  0
  7 29  1  0  0  0
  8  9  1  0  0  0
  8 22  1  0  0  0
  9 10  1  0  0  0
  9 27  2  0  0  0
 10 11  2  0  0  0
 10 15  1  0  0  0
 11 12  1  0  0  0
 11 99  1  0  0  0
 12 13  2  0  0  0
 12100  1  0  0  0
 13 14  1  0  0  0
 13 31  1  0  0  0
 14 15  2  0  0  0
 14101  1  0  0  0
 15102  1  0  0  0
 16 17  2  0  0  0
 16 21  1  0  0  0
 16 31  1  0  0  0
 17 18  1  0  0  0
 17103  1  0  0  0
 18 19  2  0  0  0
 18104  1  0  0  0
 19 20  1  0  0  0
 19 24  1  0  0  0
 20 21  2  0  0  0
 20105  1  0  0  0
 21 23  1  0  0  0
 22 28  1  0  0  0
 22 32  2  0  0  0
 26 27  1  0  0  0
 28106  1  0  0  0
 28107  1  0  0  0
 29108  1  0  0  0
 29109  1  0  0  0
 33 34  1  0  0  0
 33 66  1  0  0  0
 33 70  2  0  0  0
 34 36  1  0  0  0
 34 59  1  0  0  0
 34110  1  0  0  0
 35 44  2  0  0  0
 35 45  1  0  0  0
 35 68  1  0  0  0
 36 56  1  0  0  0
 36111  1  0  0  0
 37 39  1  0  0  0
 37 47  1  0  0  0
 37 66  1  0  0  0
 37112  1  0  0  0
 38 43  2  0  0  0
 38 46  1  0  0  0
 38 47  1  0  0  0
 39 64  1  0  0  0
 39 67  2  0  0  0
 40 52  1  0  0  0
 40 53  2  0  0  0
 40 58  1  0  0  0
 41113  1  0  0  0
 41114  1  0  0  0
 41115  1  0  0  0
 41 48  1  0  0  0
 42 43  1  0  0  0
 42 66  1  0  0  0
 42116  1  0  0  0
 42117  1  0  0  0
 43 44  1  0  0  0
 44118  1  0  0  0
 45 46  2  0  0  0
 45119  1  0  0  0
 46120  1  0  0  0
 47121  1  0  0  0
 47122  1  0  0  0
 48 56  1  0  0  0
 48 65  1  0  0  0
 48123  1  0  0  0
 49 50  1  0  0  0
 49 53  1  0  0  0
 49 64  1  0  0  0
 49124  1  0  0  0
 50 51  1  0  0  0
 50125  1  0  0  0
 50126  1  0  0  0
 51 52  1  0  0  0
 51127  1  0  0  0
 51128  1  0  0  0
 52129  1  0  0  0
 52130  1  0  0  0
 53 54  1  0  0  0
 54 55  2  0  0  0
 54131  1  0  0  0
 55 57  1  0  0  0
 55132  1  0  0  0
 56 69  2  0  0  0
 57 58  2  0  0  0
 57133  1  0  0  0
 58134  1  0  0  0
 59 60  1  0  0  0
 59 61  1  0  0  0
 59 62  1  0  0  0
 60135  1  0  0  0
 60136  1  0  0  0
 60137  1  0  0  0
 61138  1  0  0  0
 61139  1  0  0  0
 61140  1  0  0  0
 62141  1  0  0  0
 62142  1  0  0  0
 62143  1  0  0  0
 63 65  1  0  0  0
 63144  1  0  0  0
 63145  1  0  0  0
 63146  1  0  0  0
 64147  1  0  0  0
 65148  1  0  0  0
 68 86  1  0  0  0
 71 73  2  0  0  0
 71 75  1  0  0  0
 71149  1  0  0  0
 72 74  2  0  0  0
 72 88  1  0  0  0
 72150  1  0  0  0
 73 74  1  0  0  0
 73 79  1  0  0  0
 74 80  1  0  0  0
 75 81  1  0  0  0
 75 88  2  0  0  0
 76151  1  0  0  0
 76152  1  0  0  0
 76153  1  0  0  0
 76 87  1  0  0  0
 77 87  1  0  0  0
 77154  1  0  0  0
 77155  1  0  0  0
 77156  1  0  0  0
 78 89  1  0  0  0
 78157  1  0  0  0
 78158  1  0  0  0
 78159  1  0  0  0
 79 85  1  0  0  0
 79160  1  0  0  0
 79161  1  0  0  0
 80 82  1  0  0  0
 80162  1  0  0  0
 80163  1  0  0  0
 81 83  1  0  0  0
 81164  1  0  0  0
 81165  1  0  0  0
 82 84  1  0  0  0
 82166  1  0  0  0
 82167  1  0  0  0
 83 87  1  0  0  0
 83168  1  0  0  0
 83169  1  0  0  0
 84 86  1  0  0  0
 84170  1  0  0  0
 84171  1  0  0  0
 85 89  1  0  0  0
 85172  1  0  0  0
 85173  1  0  0  0
 86174  1  0  0  0
 86175  1  0  0  0
 87176  1  0  0  0
M  ISO  4   1 100  68 101  86 101  89 100
M  END
> <chiral flag>
0

> <version>
0

> <s_m_source_file>
/data/baiqing/PycharmProjects/Reinvent-master-3.2/result/LINK_invent/BTK/process_docking_weight1_custom_sum_contain_oxygen_bond_distance_aromatic_linkinvent_7_9_3/rearranged_h_0092.sdf

> <i_m_source_file_index>
59

> <r_mmod_Potential_Energy-OPLS-2005>
92.9195022583008

> <r_mmod_Stretch_Energy-OPLS-2005>
64.0850448608398

> <r_mmod_Bend_Energy-OPLS-2005>
138.245193481445

> <r_mmod_Torsional_Energy-OPLS-2005>
345.200012207031

> <r_mmod_Improper_Torsional_Energy-OPLS-2005>
11.1239624023438

> <r_mmod_Van_der_Waal_Energy-OPLS-2005>
134.426071166992

> <r_mmod_Electrostatic_Energy-OPLS-2005>
-435.399841308594

> <r_mmod_Solvation_Energy-OPLS-2005>
-200.472610473633

> <b_mmod_Minimization_Converged-OPLS-2005>
0

> <r_mmod_RMS_Derivative-OPLS-2005>
4.4153037071228

$$$$
61
                    3D
 Structure written by MMmdl.
177185  0  0  1  0            999 V2000
  -28.9115  -16.9487   20.9490 C   0  0  0  0  0  0
  -29.9809  -14.2712   19.8462 C   0  0  0  0  0  0
  -29.5184  -13.2474   18.6710 C   0  0  0  0  0  0
  -28.2664  -12.4555   19.0245 C   0  0  0  0  0  0
  -27.4714  -13.4139   19.9109 C   0  0  2  0  0  0
  -28.1984  -14.0961   21.1169 C   0  0  0  0  0  0
  -25.1456  -13.8295   20.5744 C   0  0  0  0  0  0
  -24.1129  -13.0280   20.9276 C   0  0  0  0  0  0
  -24.6072  -11.6863   20.8750 C   0  0  0  0  0  0
  -23.8971  -10.4199   21.0405 C   0  0  0  0  0  0
  -24.3601   -9.4163   21.9176 C   0  0  0  0  0  0
  -23.6293   -8.2204   22.0759 C   0  0  0  0  0  0
  -22.4265   -8.0232   21.3557 C   0  0  0  0  0  0
  -21.9866   -9.0164   20.4640 C   0  0  0  0  0  0
  -22.7175  -10.2037   20.3027 C   0  0  0  0  0  0
  -21.6840   -6.0739   22.5288 C   0  0  0  0  0  0
  -21.4000   -6.5645   23.8218 C   0  0  0  0  0  0
  -21.3657   -5.6805   24.9183 C   0  0  0  0  0  0
  -21.6043   -4.3062   24.7233 C   0  0  0  0  0  0
  -21.8831   -3.8156   23.4348 C   0  0  0  0  0  0
  -21.9194   -4.6979   22.3410 C   0  0  0  0  0  0
  -22.7230  -13.5006   21.1989 C   0  0  0  0  0  0
  -22.1672   -4.2167   21.0991 F   0  0  0  0  0  0
  -21.5625   -3.4529   25.7745 F   0  0  0  0  0  0
  -28.9234  -15.3224   20.6040 N   0  0  0  0  0  0
  -26.1885  -12.9733   20.3257 N   0  0  0  0  0  0
  -25.8980  -11.6727   20.5583 N   0  0  0  0  0  0
  -21.9996  -12.7989   22.0594 N   0  0  0  0  0  0
  -25.2822  -15.2108   20.4279 N   0  0  0  0  0  0
  -30.1992  -16.8802   20.7206 O   0  0  0  0  0  0
  -21.6630   -6.8845   21.4239 O   0  0  0  0  0  0
  -22.2948  -14.5340   20.6858 O   0  0  0  0  0  0
  -24.6970  -31.6868   23.2248 C   0  0  0  0  0  0
  -25.9172  -32.4459   23.8466 C   0  0  1  0  0  0
  -27.1222  -27.5490   19.7484 C   0  0  0  0  0  0
  -25.5514  -33.8338   24.1985 N   0  0  0  0  0  0
  -24.0052  -29.5404   21.8752 C   0  0  2  0  0  0
  -25.1088  -29.3297   19.8710 C   0  0  0  0  0  0
  -24.0924  -27.7184   22.2739 C   0  0  0  0  0  0
  -18.0958  -27.9092   22.7753 C   0  0  0  0  0  0
  -24.1453  -36.7298   23.2617 C   0  0  0  0  0  0
  -26.1820  -30.7041   21.5934 C   0  0  0  0  0  0
  -26.2525  -29.5514   20.6560 C   0  0  0  0  0  0
  -27.2496  -28.5608   20.7166 C   0  0  0  0  0  0
  -26.3663  -27.7804   18.6277 C   0  0  0  0  0  0
  -25.2069  -28.5185   18.7787 C   0  0  0  0  0  0
  -23.8178  -29.8597   20.3606 C   0  0  0  0  0  0
  -25.4050  -36.2929   24.0230 C   0  0  1  0  0  0
  -20.5794  -26.8560   23.2913 C   0  0  2  0  0  0
  -20.0162  -25.8117   22.4497 C   0  0  0  0  0  0
  -19.2823  -26.3495   21.2669 C   0  0  0  0  0  0
  -17.9380  -26.7592   21.8324 C   0  0  0  0  0  0
  -19.4083  -28.2032   23.2984 C   0  0  0  0  0  0
  -19.3496  -29.5490   23.8869 C   0  0  0  0  0  0
  -18.1585  -30.3656   24.0167 C   0  0  0  0  0  0
  -25.8932  -34.9241   23.4962 C   0  0  0  0  0  0
  -16.9034  -29.8858   23.6212 C   0  0  0  0  0  0
  -16.8945  -28.6387   23.0022 C   0  0  0  0  0  0
  -26.4705  -31.6822   25.1124 C   0  0  0  0  0  0
  -25.3905  -31.4561   26.1907 C   0  0  0  0  0  0
  -27.0596  -30.2902   24.7696 C   0  0  0  0  0  0
  -27.6301  -32.4831   25.7500 C   0  0  0  0  0  0
  -27.5462  -37.1744   24.8391 C   0  0  0  0  0  0
  -22.2237  -26.4012   22.7419 N   0  0  0  0  0  0
  -26.4173  -37.3674   23.9371 N   0  0  0  0  0  0
  -24.9439  -30.6375   22.3627 N   0  0  0  0  0  0
  -25.1032  -27.8577   22.9348 O   0  0  0  0  0  0
  -27.2947  -26.2280   19.8915 O   0  0  0  0  0  0
  -26.5663  -34.8715   22.4639 O   0  0  0  0  0  0
  -23.5662  -32.0097   23.6254 O   0  0  0  0  0  0
  -21.8925  -28.3881   21.9382 C   0  0  0  0  0  0
  -23.6102  -25.4479   21.2024 C   0  0  0  0  0  0
  -22.5908  -26.9296   20.6114 C   0  0  0  0  0  0
  -22.6540  -28.0871   24.0273 C   0  0  0  0  0  0
  -24.3201  -24.8953   22.7520 C   0  0  0  0  0  0
  -23.8399  -26.2506   24.2362 C   0  0  0  0  0  0
  -22.4169  -29.1065   25.1233 C   0  0  0  0  0  0
  -22.1700  -27.5679   28.2851 C   0  0  0  0  0  0
  -24.1241  -26.2200   29.1309 C   0  0  0  0  0  0
  -25.1066  -27.8184   26.9378 C   0  0  0  0  0  0
  -23.0195  -26.7035   19.1256 C   0  0  0  0  0  0
  -25.4300  -22.6974   22.5522 C   0  0  0  0  0  0
  -24.2788  -25.8578   25.6621 C   0  0  0  0  0  0
  -24.4733  -25.8256   18.7586 C   0  0  0  0  0  0
  -26.8608  -20.6545   21.6324 C   0  0  0  0  0  0
  -25.9677  -25.4688   19.6102 C   0  0  0  0  0  0
  -23.2208  -26.5000   27.9112 C   0  0  0  0  0  0
  -27.7999  -18.5039   21.3570 N   0  0  0  0  0  0
  -23.9620  -26.9137   26.6744 N   0  3  1  0  0  0
  -30.7236  -14.9086   19.3682 H   0  0  0  0  0  0
  -30.5715  -13.7334   20.5930 H   0  0  0  0  0  0
  -30.3378  -12.5803   18.4045 H   0  0  0  0  0  0
  -29.3048  -13.8480   17.7830 H   0  0  0  0  0  0
  -28.5336  -11.5614   19.5874 H   0  0  0  0  0  0
  -27.7199  -12.1486   18.1308 H   0  0  0  0  0  0
  -27.2440  -14.2198   19.2090 H   0  0  0  0  0  0
  -28.7902  -13.3919   21.7052 H   0  0  0  0  0  0
  -27.4781  -14.4602   21.8495 H   0  0  0  0  0  0
  -25.2731   -9.5707   22.4743 H   0  0  0  0  0  0
  -24.0043   -7.4606   22.7454 H   0  0  0  0  0  0
  -21.0817   -8.8659   19.8920 H   0  0  0  0  0  0
  -22.3617  -10.9596   19.6148 H   0  0  0  0  0  0
  -21.1974   -7.6138   23.9735 H   0  0  0  0  0  0
  -21.1465   -6.0511   25.9089 H   0  0  0  0  0  0
  -22.0606   -2.7604   23.2833 H   0  0  0  0  0  0
  -22.3721  -11.9698   22.5006 H   0  0  0  0  0  0
  -21.0581  -13.0926   22.2827 H   0  0  0  0  0  0
  -24.4889  -15.8351   20.5433 H   0  0  0  0  0  0
  -26.1132  -15.6726   20.0816 H   0  0  0  0  0  0
  -26.7439  -32.5225   23.1465 H   0  0  0  0  0  0
  -24.9455  -33.9618   24.9965 H   0  0  0  0  0  0
  -23.2107  -30.0404   22.4140 H   0  0  0  0  0  0
  -23.3691  -35.9655   23.3143 H   0  0  0  0  0  0
  -24.3564  -36.9067   22.2063 H   0  0  0  0  0  0
  -23.7300  -37.6476   23.6785 H   0  0  0  0  0  0
  -26.2057  -31.6215   21.0007 H   0  0  0  0  0  0
  -27.0857  -30.6689   22.1907 H   0  0  0  0  0  0
  -27.9354  -28.4924   21.5498 H   0  0  0  0  0  0
  -26.4846  -27.1695   17.7460 H   0  0  0  0  0  0
  -24.4759  -28.5672   17.9890 H   0  0  0  0  0  0
  -23.7365  -30.9298   20.1539 H   0  0  0  0  0  0
  -22.9702  -29.3937   19.8728 H   0  0  0  0  0  0
  -25.1317  -36.1612   25.0726 H   0  0  0  0  0  0
  -20.5382  -26.5026   24.3247 H   0  0  0  0  0  0
  -19.3232  -25.2348   23.0690 H   0  0  0  0  0  0
  -20.6622  -24.9956   22.1174 H   0  0  0  0  0  0
  -19.1354  -25.5488   20.5393 H   0  0  0  0  0  0
  -19.8050  -27.1536   20.7434 H   0  0  0  0  0  0
  -17.3020  -27.0522   20.9942 H   0  0  0  0  0  0
  -17.3951  -25.9421   22.3165 H   0  0  0  0  0  0
  -20.2487  -29.9872   24.2756 H   0  0  0  0  0  0
  -18.2142  -31.3573   24.4512 H   0  0  0  0  0  0
  -16.0018  -30.4743   23.7350 H   0  0  0  0  0  0
  -15.9518  -28.2579   22.6351 H   0  0  0  0  0  0
  -25.8078  -30.9766   27.0772 H   0  0  0  0  0  0
  -24.5727  -30.8402   25.8201 H   0  0  0  0  0  0
  -24.9779  -32.4036   26.5328 H   0  0  0  0  0  0
  -26.3324  -29.6110   24.3284 H   0  0  0  0  0  0
  -27.4058  -29.7992   25.6833 H   0  0  0  0  0  0
  -27.9325  -30.3481   24.1223 H   0  0  0  0  0  0
  -27.3037  -33.4445   26.1498 H   0  0  0  0  0  0
  -28.4224  -32.6871   25.0289 H   0  0  0  0  0  0
  -28.0889  -31.9355   26.5747 H   0  0  0  0  0  0
  -28.2463  -38.0055   24.7552 H   0  0  0  0  0  0
  -28.0979  -36.2664   24.6064 H   0  0  0  0  0  0
  -27.2257  -37.1155   25.8791 H   0  0  0  0  0  0
  -22.5081  -25.5100   23.0957 H   0  0  0  0  0  0
  -25.9974  -38.2696   24.1447 H   0  0  0  0  0  0
  -21.3366  -29.2693   21.6313 H   0  0  0  0  0  0
  -23.6916  -24.6082   20.5317 H   0  0  0  0  0  0
  -22.2769  -30.0992   24.6957 H   0  0  0  0  0  0
  -23.2501  -29.2089   25.8080 H   0  0  0  0  0  0
  -21.5263  -28.8562   25.6948 H   0  0  0  0  0  0
  -21.7667  -27.3950   29.2820 H   0  0  0  0  0  0
  -21.3196  -27.5306   27.6083 H   0  0  0  0  0  0
  -22.5783  -28.5789   28.2779 H   0  0  0  0  0  0
  -23.5508  -25.7515   29.9322 H   0  0  0  0  0  0
  -24.5498  -27.1395   29.5363 H   0  0  0  0  0  0
  -24.9277  -25.5281   28.8921 H   0  0  0  0  0  0
  -25.8994  -27.3188   27.4951 H   0  0  0  0  0  0
  -24.7826  -28.7010   27.4934 H   0  0  0  0  0  0
  -25.5344  -28.1613   26.0006 H   0  0  0  0  0  0
  -22.8405  -27.6062   18.5570 H   0  0  0  0  0  0
  -22.2082  -26.0958   18.7311 H   0  0  0  0  0  0
  -24.5054  -22.1360   22.6685 H   0  0  0  0  0  0
  -25.8480  -22.7271   23.5560 H   0  0  0  0  0  0
  -25.3474  -25.6366   25.6632 H   0  0  0  0  0  0
  -23.7858  -24.9129   25.8958 H   0  0  0  0  0  0
  -24.7050  -26.0615   17.7197 H   0  0  0  0  0  0
  -24.0904  -24.8235   18.5528 H   0  0  0  0  0  0
  -27.8077  -21.1881   21.5555 H   0  0  0  0  0  0
  -26.4438  -20.6949   20.6291 H   0  0  0  0  0  0
  -26.3573  -24.6215   19.0471 H   0  0  0  0  0  0
  -25.8289  -24.9934   20.5697 H   0  0  0  0  0  0
  -22.6648  -25.5814   27.7170 H   0  0  0  0  0  0
  -28.7025  -18.9377   21.5272 H   0  0  0  0  0  0
  -23.2845  -27.4793   26.1843 H   0  0  0  0  0  0
  1 25  1  0  0  0
  1 30  2  0  0  0
  1 88  1  0  0  0
  2  3  1  0  0  0
  2 25  1  0  0  0
  2 90  1  0  0  0
  2 91  1  0  0  0
  3  4  1  0  0  0
  3 92  1  0  0  0
  3 93  1  0  0  0
  4  5  1  0  0  0
  4 94  1  0  0  0
  4 95  1  0  0  0
  5  6  1  0  0  0
  5 26  1  0  0  0
  5 96  1  0  0  0
  6 25  1  0  0  0
  6 97  1  0  0  0
  6 98  1  0  0  0
  7  8  2  0  0  0
  7 26  1  0  0  0
  7 29  1  0  0  0
  8  9  1  0  0  0
  8 22  1  0  0  0
  9 10  1  0  0  0
  9 27  2  0  0  0
 10 11  2  0  0  0
 10 15  1  0  0  0
 11 12  1  0  0  0
 11 99  1  0  0  0
 12 13  2  0  0  0
 12100  1  0  0  0
 13 14  1  0  0  0
 13 31  1  0  0  0
 14 15  2  0  0  0
 14101  1  0  0  0
 15102  1  0  0  0
 16 17  2  0  0  0
 16 21  1  0  0  0
 16 31  1  0  0  0
 17 18  1  0  0  0
 17103  1  0  0  0
 18 19  2  0  0  0
 18104  1  0  0  0
 19 20  1  0  0  0
 19 24  1  0  0  0
 20 21  2  0  0  0
 20105  1  0  0  0
 21 23  1  0  0  0
 22 28  1  0  0  0
 22 32  2  0  0  0
 26 27  1  0  0  0
 28106  1  0  0  0
 28107  1  0  0  0
 29108  1  0  0  0
 29109  1  0  0  0
 33 34  1  0  0  0
 33 66  1  0  0  0
 33 70  2  0  0  0
 34 36  1  0  0  0
 34 59  1  0  0  0
 34110  1  0  0  0
 35 44  2  0  0  0
 35 45  1  0  0  0
 35 68  1  0  0  0
 36 56  1  0  0  0
 36111  1  0  0  0
 37 39  1  0  0  0
 37 47  1  0  0  0
 37 66  1  0  0  0
 37112  1  0  0  0
 38 43  2  0  0  0
 38 46  1  0  0  0
 38 47  1  0  0  0
 39 64  1  0  0  0
 39 67  2  0  0  0
 40 52  1  0  0  0
 40 53  2  0  0  0
 40 58  1  0  0  0
 41113  1  0  0  0
 41114  1  0  0  0
 41115  1  0  0  0
 41 48  1  0  0  0
 42 43  1  0  0  0
 42 66  1  0  0  0
 42116  1  0  0  0
 42117  1  0  0  0
 43 44  1  0  0  0
 44118  1  0  0  0
 45 46  2  0  0  0
 45119  1  0  0  0
 46120  1  0  0  0
 47121  1  0  0  0
 47122  1  0  0  0
 48 56  1  0  0  0
 48 65  1  0  0  0
 48123  1  0  0  0
 49 50  1  0  0  0
 49 53  1  0  0  0
 49 64  1  0  0  0
 49124  1  0  0  0
 50 51  1  0  0  0
 50125  1  0  0  0
 50126  1  0  0  0
 51 52  1  0  0  0
 51127  1  0  0  0
 51128  1  0  0  0
 52129  1  0  0  0
 52130  1  0  0  0
 53 54  1  0  0  0
 54 55  2  0  0  0
 54131  1  0  0  0
 55 57  1  0  0  0
 55132  1  0  0  0
 56 69  2  0  0  0
 57 58  2  0  0  0
 57133  1  0  0  0
 58134  1  0  0  0
 59 60  1  0  0  0
 59 61  1  0  0  0
 59 62  1  0  0  0
 60135  1  0  0  0
 60136  1  0  0  0
 60137  1  0  0  0
 61138  1  0  0  0
 61139  1  0  0  0
 61140  1  0  0  0
 62141  1  0  0  0
 62142  1  0  0  0
 62143  1  0  0  0
 63 65  1  0  0  0
 63144  1  0  0  0
 63145  1  0  0  0
 63146  1  0  0  0
 64147  1  0  0  0
 65148  1  0  0  0
 68 86  1  0  0  0
 71 73  2  0  0  0
 71 74  1  0  0  0
 71149  1  0  0  0
 72 73  1  0  0  0
 72 75  2  0  0  0
 72150  1  0  0  0
 73 81  1  0  0  0
 74 76  2  0  0  0
 74 77  1  0  0  0
 75 76  1  0  0  0
 75 82  1  0  0  0
 76 83  1  0  0  0
 77151  1  0  0  0
 77152  1  0  0  0
 77153  1  0  0  0
 78154  1  0  0  0
 78155  1  0  0  0
 78156  1  0  0  0
 78 87  1  0  0  0
 79 87  1  0  0  0
 79157  1  0  0  0
 79158  1  0  0  0
 79159  1  0  0  0
 80160  1  0  0  0
 80161  1  0  0  0
 80162  1  0  0  0
 80 89  1  0  0  0
 81 84  1  0  0  0
 81163  1  0  0  0
 81164  1  0  0  0
 82 85  1  0  0  0
 82165  1  0  0  0
 82166  1  0  0  0
 83 89  1  0  0  0
 83167  1  0  0  0
 83168  1  0  0  0
 84 86  1  0  0  0
 84169  1  0  0  0
 84170  1  0  0  0
 85 88  1  0  0  0
 85171  1  0  0  0
 85172  1  0  0  0
 86173  1  0  0  0
 86174  1  0  0  0
 87 89  1  0  0  0
 87175  1  0  0  0
 88176  1  0  0  0
 89177  1  0  0  0
M  CHG  1  89   1
M  ISO  4   1 100  68 101  86 101  88 100
M  END
> <chiral flag>
0

> <version>
0

> <s_m_source_file>
/data/baiqing/PycharmProjects/Reinvent-master-3.2/result/LINK_invent/BTK/process_docking_weight1_custom_sum_contain_oxygen_bond_distance_aromatic_linkinvent_7_9_3/rearranged_h_0092.sdf

> <i_m_source_file_index>
60

> <r_mmod_Potential_Energy-OPLS-2005>
24375.5234375

> <r_mmod_Stretch_Energy-OPLS-2005>
12848.716796875

> <r_mmod_Bend_Energy-OPLS-2005>
2015.64233398438

> <r_mmod_Torsional_Energy-OPLS-2005>
503.203857421875

> <r_mmod_Improper_Torsional_Energy-OPLS-2005>
81.911506652832

> <r_mmod_Van_der_Waal_Energy-OPLS-2005>
3381.630859375

> <r_mmod_Electrostatic_Energy-OPLS-2005>
-256.626953125

> <r_mmod_Solvation_Energy-OPLS-2005>
-425.670837402344

> <b_mmod_Minimization_Converged-OPLS-2005>
0

> <r_mmod_RMS_Derivative-OPLS-2005>
15.2783231735229

$$$$
62
                    3D
 Structure written by MMmdl.
172180  0  0  1  0            999 V2000
  -30.6578  -14.5276   20.5701 C   0  0  0  0  0  0
  -30.4266  -12.3508   19.4013 C   0  0  0  0  0  0
  -29.4852  -12.5196   18.1905 C   0  0  0  0  0  0
  -28.0144  -12.3655   18.6235 C   0  0  0  0  0  0
  -27.6633  -13.2039   19.8837 C   0  0  2  0  0  0
  -28.7138  -12.9515   20.9825 C   0  0  0  0  0  0
  -25.2674  -13.8097   20.5663 C   0  0  0  0  0  0
  -24.1844  -13.0367   20.9102 C   0  0  0  0  0  0
  -24.6390  -11.6851   20.8674 C   0  0  0  0  0  0
  -23.9041  -10.4241   21.0389 C   0  0  0  0  0  0
  -24.3594   -9.4155   21.9158 C   0  0  0  0  0  0
  -23.6248   -8.2195   22.0777 C   0  0  0  0  0  0
  -22.4203   -8.0249   21.3579 C   0  0  0  0  0  0
  -21.9854   -9.0213   20.4658 C   0  0  0  0  0  0
  -22.7225  -10.2077   20.3051 C   0  0  0  0  0  0
  -21.6844   -6.0709   22.5252 C   0  0  0  0  0  0
  -21.4011   -6.5629   23.8197 C   0  0  0  0  0  0
  -21.3658   -5.6790   24.9166 C   0  0  0  0  0  0
  -21.6051   -4.3055   24.7223 C   0  0  0  0  0  0
  -21.8827   -3.8134   23.4349 C   0  0  0  0  0  0
  -21.9197   -4.6943   22.3407 C   0  0  0  0  0  0
  -22.7933  -13.5261   21.1777 C   0  0  0  0  0  0
  -22.1666   -4.2151   21.0988 F   0  0  0  0  0  0
  -21.5628   -3.4537   25.7735 F   0  0  0  0  0  0
  -30.0293  -13.3188   20.4329 N   0  0  0  0  0  0
  -26.3073  -12.9252   20.3383 N   0  0  0  0  0  0
  -25.9303  -11.6440   20.5679 N   0  0  0  0  0  0
  -22.0519  -12.8252   22.0329 N   0  0  0  0  0  0
  -25.4386  -15.1816   20.4221 N   0  0  0  0  0  0
  -31.7526  -14.7740   20.0639 O   0  0  0  0  0  0
  -21.6621   -6.8819   21.4189 O   0  0  0  0  0  0
  -22.3642  -14.5575   20.6652 O   0  0  0  0  0  0
  -24.6065  -31.8724   23.2163 C   0  0  0  0  0  0
  -25.8977  -32.4865   23.8416 C   0  0  1  0  0  0
  -27.2555  -27.4953   20.0862 C   0  0  0  0  0  0
  -25.5882  -33.8666   24.2361 N   0  0  0  0  0  0
  -23.3950  -30.4882   21.5557 C   0  0  2  0  0  0
  -24.8532  -28.9653   20.1152 C   0  0  0  0  0  0
  -22.7367  -29.4629   22.5064 C   0  0  0  0  0  0
  -18.0230  -28.1355   22.8497 C   0  0  0  0  0  0
  -24.1484  -36.7331   23.2629 C   0  0  0  0  0  0
  -25.9144  -30.8559   21.3641 C   0  0  0  0  0  0
  -26.0026  -29.4917   20.7184 C   0  0  0  0  0  0
  -27.2071  -28.7595   20.7141 C   0  0  0  0  0  0
  -26.0984  -26.9778   19.4765 C   0  0  0  0  0  0
  -24.8932  -27.7051   19.4928 C   0  0  0  0  0  0
  -23.6072  -29.8206   20.1679 C   0  0  0  0  0  0
  -25.4118  -36.3136   24.0315 C   0  0  1  0  0  0
  -20.5823  -28.3658   23.1358 C   0  0  2  0  0  0
  -20.6775  -26.9437   22.5330 C   0  0  0  0  0  0
  -19.5742  -26.6457   21.5130 C   0  0  0  0  0  0
  -18.1915  -26.7931   22.1534 C   0  0  0  0  0  0
  -19.1472  -28.8781   23.2975 C   0  0  0  0  0  0
  -18.9408  -30.1372   23.9016 C   0  0  0  0  0  0
  -17.6420  -30.6578   24.0600 C   0  0  0  0  0  0
  -25.9040  -34.9509   23.5143 C   0  0  0  0  0  0
  -16.5318  -29.9095   23.6295 C   0  0  0  0  0  0
  -16.7225  -28.6492   23.0326 C   0  0  0  0  0  0
  -26.4480  -31.6612   25.0699 C   0  0  0  0  0  0
  -25.3759  -31.3688   26.1433 C   0  0  0  0  0  0
  -27.0287  -30.3047   24.6038 C   0  0  0  0  0  0
  -27.6072  -32.4324   25.7463 C   0  0  0  0  0  0
  -27.5584  -37.1825   24.8467 C   0  0  0  0  0  0
  -21.4097  -29.3104   22.3854 N   0  0  0  0  0  0
  -26.4313  -37.3806   23.9391 N   0  0  0  0  0  0
  -24.6550  -31.0866   22.1044 N   0  0  0  0  0  0
  -23.4157  -28.8102   23.3019 O   0  0  0  0  0  0
  -28.4162  -26.7672   20.0215 O   0  0  0  0  0  0
  -26.5602  -34.8930   22.4697 O   0  0  0  0  0  0
  -23.5283  -32.1492   23.7588 O   0  0  0  0  0  0
  -29.1265  -19.9885   21.2774 C   0  0  0  0  0  0
  -29.0473  -19.1474   20.1853 C   0  0  0  0  0  0
  -28.2758  -21.1905   19.6113 C   0  0  0  0  0  0
  -24.4903  -22.6816   19.2402 C   0  0  0  0  0  0
  -27.2310  -25.1115   22.8841 C   0  0  0  0  0  0
  -29.3112  -17.6511   20.0047 C   0  0  0  0  0  0
  -27.7217  -22.3040   18.7447 C   0  0  0  0  0  0
  -25.2157  -21.5244   18.5356 C   0  0  0  0  0  0
  -26.5337  -21.9145   17.8312 C   0  0  0  0  0  0
  -29.0195  -23.6995   21.5793 C   0  0  0  0  0  0
  -28.3136  -22.3419   21.8419 C   0  0  0  0  0  0
  -30.1081  -16.9657   21.1498 C   0  0  0  0  0  0
  -28.8606  -26.2533   21.2729 C   0  0  0  0  0  0
  -28.0893  -24.9441   21.6081 C   0  0  2  0  0  0
  -28.6086  -21.2160   20.9179 N   0  0  0  0  0  0
  -28.5441  -19.9479   19.1814 N   0  3  0  0  0  0
  -29.9243  -15.4899   21.1718 N   0  0  0  0  0  0
  -31.4628  -12.4869   19.0965 H   0  0  0  0  0  0
  -30.3450  -11.3342   19.7872 H   0  0  0  0  0  0
  -29.7205  -11.7864   17.4178 H   0  0  0  0  0  0
  -29.6361  -13.4989   17.7388 H   0  0  0  0  0  0
  -27.8498  -11.3014   18.8241 H   0  0  0  0  0  0
  -27.3507  -12.6364   17.8001 H   0  0  0  0  0  0
  -27.7048  -14.2610   19.6217 H   0  0  0  0  0  0
  -28.7077  -11.8876   21.2273 H   0  0  0  0  0  0
  -28.4780  -13.4815   21.9046 H   0  0  0  0  0  0
  -25.2726   -9.5673   22.4737 H   0  0  0  0  0  0
  -23.9996   -7.4631   22.7532 H   0  0  0  0  0  0
  -21.0788   -8.8750   19.8974 H   0  0  0  0  0  0
  -22.3687  -10.9616   19.6207 H   0  0  0  0  0  0
  -21.2001   -7.6139   23.9714 H   0  0  0  0  0  0
  -21.1463   -6.0510   25.9091 H   0  0  0  0  0  0
  -22.0605   -2.7579   23.2851 H   0  0  0  0  0  0
  -22.4178  -11.9981   22.4791 H   0  0  0  0  0  0
  -21.1147  -13.1343   22.2518 H   0  0  0  0  0  0
  -24.6637  -15.8237   20.5524 H   0  0  0  0  0  0
  -26.2909  -15.6283   20.1024 H   0  0  0  0  0  0
  -26.7045  -32.5616   23.1187 H   0  0  0  0  0  0
  -25.0063  -33.9867   25.0531 H   0  0  0  0  0  0
  -22.6815  -31.3022   21.4173 H   0  0  0  0  0  0
  -23.3753  -35.9658   23.3337 H   0  0  0  0  0  0
  -24.3571  -36.8917   22.2040 H   0  0  0  0  0  0
  -23.7253  -37.6546   23.6634 H   0  0  0  0  0  0
  -26.0102  -31.6253   20.5950 H   0  0  0  0  0  0
  -26.8073  -30.9224   21.9743 H   0  0  0  0  0  0
  -28.0981  -29.1720   21.1721 H   0  0  0  0  0  0
  -26.1370  -26.0164   18.9843 H   0  0  0  0  0  0
  -24.0149  -27.2982   19.0115 H   0  0  0  0  0  0
  -23.7079  -30.5950   19.4055 H   0  0  0  0  0  0
  -22.7374  -29.2305   19.8742 H   0  0  0  0  0  0
  -25.1305  -36.2020   25.0811 H   0  0  0  0  0  0
  -20.9947  -28.3094   24.1469 H   0  0  0  0  0  0
  -20.5766  -26.2216   23.3474 H   0  0  0  0  0  0
  -21.6628  -26.7545   22.1014 H   0  0  0  0  0  0
  -19.6966  -25.6398   21.1129 H   0  0  0  0  0  0
  -19.6664  -27.3306   20.6685 H   0  0  0  0  0  0
  -17.4212  -26.6702   21.3902 H   0  0  0  0  0  0
  -18.0333  -26.0023   22.8875 H   0  0  0  0  0  0
  -19.7907  -30.7112   24.2470 H   0  0  0  0  0  0
  -17.4970  -31.6271   24.5214 H   0  0  0  0  0  0
  -15.5313  -30.3004   23.7592 H   0  0  0  0  0  0
  -15.8606  -28.0856   22.7058 H   0  0  0  0  0  0
  -24.5915  -30.7091   25.7711 H   0  0  0  0  0  0
  -24.8964  -32.2840   26.4901 H   0  0  0  0  0  0
  -25.8066  -30.8784   27.0169 H   0  0  0  0  0  0
  -26.2795  -29.6807   24.1141 H   0  0  0  0  0  0
  -27.4133  -29.7265   25.4456 H   0  0  0  0  0  0
  -27.8607  -30.4353   23.9113 H   0  0  0  0  0  0
  -27.2691  -33.3601   26.2092 H   0  0  0  0  0  0
  -28.3836  -32.6933   25.0257 H   0  0  0  0  0  0
  -28.0791  -31.8419   26.5329 H   0  0  0  0  0  0
  -28.2622  -38.0094   24.7486 H   0  0  0  0  0  0
  -28.1052  -36.2636   24.6339 H   0  0  0  0  0  0
  -27.2288  -37.1524   25.8860 H   0  0  0  0  0  0
  -20.9325  -29.8940   21.7105 H   0  0  0  0  0  0
  -26.0215  -38.2882   24.1391 H   0  0  0  0  0  0
  -29.4457  -19.7830   22.2891 H   0  0  0  0  0  0
  -25.1416  -23.1860   19.9512 H   0  0  0  0  0  0
  -23.6233  -22.3070   19.7878 H   0  0  0  0  0  0
  -24.1029  -23.4156   18.5290 H   0  0  0  0  0  0
  -26.6275  -24.2296   23.0996 H   0  0  0  0  0  0
  -26.5223  -25.9345   22.7701 H   0  0  0  0  0  0
  -27.8359  -25.3362   23.7609 H   0  0  0  0  0  0
  -29.8657  -17.4823   19.0766 H   0  0  0  0  0  0
  -28.3442  -17.1493   19.8978 H   0  0  0  0  0  0
  -28.5492  -22.6566   18.1158 H   0  0  0  0  0  0
  -27.4423  -23.1369   19.3845 H   0  0  0  0  0  0
  -24.5296  -21.1033   17.7957 H   0  0  0  0  0  0
  -25.4064  -20.7180   19.2452 H   0  0  0  0  0  0
  -26.3433  -22.7378   17.1403 H   0  0  0  0  0  0
  -26.8358  -21.0758   17.2054 H   0  0  0  0  0  0
  -29.5139  -23.6873   20.6096 H   0  0  0  0  0  0
  -29.8118  -23.8275   22.3161 H   0  0  0  0  0  0
  -27.2313  -22.4652   21.8156 H   0  0  0  0  0  0
  -28.5493  -22.0222   22.8611 H   0  0  0  0  0  0
  -31.1492  -17.2969   21.1075 H   0  0  0  0  0  0
  -29.7265  -17.3210   22.1050 H   0  0  0  0  0  0
  -29.9325  -26.0580   21.1969 H   0  0  0  0  0  0
  -28.7678  -27.0034   22.0630 H   0  0  0  0  0  0
  -27.3728  -24.7878   20.8022 H   0  0  0  0  0  0
  -28.3757  -19.6574   18.2270 H   0  0  0  0  0  0
  -29.0794  -15.1655   21.6216 H   0  0  0  0  0  0
  1 25  1  0  0  0
  1 30  2  0  0  0
  1 87  1  0  0  0
  2  3  1  0  0  0
  2 25  1  0  0  0
  2 88  1  0  0  0
  2 89  1  0  0  0
  3  4  1  0  0  0
  3 90  1  0  0  0
  3 91  1  0  0  0
  4  5  1  0  0  0
  4 92  1  0  0  0
  4 93  1  0  0  0
  5  6  1  0  0  0
  5 26  1  0  0  0
  5 94  1  0  0  0
  6 25  1  0  0  0
  6 95  1  0  0  0
  6 96  1  0  0  0
  7  8  2  0  0  0
  7 26  1  0  0  0
  7 29  1  0  0  0
  8  9  1  0  0  0
  8 22  1  0  0  0
  9 10  1  0  0  0
  9 27  2  0  0  0
 10 11  2  0  0  0
 10 15  1  0  0  0
 11 12  1  0  0  0
 11 97  1  0  0  0
 12 13  2  0  0  0
 12 98  1  0  0  0
 13 14  1  0  0  0
 13 31  1  0  0  0
 14 15  2  0  0  0
 14 99  1  0  0  0
 15100  1  0  0  0
 16 17  2  0  0  0
 16 21  1  0  0  0
 16 31  1  0  0  0
 17 18  1  0  0  0
 17101  1  0  0  0
 18 19  2  0  0  0
 18102  1  0  0  0
 19 20  1  0  0  0
 19 24  1  0  0  0
 20 21  2  0  0  0
 20103  1  0  0  0
 21 23  1  0  0  0
 22 28  1  0  0  0
 22 32  2  0  0  0
 26 27  1  0  0  0
 28104  1  0  0  0
 28105  1  0  0  0
 29106  1  0  0  0
 29107  1  0  0  0
 33 34  1  0  0  0
 33 66  1  0  0  0
 33 70  2  0  0  0
 34 36  1  0  0  0
 34 59  1  0  0  0
 34108  1  0  0  0
 35 44  2  0  0  0
 35 45  1  0  0  0
 35 68  1  0  0  0
 36 56  1  0  0  0
 36109  1  0  0  0
 37 39  1  0  0  0
 37 47  1  0  0  0
 37 66  1  0  0  0
 37110  1  0  0  0
 38 43  2  0  0  0
 38 46  1  0  0  0
 38 47  1  0  0  0
 39 64  1  0  0  0
 39 67  2  0  0  0
 40 52  1  0  0  0
 40 53  2  0  0  0
 40 58  1  0  0  0
 41111  1  0  0  0
 41112  1  0  0  0
 41113  1  0  0  0
 41 48  1  0  0  0
 42 43  1  0  0  0
 42 66  1  0  0  0
 42114  1  0  0  0
 42115  1  0  0  0
 43 44  1  0  0  0
 44116  1  0  0  0
 45 46  2  0  0  0
 45117  1  0  0  0
 46118  1  0  0  0
 47119  1  0  0  0
 47120  1  0  0  0
 48 56  1  0  0  0
 48 65  1  0  0  0
 48121  1  0  0  0
 49 50  1  0  0  0
 49 53  1  0  0  0
 49 64  1  0  0  0
 49122  1  0  0  0
 50 51  1  0  0  0
 50123  1  0  0  0
 50124  1  0  0  0
 51 52  1  0  0  0
 51125  1  0  0  0
 51126  1  0  0  0
 52127  1  0  0  0
 52128  1  0  0  0
 53 54  1  0  0  0
 54 55  2  0  0  0
 54129  1  0  0  0
 55 57  1  0  0  0
 55130  1  0  0  0
 56 69  2  0  0  0
 57 58  2  0  0  0
 57131  1  0  0  0
 58132  1  0  0  0
 59 60  1  0  0  0
 59 61  1  0  0  0
 59 62  1  0  0  0
 60133  1  0  0  0
 60134  1  0  0  0
 60135  1  0  0  0
 61136  1  0  0  0
 61137  1  0  0  0
 61138  1  0  0  0
 62139  1  0  0  0
 62140  1  0  0  0
 62141  1  0  0  0
 63 65  1  0  0  0
 63142  1  0  0  0
 63143  1  0  0  0
 63144  1  0  0  0
 64145  1  0  0  0
 65146  1  0  0  0
 68 83  1  0  0  0
 71 72  2  0  0  0
 71 85  1  0  0  0
 71147  1  0  0  0
 72 76  1  0  0  0
 72 86  1  0  0  0
 73 77  1  0  0  0
 73 85  1  0  0  0
 73 86  2  0  0  0
 74 78  1  0  0  0
 74148  1  0  0  0
 74149  1  0  0  0
 74150  1  0  0  0
 75151  1  0  0  0
 75152  1  0  0  0
 75153  1  0  0  0
 75 84  1  0  0  0
 76 82  1  0  0  0
 76154  1  0  0  0
 76155  1  0  0  0
 77 79  1  0  0  0
 77156  1  0  0  0
 77157  1  0  0  0
 78 79  1  0  0  0
 78158  1  0  0  0
 78159  1  0  0  0
 79160  1  0  0  0
 79161  1  0  0  0
 80 81  1  0  0  0
 80 84  1  0  0  0
 80162  1  0  0  0
 80163  1  0  0  0
 81 85  1  0  0  0
 81164  1  0  0  0
 81165  1  0  0  0
 82 87  1  0  0  0
 82166  1  0  0  0
 82167  1  0  0  0
 83 84  1  0  0  0
 83168  1  0  0  0
 83169  1  0  0  0
 84170  1  0  0  0
 86171  1  0  0  0
 87172  1  0  0  0
M  CHG  1  86   1
M  ISO  4   1 100  68 101  83 101  87 100
M  END
> <chiral flag>
0

> <version>
0

> <s_m_source_file>
/data/baiqing/PycharmProjects/Reinvent-master-3.2/result/LINK_invent/BTK/process_docking_weight1_custom_sum_contain_oxygen_bond_distance_aromatic_linkinvent_7_9_3/rearranged_h_0092.sdf

> <i_m_source_file_index>
61

> <r_mmod_Potential_Energy-OPLS-2005>
-53.8226280212402

> <r_mmod_Stretch_Energy-OPLS-2005>
41.3160247802734

> <r_mmod_Bend_Energy-OPLS-2005>
110.54167175293

> <r_mmod_Torsional_Energy-OPLS-2005>
269.042663574219

> <r_mmod_Improper_Torsional_Energy-OPLS-2005>
4.24065113067627

> <r_mmod_Van_der_Waal_Energy-OPLS-2005>
112.306915283203

> <r_mmod_Electrostatic_Energy-OPLS-2005>
-193.010467529297

> <r_mmod_Solvation_Energy-OPLS-2005>
-412.545959472656

> <b_mmod_Minimization_Converged-OPLS-2005>
0

> <r_mmod_RMS_Derivative-OPLS-2005>
10.3060932159424

$$$$
63
                    3D
 Structure written by MMmdl.
179187  0  0  1  0            999 V2000
  -31.3638  -13.2913   21.0014 C   0  0  0  0  0  0
  -31.0256  -13.7468   18.8227 C   0  0  0  0  0  0
  -30.0234  -14.4627   17.4623 C   0  0  0  0  0  0
  -27.0244  -14.3324   18.5531 C   0  0  0  0  0  0
  -27.2643  -13.7297   20.2860 C   0  0  2  0  0  0
  -28.8193  -13.3326   21.0854 C   0  0  0  0  0  0
  -24.9912  -13.8793   20.7377 C   0  0  0  0  0  0
  -24.0051  -13.0120   20.9785 C   0  0  0  0  0  0
  -24.5706  -11.6964   20.9073 C   0  0  0  0  0  0
  -23.8959  -10.4069   21.0297 C   0  0  0  0  0  0
  -24.3580   -9.4059   21.9104 C   0  0  0  0  0  0
  -23.6272   -8.2098   22.0710 C   0  0  0  0  0  0
  -22.4255   -8.0136   21.3490 C   0  0  0  0  0  0
  -21.9863   -9.0037   20.4546 C   0  0  0  0  0  0
  -22.7186  -10.1883   20.2902 C   0  0  0  0  0  0
  -21.6813   -6.0652   22.5286 C   0  0  0  0  0  0
  -21.4007   -6.5588   23.8214 C   0  0  0  0  0  0
  -21.3652   -5.6765   24.9176 C   0  0  0  0  0  0
  -21.6053   -4.3029   24.7248 C   0  0  0  0  0  0
  -21.8821   -3.8093   23.4376 C   0  0  0  0  0  0
  -21.9187   -4.6890   22.3414 C   0  0  0  0  0  0
  -22.6065  -13.4488   21.2001 C   0  0  0  0  0  0
  -22.1657   -4.2088   21.0993 F   0  0  0  0  0  0
  -21.5634   -3.4519   25.7757 F   0  0  0  0  0  0
  -30.3501  -13.5318   20.3791 N   0  0  0  0  0  0
  -26.0948  -13.0970   20.6327 N   0  0  0  0  0  0
  -25.8844  -11.7603   20.6812 N   0  0  0  0  0  0
  -21.8960  -12.7467   22.0670 N   0  0  0  0  0  0
  -25.0260  -15.2738   20.6114 N   0  0  0  0  0  0
  -32.2765  -14.1260   21.0524 O   0  0  0  0  0  0
  -21.6600   -6.8764   21.4230 O   0  0  0  0  0  0
  -22.1782  -14.4785   20.6800 O   0  0  0  0  0  0
  -24.6919  -31.7945   23.1481 C   0  0  0  0  0  0
  -25.9482  -32.4408   23.8008 C   0  0  1  0  0  0
  -27.1016  -26.6591   20.0240 C   0  0  0  0  0  0
  -25.6057  -33.8247   24.1903 N   0  0  0  0  0  0
  -23.5055  -30.4122   21.5133 C   0  0  2  0  0  0
  -24.9170  -28.7561   20.0941 C   0  0  0  0  0  0
  -22.7745  -29.4336   22.4725 C   0  0  0  0  0  0
  -18.0336  -28.1394   22.8462 C   0  0  0  0  0  0
  -24.1524  -36.7129   23.2653 C   0  0  0  0  0  0
  -26.0936  -30.4914   21.4171 C   0  0  0  0  0  0
  -26.1273  -29.0650   20.7270 C   0  0  0  0  0  0
  -27.2164  -28.0352   20.6694 C   0  0  0  0  0  0
  -25.8590  -26.5737   19.3787 C   0  0  0  0  0  0
  -24.8197  -27.5355   19.4143 C   0  0  0  0  0  0
  -23.7386  -29.7322   20.1408 C   0  0  0  0  0  0
  -25.4175  -36.2854   24.0266 C   0  0  1  0  0  0
  -20.5968  -28.3768   23.1145 C   0  0  2  0  0  0
  -20.6807  -26.9432   22.5402 C   0  0  0  0  0  0
  -19.5784  -26.6363   21.5217 C   0  0  0  0  0  0
  -18.1965  -26.7924   22.1621 C   0  0  0  0  0  0
  -19.1595  -28.8907   23.2787 C   0  0  0  0  0  0
  -18.9507  -30.1491   23.8839 C   0  0  0  0  0  0
  -17.6503  -30.6593   24.0549 C   0  0  0  0  0  0
  -25.9159  -34.9252   23.4913 C   0  0  0  0  0  0
  -16.5396  -29.9079   23.6339 C   0  0  0  0  0  0
  -16.7321  -28.6487   23.0379 C   0  0  0  0  0  0
  -26.4629  -31.6462   25.0652 C   0  0  0  0  0  0
  -25.3692  -31.3816   26.1268 C   0  0  0  0  0  0
  -27.0545  -30.2781   24.6604 C   0  0  0  0  0  0
  -27.6066  -32.4327   25.7477 C   0  0  0  0  0  0
  -27.5565  -37.1739   24.8469 C   0  0  0  0  0  0
  -21.4394  -29.3043   22.3476 N   0  0  0  0  0  0
  -26.4294  -37.3618   23.9377 N   0  0  0  0  0  0
  -24.7910  -30.9324   22.0773 N   0  0  0  0  0  0
  -23.4195  -28.7898   23.3038 O   0  0  0  0  0  0
  -27.9622  -25.3684   19.9324 O   0  0  0  0  0  0
  -26.5793  -34.8847   22.4527 O   0  0  0  0  0  0
  -23.5943  -32.1094   23.6411 O   0  0  0  0  0  0
  -28.9542  -15.1289   19.2588 C   0  0  0  0  0  0
  -28.7745  -13.0240   18.5390 C   0  0  0  0  0  0
  -28.1981  -13.0535   16.9626 C   0  0  0  0  0  0
  -28.5074  -16.4222   18.3367 C   0  0  0  0  0  0
  -27.9021  -14.5414   16.3087 C   0  0  0  0  0  0
  -29.1050  -13.5848   13.1414 C   0  0  0  0  0  0
  -26.8051  -10.9058   16.7431 C   0  0  0  0  0  0
  -29.2212  -10.9750   15.8241 C   0  0  0  0  0  0
  -32.3609  -11.1708   21.7407 C   0  0  0  0  0  0
  -29.1538  -11.5394   19.1639 C   0  0  0  0  0  0
  -28.7267  -18.2593   18.7328 C   0  0  0  0  0  0
  -27.5180  -14.6989   14.8405 C   0  0  0  0  0  0
  -28.7285  -14.8661   13.8913 C   0  0  0  0  0  0
  -27.8769  -20.0148   18.9146 C   0  0  0  0  0  0
  -28.3201  -21.8822   19.3415 C   0  0  0  0  0  0
  -30.5135  -11.0593   19.9957 C   0  0  0  0  0  0
  -27.5697  -23.6829   19.5288 C   0  0  0  0  0  0
  -27.9402  -11.7729   16.1527 C   0  0  0  0  0  0
  -28.0681  -15.9577   16.9498 N   0  0  0  0  0  0
  -31.3699  -11.9205   20.9715 N   0  0  0  0  0  0
  -31.9176  -14.3768   18.8068 H   0  0  0  0  0  0
  -31.4163  -12.8073   18.4266 H   0  0  0  0  0  0
  -30.3168  -13.9566   16.5315 H   0  0  0  0  0  0
  -30.4656  -15.4467   17.2847 H   0  0  0  0  0  0
  -26.2882  -13.6531   18.1106 H   0  0  0  0  0  0
  -26.4269  -15.2450   18.5635 H   0  0  0  0  0  0
  -27.2351  -14.6472   20.8738 H   0  0  0  0  0  0
  -28.7276  -12.3566   21.5642 H   0  0  0  0  0  0
  -28.8691  -13.9703   21.9695 H   0  0  0  0  0  0
  -25.2615   -9.5649   22.4820 H   0  0  0  0  0  0
  -23.9921   -7.4525   22.7505 H   0  0  0  0  0  0
  -21.0777   -8.8553   19.8884 H   0  0  0  0  0  0
  -22.3581  -10.9444   19.6088 H   0  0  0  0  0  0
  -21.2002   -7.6104   23.9696 H   0  0  0  0  0  0
  -21.1478   -6.0495   25.9081 H   0  0  0  0  0  0
  -22.0610   -2.7562   23.2900 H   0  0  0  0  0  0
  -22.2815  -11.9272   22.5140 H   0  0  0  0  0  0
  -20.9531  -13.0323   22.2926 H   0  0  0  0  0  0
  -24.1772  -15.8274   20.6157 H   0  0  0  0  0  0
  -25.8561  -15.7916   20.3575 H   0  0  0  0  0  0
  -26.7541  -32.4802   23.0681 H   0  0  0  0  0  0
  -25.0108  -33.9276   24.9996 H   0  0  0  0  0  0
  -22.8346  -31.2547   21.3400 H   0  0  0  0  0  0
  -23.3792  -35.9452   23.3270 H   0  0  0  0  0  0
  -24.3594  -36.8841   22.2077 H   0  0  0  0  0  0
  -23.7297  -37.6299   23.6769 H   0  0  0  0  0  0
  -26.3250  -31.2241   20.6431 H   0  0  0  0  0  0
  -26.9377  -30.5214   22.0936 H   0  0  0  0  0  0
  -28.1353  -28.2575   21.1945 H   0  0  0  0  0  0
  -25.6396  -25.6615   18.8426 H   0  0  0  0  0  0
  -23.8967  -27.2956   18.9051 H   0  0  0  0  0  0
  -23.9309  -30.5021   19.3938 H   0  0  0  0  0  0
  -22.8302  -29.2265   19.8098 H   0  0  0  0  0  0
  -25.1405  -36.1603   25.0761 H   0  0  0  0  0  0
  -21.0057  -28.3388   24.1269 H   0  0  0  0  0  0
  -20.5674  -26.2399   23.3659 H   0  0  0  0  0  0
  -21.6665  -26.7383   22.1219 H   0  0  0  0  0  0
  -19.6949  -25.6260   21.1279 H   0  0  0  0  0  0
  -19.6712  -27.3139   20.6712 H   0  0  0  0  0  0
  -17.4237  -26.6673   21.4022 H   0  0  0  0  0  0
  -18.0358  -26.0073   22.9021 H   0  0  0  0  0  0
  -19.7994  -30.7308   24.2183 H   0  0  0  0  0  0
  -17.5067  -31.6266   24.5148 H   0  0  0  0  0  0
  -15.5393  -30.2973   23.7687 H   0  0  0  0  0  0
  -15.8718  -28.0782   22.7148 H   0  0  0  0  0  0
  -24.5868  -30.7177   25.7574 H   0  0  0  0  0  0
  -24.8906  -32.3060   26.4514 H   0  0  0  0  0  0
  -25.7868  -30.9081   27.0165 H   0  0  0  0  0  0
  -26.3246  -29.6377   24.1644 H   0  0  0  0  0  0
  -27.3981  -29.7247   25.5356 H   0  0  0  0  0  0
  -27.9242  -30.3867   24.0117 H   0  0  0  0  0  0
  -27.2604  -33.3720   26.1805 H   0  0  0  0  0  0
  -28.4013  -32.6737   25.0400 H   0  0  0  0  0  0
  -28.0577  -31.8612   26.5605 H   0  0  0  0  0  0
  -28.2569  -38.0040   24.7457 H   0  0  0  0  0  0
  -28.1075  -36.2556   24.6385 H   0  0  0  0  0  0
  -27.2256  -37.1467   25.8866 H   0  0  0  0  0  0
  -20.9671  -29.8746   21.6596 H   0  0  0  0  0  0
  -26.0109  -38.2670   24.1346 H   0  0  0  0  0  0
  -29.3082  -15.5162   20.2060 H   0  0  0  0  0  0
  -29.8480  -13.7896   12.3720 H   0  0  0  0  0  0
  -28.2378  -13.1441   12.6504 H   0  0  0  0  0  0
  -29.5264  -12.8449   13.8160 H   0  0  0  0  0  0
  -25.8876  -11.4824   16.8634 H   0  0  0  0  0  0
  -27.0353  -10.4781   17.7187 H   0  0  0  0  0  0
  -26.5630  -10.0697   16.0834 H   0  0  0  0  0  0
  -30.0900  -11.6290   15.7643 H   0  0  0  0  0  0
  -29.1264  -10.4701   14.8639 H   0  0  0  0  0  0
  -29.4552  -10.1754   16.5235 H   0  0  0  0  0  0
  -31.9258  -10.9248   22.7103 H   0  0  0  0  0  0
  -33.2655  -11.7519   21.9221 H   0  0  0  0  0  0
  -32.6555  -10.2356   21.2593 H   0  0  0  0  0  0
  -29.1153  -10.8168   18.3760 H   0  0  0  0  0  0
  -28.2859  -11.2238   19.7410 H   0  0  0  0  0  0
  -29.5365  -18.4963   18.0416 H   0  0  0  0  0  0
  -29.2366  -18.1761   19.6930 H   0  0  0  0  0  0
  -26.9406  -15.6198   14.7639 H   0  0  0  0  0  0
  -26.8284  -13.9289   14.5058 H   0  0  0  0  0  0
  -28.4713  -15.6109   13.1345 H   0  0  0  0  0  0
  -29.5944  -15.2703   14.4222 H   0  0  0  0  0  0
  -27.0607  -19.7989   19.6040 H   0  0  0  0  0  0
  -27.3694  -20.1174   17.9542 H   0  0  0  0  0  0
  -29.1368  -22.0658   18.6421 H   0  0  0  0  0  0
  -28.8216  -21.7638   20.3022 H   0  0  0  0  0  0
  -31.2132  -10.7302   19.2280 H   0  0  0  0  0  0
  -30.2647  -10.1360   20.5185 H   0  0  0  0  0  0
  -26.7507  -23.5131   20.2283 H   0  0  0  0  0  0
  -27.0582  -23.8163   18.5770 H   0  0  0  0  0  0
  -27.5683  -12.0847   15.1845 H   0  0  0  0  0  0
  1 25  1  0  0  0
  1 30  2  0  0  0
  1 90  1  0  0  0
  2  3  1  0  0  0
  2 25  1  0  0  0
  2 91  1  0  0  0
  2 92  1  0  0  0
  3  4  1  0  0  0
  3 93  1  0  0  0
  3 94  1  0  0  0
  4  5  1  0  0  0
  4 95  1  0  0  0
  4 96  1  0  0  0
  5  6  1  0  0  0
  5 26  1  0  0  0
  5 97  1  0  0  0
  6 25  1  0  0  0
  6 98  1  0  0  0
  6 99  1  0  0  0
  7  8  2  0  0  0
  7 26  1  0  0  0
  7 29  1  0  0  0
  8  9  1  0  0  0
  8 22  1  0  0  0
  9 10  1  0  0  0
  9 27  2  0  0  0
 10 11  2  0  0  0
 10 15  1  0  0  0
 11 12  1  0  0  0
 11100  1  0  0  0
 12 13  2  0  0  0
 12101  1  0  0  0
 13 14  1  0  0  0
 13 31  1  0  0  0
 14 15  2  0  0  0
 14102  1  0  0  0
 15103  1  0  0  0
 16 17  2  0  0  0
 16 21  1  0  0  0
 16 31  1  0  0  0
 17 18  1  0  0  0
 17104  1  0  0  0
 18 19  2  0  0  0
 18105  1  0  0  0
 19 20  1  0  0  0
 19 24  1  0  0  0
 20 21  2  0  0  0
 20106  1  0  0  0
 21 23  1  0  0  0
 22 28  1  0  0  0
 22 32  2  0  0  0
 26 27  1  0  0  0
 28107  1  0  0  0
 28108  1  0  0  0
 29109  1  0  0  0
 29110  1  0  0  0
 33 34  1  0  0  0
 33 66  1  0  0  0
 33 70  2  0  0  0
 34 36  1  0  0  0
 34 59  1  0  0  0
 34111  1  0  0  0
 35 44  2  0  0  0
 35 45  1  0  0  0
 35 68  1  0  0  0
 36 56  1  0  0  0
 36112  1  0  0  0
 37 39  1  0  0  0
 37 47  1  0  0  0
 37 66  1  0  0  0
 37113  1  0  0  0
 38 43  2  0  0  0
 38 46  1  0  0  0
 38 47  1  0  0  0
 39 64  1  0  0  0
 39 67  2  0  0  0
 40 52  1  0  0  0
 40 53  2  0  0  0
 40 58  1  0  0  0
 41114  1  0  0  0
 41115  1  0  0  0
 41116  1  0  0  0
 41 48  1  0  0  0
 42 43  1  0  0  0
 42 66  1  0  0  0
 42117  1  0  0  0
 42118  1  0  0  0
 43 44  1  0  0  0
 44119  1  0  0  0
 45 46  2  0  0  0
 45120  1  0  0  0
 46121  1  0  0  0
 47122  1  0  0  0
 47123  1  0  0  0
 48 56  1  0  0  0
 48 65  1  0  0  0
 48124  1  0  0  0
 49 50  1  0  0  0
 49 53  1  0  0  0
 49 64  1  0  0  0
 49125  1  0  0  0
 50 51  1  0  0  0
 50126  1  0  0  0
 50127  1  0  0  0
 51 52  1  0  0  0
 51128  1  0  0  0
 51129  1  0  0  0
 52130  1  0  0  0
 52131  1  0  0  0
 53 54  1  0  0  0
 54 55  2  0  0  0
 54132  1  0  0  0
 55 57  1  0  0  0
 55133  1  0  0  0
 56 69  2  0  0  0
 57 58  2  0  0  0
 57134  1  0  0  0
 58135  1  0  0  0
 59 60  1  0  0  0
 59 61  1  0  0  0
 59 62  1  0  0  0
 60136  1  0  0  0
 60137  1  0  0  0
 60138  1  0  0  0
 61139  1  0  0  0
 61140  1  0  0  0
 61141  1  0  0  0
 62142  1  0  0  0
 62143  1  0  0  0
 62144  1  0  0  0
 63 65  1  0  0  0
 63145  1  0  0  0
 63146  1  0  0  0
 63147  1  0  0  0
 64148  1  0  0  0
 65149  1  0  0  0
 68 87  1  0  0  0
 71 72  2  0  0  0
 71 74  1  0  0  0
 71150  1  0  0  0
 72 73  1  0  0  0
 72 80  1  0  0  0
 73 75  2  0  0  0
 73 88  1  0  0  0
 74 81  1  0  0  0
 74 89  2  0  0  0
 75 82  1  0  0  0
 75 89  1  0  0  0
 76 83  1  0  0  0
 76151  1  0  0  0
 76152  1  0  0  0
 76153  1  0  0  0
 77154  1  0  0  0
 77155  1  0  0  0
 77156  1  0  0  0
 77 88  1  0  0  0
 78 88  1  0  0  0
 78157  1  0  0  0
 78158  1  0  0  0
 78159  1  0  0  0
 79 90  1  0  0  0
 79160  1  0  0  0
 79161  1  0  0  0
 79162  1  0  0  0
 80 86  1  0  0  0
 80163  1  0  0  0
 80164  1  0  0  0
 81 84  1  0  0  0
 81165  1  0  0  0
 81166  1  0  0  0
 82 83  1  0  0  0
 82167  1  0  0  0
 82168  1  0  0  0
 83169  1  0  0  0
 83170  1  0  0  0
 84 85  1  0  0  0
 84171  1  0  0  0
 84172  1  0  0  0
 85 87  1  0  0  0
 85173  1  0  0  0
 85174  1  0  0  0
 86 90  1  0  0  0
 86175  1  0  0  0
 86176  1  0  0  0
 87177  1  0  0  0
 87178  1  0  0  0
 88179  1  0  0  0
M  ISO  4   1 100  68 101  87 101  90 100
M  END
> <chiral flag>
0

> <version>
0

> <s_m_source_file>
/data/baiqing/PycharmProjects/Reinvent-master-3.2/result/LINK_invent/BTK/process_docking_weight1_custom_sum_contain_oxygen_bond_distance_aromatic_linkinvent_7_9_3/rearranged_h_0092.sdf

> <i_m_source_file_index>
62

> <r_mmod_Potential_Energy-OPLS-2005>
12514.525390625

> <r_mmod_Stretch_Energy-OPLS-2005>
6796.45947265625

> <r_mmod_Bend_Energy-OPLS-2005>
975.479370117188

> <r_mmod_Torsional_Energy-OPLS-2005>
354.223388671875

> <r_mmod_Improper_Torsional_Energy-OPLS-2005>
26.421365737915

> <r_mmod_Van_der_Waal_Energy-OPLS-2005>
2837.21435546875

> <r_mmod_Electrostatic_Energy-OPLS-2005>
-395.448822021484

> <r_mmod_Solvation_Energy-OPLS-2005>
-196.353942871094

> <b_mmod_Minimization_Converged-OPLS-2005>
0

> <r_mmod_RMS_Derivative-OPLS-2005>
9.28711605072021

$$$$
64
                    3D
 Structure written by MMmdl.
164171  0  0  1  0            999 V2000
  -30.7043  -14.5180   20.5661 C   0  0  0  0  0  0
  -30.4320  -12.3455   19.4270 C   0  0  0  0  0  0
  -29.5025  -12.5236   18.2083 C   0  0  0  0  0  0
  -28.0206  -12.3856   18.6143 C   0  0  0  0  0  0
  -27.6606  -13.2215   19.8726 C   0  0  2  0  0  0
  -28.7067  -13.0227   20.9939 C   0  0  0  0  0  0
  -25.2549  -13.8188   20.5658 C   0  0  0  0  0  0
  -24.1823  -13.0437   20.9191 C   0  0  0  0  0  0
  -24.6408  -11.6916   20.8764 C   0  0  0  0  0  0
  -23.9074  -10.4290   21.0415 C   0  0  0  0  0  0
  -24.3611   -9.4208   21.9192 C   0  0  0  0  0  0
  -23.6293   -8.2244   22.0756 C   0  0  0  0  0  0
  -22.4284   -8.0280   21.3534 C   0  0  0  0  0  0
  -21.9915   -9.0249   20.4642 C   0  0  0  0  0  0
  -22.7240  -10.2134   20.3066 C   0  0  0  0  0  0
  -21.6844   -6.0750   22.5275 C   0  0  0  0  0  0
  -21.4003   -6.5643   23.8208 C   0  0  0  0  0  0
  -21.3663   -5.6793   24.9167 C   0  0  0  0  0  0
  -21.6056   -4.3059   24.7209 C   0  0  0  0  0  0
  -21.8813   -3.8151   23.4329 C   0  0  0  0  0  0
  -21.9186   -4.6980   22.3395 C   0  0  0  0  0  0
  -22.7842  -13.5247   21.1816 C   0  0  0  0  0  0
  -22.1652   -4.2171   21.0965 F   0  0  0  0  0  0
  -21.5639   -3.4538   25.7722 F   0  0  0  0  0  0
  -30.0349  -13.3362   20.4397 N   0  0  0  0  0  0
  -26.3012  -12.9384   20.3359 N   0  0  0  0  0  0
  -25.9344  -11.6530   20.5785 N   0  0  0  0  0  0
  -22.0468  -12.8263   22.0388 N   0  0  0  0  0  0
  -25.4221  -15.1899   20.3983 N   0  0  0  0  0  0
  -31.8314  -14.6965   20.0999 O   0  0  0  0  0  0
  -21.6641   -6.8887   21.4234 O   0  0  0  0  0  0
  -22.3527  -14.5531   20.6638 O   0  0  0  0  0  0
  -24.6201  -31.8649   23.2051 C   0  0  0  0  0  0
  -25.9071  -32.4800   23.8365 C   0  0  1  0  0  0
  -27.2325  -27.3865   20.1079 C   0  0  0  0  0  0
  -25.5914  -33.8595   24.2292 N   0  0  0  0  0  0
  -23.4092  -30.4898   21.5465 C   0  0  2  0  0  0
  -24.8545  -28.9440   20.1190 C   0  0  0  0  0  0
  -22.7434  -29.4674   22.4962 C   0  0  0  0  0  0
  -18.0284  -28.1391   22.8499 C   0  0  0  0  0  0
  -24.1477  -36.7284   23.2639 C   0  0  0  0  0  0
  -25.9439  -30.8185   21.3636 C   0  0  0  0  0  0
  -26.0187  -29.4476   20.7117 C   0  0  0  0  0  0
  -27.2112  -28.6786   20.6952 C   0  0  0  0  0  0
  -26.0497  -26.9135   19.4995 C   0  0  0  0  0  0
  -24.8663  -27.6779   19.5096 C   0  0  0  0  0  0
  -23.6191  -29.8165   20.1641 C   0  0  0  0  0  0
  -25.4098  -36.3087   24.0340 C   0  0  1  0  0  0
  -20.5875  -28.3688   23.1293 C   0  0  2  0  0  0
  -20.6768  -26.9415   22.5409 C   0  0  0  0  0  0
  -19.5738  -26.6392   21.5212 C   0  0  0  0  0  0
  -18.1921  -26.7933   22.1628 C   0  0  0  0  0  0
  -19.1537  -28.8854   23.2894 C   0  0  0  0  0  0
  -18.9462  -30.1455   23.8915 C   0  0  0  0  0  0
  -17.6464  -30.6589   24.0581 C   0  0  0  0  0  0
  -25.9047  -34.9458   23.5110 C   0  0  0  0  0  0
  -16.5354  -29.9104   23.6325 C   0  0  0  0  0  0
  -16.7271  -28.6518   23.0349 C   0  0  0  0  0  0
  -26.4479  -31.6597   25.0715 C   0  0  0  0  0  0
  -25.3721  -31.3727   26.1448 C   0  0  0  0  0  0
  -27.0324  -30.3035   24.6130 C   0  0  0  0  0  0
  -27.6032  -32.4346   25.7487 C   0  0  0  0  0  0
  -27.5564  -37.1784   24.8466 C   0  0  0  0  0  0
  -21.4155  -29.3052   22.3694 N   0  0  0  0  0  0
  -26.4278  -37.3777   23.9426 N   0  0  0  0  0  0
  -24.6769  -31.0727   22.0973 N   0  0  0  0  0  0
  -23.4184  -28.8212   23.3028 O   0  0  0  0  0  0
  -28.3994  -26.6327   20.0947 O   0  0  0  0  0  0
  -26.5604  -34.8919   22.4676 O   0  0  0  0  0  0
  -23.5378  -32.1415   23.7422 O   0  0  0  0  0  0
  -31.0032  -22.4595   19.3158 C   0  0  0  0  0  0
  -27.4326  -19.8442   19.0852 C   0  0  0  0  0  0
  -27.9393  -17.5916   21.5307 C   0  0  0  0  0  0
  -29.4289  -24.4011   19.6764 C   0  0  0  0  0  0
  -28.5662  -21.9091   19.9357 C   0  0  0  0  0  0
  -29.4741  -19.4663   20.6783 C   0  0  0  0  0  0
  -30.3549  -16.9842   21.1332 C   0  0  0  0  0  0
  -28.3267  -25.2143   20.4217 C   0  0  0  0  0  0
  -29.7530  -22.9148   20.0983 C   0  0  1  0  0  0
  -28.7935  -20.3827   19.5822 C   0  0  1  0  0  0
  -29.1791  -17.9114   20.6698 C   0  0  1  0  0  0
  -30.0013  -15.5418   21.0981 N   0  0  0  0  0  0
  -31.4755  -12.4552   19.1245 H   0  0  0  0  0  0
  -30.3443  -11.3385   19.8374 H   0  0  0  0  0  0
  -29.7508  -11.7867   17.4425 H   0  0  0  0  0  0
  -29.6704  -13.5029   17.7567 H   0  0  0  0  0  0
  -27.8239  -11.3278   18.7978 H   0  0  0  0  0  0
  -27.3799  -12.6742   17.7805 H   0  0  0  0  0  0
  -27.6943  -14.2699   19.5742 H   0  0  0  0  0  0
  -28.6932  -11.9914   21.3507 H   0  0  0  0  0  0
  -28.4651  -13.6377   21.8621 H   0  0  0  0  0  0
  -25.2759   -9.5711   22.4751 H   0  0  0  0  0  0
  -24.0002   -7.4655   22.7493 H   0  0  0  0  0  0
  -21.0839   -8.8762   19.8966 H   0  0  0  0  0  0
  -22.3686  -10.9656   19.6169 H   0  0  0  0  0  0
  -21.1981   -7.6150   23.9715 H   0  0  0  0  0  0
  -21.1501   -6.0524   25.9073 H   0  0  0  0  0  0
  -22.0596   -2.7622   23.2810 H   0  0  0  0  0  0
  -22.4031  -11.9893   22.4753 H   0  0  0  0  0  0
  -21.1075  -13.1306   22.2545 H   0  0  0  0  0  0
  -24.6727  -15.8562   20.5459 H   0  0  0  0  0  0
  -26.2671  -15.6200   20.0427 H   0  0  0  0  0  0
  -26.7151  -32.5487   23.1128 H   0  0  0  0  0  0
  -25.0075  -33.9752   25.0448 H   0  0  0  0  0  0
  -22.7002  -31.3087   21.4013 H   0  0  0  0  0  0
  -23.3743  -35.9608   23.3308 H   0  0  0  0  0  0
  -24.3564  -36.8894   22.2049 H   0  0  0  0  0  0
  -23.7223  -37.6487   23.6660 H   0  0  0  0  0  0
  -26.0589  -31.5834   20.5931 H   0  0  0  0  0  0
  -26.8313  -30.8716   21.9842 H   0  0  0  0  0  0
  -28.1130  -29.0682   21.1452 H   0  0  0  0  0  0
  -26.0301  -25.9579   18.9976 H   0  0  0  0  0  0
  -23.9718  -27.2882   19.0428 H   0  0  0  0  0  0
  -23.7302  -30.5883   19.4010 H   0  0  0  0  0  0
  -22.7412  -29.2391   19.8676 H   0  0  0  0  0  0
  -25.1271  -36.1934   25.0830 H   0  0  0  0  0  0
  -20.9983  -28.3274   24.1404 H   0  0  0  0  0  0
  -20.5670  -26.2308   23.3616 H   0  0  0  0  0  0
  -21.6637  -26.7452   22.1194 H   0  0  0  0  0  0
  -19.6904  -25.6309   21.1235 H   0  0  0  0  0  0
  -19.6662  -27.3214   20.6749 H   0  0  0  0  0  0
  -17.4186  -26.6694   21.4036 H   0  0  0  0  0  0
  -18.0317  -26.0068   22.9016 H   0  0  0  0  0  0
  -19.7942  -30.7269   24.2283 H   0  0  0  0  0  0
  -17.5024  -31.6265   24.5195 H   0  0  0  0  0  0
  -15.5361  -30.3021   23.7628 H   0  0  0  0  0  0
  -15.8669  -28.0852   22.7046 H   0  0  0  0  0  0
  -24.5888  -30.7091   25.7781 H   0  0  0  0  0  0
  -24.8915  -32.2891   26.4880 H   0  0  0  0  0  0
  -25.8033  -30.8900   27.0219 H   0  0  0  0  0  0
  -26.2883  -29.6783   24.1187 H   0  0  0  0  0  0
  -27.4087  -29.7289   25.4599 H   0  0  0  0  0  0
  -27.8711  -30.4343   23.9288 H   0  0  0  0  0  0
  -27.2632  -33.3646   26.2049 H   0  0  0  0  0  0
  -28.3841  -32.6915   25.0323 H   0  0  0  0  0  0
  -28.0703  -31.8496   26.5414 H   0  0  0  0  0  0
  -28.2582  -38.0083   24.7532 H   0  0  0  0  0  0
  -28.1066  -36.2618   24.6277 H   0  0  0  0  0  0
  -27.2293  -37.1414   25.8872 H   0  0  0  0  0  0
  -20.9330  -29.8779   21.6908 H   0  0  0  0  0  0
  -26.0156  -38.2847   24.1451 H   0  0  0  0  0  0
  -31.8257  -23.1663   19.4294 H   0  0  0  0  0  0
  -30.7989  -22.3611   18.2487 H   0  0  0  0  0  0
  -31.3826  -21.5029   19.6696 H   0  0  0  0  0  0
  -27.0570  -20.4544   18.2629 H   0  0  0  0  0  0
  -26.6725  -19.8758   19.8664 H   0  0  0  0  0  0
  -27.4828  -18.8279   18.6947 H   0  0  0  0  0  0
  -28.1579  -17.7432   22.5882 H   0  0  0  0  0  0
  -27.6175  -16.5575   21.4177 H   0  0  0  0  0  0
  -27.0811  -18.2135   21.2863 H   0  0  0  0  0  0
  -30.3519  -24.9738   19.7765 H   0  0  0  0  0  0
  -29.2003  -24.4225   18.6108 H   0  0  0  0  0  0
  -27.9597  -22.3249   19.1314 H   0  0  0  0  0  0
  -27.9266  -21.9749   20.8184 H   0  0  0  0  0  0
  -29.2460  -19.8625   21.6685 H   0  0  0  0  0  0
  -30.5512  -19.5977   20.5672 H   0  0  0  0  0  0
  -31.2437  -17.1769   20.5306 H   0  0  0  0  0  0
  -30.6303  -17.2328   22.1582 H   0  0  0  0  0  0
  -28.4710  -25.1173   21.4991 H   0  0  0  0  0  0
  -27.3563  -24.7675   20.2092 H   0  0  0  0  0  0
  -30.0280  -22.9195   21.1544 H   0  0  0  0  0  0
  -29.4406  -20.3424   18.7043 H   0  0  0  0  0  0
  -28.9768  -17.6153   19.6420 H   0  0  0  0  0  0
  -29.0937  -15.3008   21.4646 H   0  0  0  0  0  0
  1 25  1  0  0  0
  1 30  2  0  0  0
  1 82  1  0  0  0
  2  3  1  0  0  0
  2 25  1  0  0  0
  2 83  1  0  0  0
  2 84  1  0  0  0
  3  4  1  0  0  0
  3 85  1  0  0  0
  3 86  1  0  0  0
  4  5  1  0  0  0
  4 87  1  0  0  0
  4 88  1  0  0  0
  5  6  1  0  0  0
  5 26  1  0  0  0
  5 89  1  0  0  0
  6 25  1  0  0  0
  6 90  1  0  0  0
  6 91  1  0  0  0
  7  8  2  0  0  0
  7 26  1  0  0  0
  7 29  1  0  0  0
  8  9  1  0  0  0
  8 22  1  0  0  0
  9 10  1  0  0  0
  9 27  2  0  0  0
 10 11  2  0  0  0
 10 15  1  0  0  0
 11 12  1  0  0  0
 11 92  1  0  0  0
 12 13  2  0  0  0
 12 93  1  0  0  0
 13 14  1  0  0  0
 13 31  1  0  0  0
 14 15  2  0  0  0
 14 94  1  0  0  0
 15 95  1  0  0  0
 16 17  2  0  0  0
 16 21  1  0  0  0
 16 31  1  0  0  0
 17 18  1  0  0  0
 17 96  1  0  0  0
 18 19  2  0  0  0
 18 97  1  0  0  0
 19 20  1  0  0  0
 19 24  1  0  0  0
 20 21  2  0  0  0
 20 98  1  0  0  0
 21 23  1  0  0  0
 22 28  1  0  0  0
 22 32  2  0  0  0
 26 27  1  0  0  0
 28 99  1  0  0  0
 28100  1  0  0  0
 29101  1  0  0  0
 29102  1  0  0  0
 33 34  1  0  0  0
 33 66  1  0  0  0
 33 70  2  0  0  0
 34 36  1  0  0  0
 34 59  1  0  0  0
 34103  1  0  0  0
 35 44  2  0  0  0
 35 45  1  0  0  0
 35 68  1  0  0  0
 36 56  1  0  0  0
 36104  1  0  0  0
 37 39  1  0  0  0
 37 47  1  0  0  0
 37 66  1  0  0  0
 37105  1  0  0  0
 38 43  2  0  0  0
 38 46  1  0  0  0
 38 47  1  0  0  0
 39 64  1  0  0  0
 39 67  2  0  0  0
 40 52  1  0  0  0
 40 53  2  0  0  0
 40 58  1  0  0  0
 41106  1  0  0  0
 41107  1  0  0  0
 41108  1  0  0  0
 41 48  1  0  0  0
 42 43  1  0  0  0
 42 66  1  0  0  0
 42109  1  0  0  0
 42110  1  0  0  0
 43 44  1  0  0  0
 44111  1  0  0  0
 45 46  2  0  0  0
 45112  1  0  0  0
 46113  1  0  0  0
 47114  1  0  0  0
 47115  1  0  0  0
 48 56  1  0  0  0
 48 65  1  0  0  0
 48116  1  0  0  0
 49 50  1  0  0  0
 49 53  1  0  0  0
 49 64  1  0  0  0
 49117  1  0  0  0
 50 51  1  0  0  0
 50118  1  0  0  0
 50119  1  0  0  0
 51 52  1  0  0  0
 51120  1  0  0  0
 51121  1  0  0  0
 52122  1  0  0  0
 52123  1  0  0  0
 53 54  1  0  0  0
 54 55  2  0  0  0
 54124  1  0  0  0
 55 57  1  0  0  0
 55125  1  0  0  0
 56 69  2  0  0  0
 57 58  2  0  0  0
 57126  1  0  0  0
 58127  1  0  0  0
 59 60  1  0  0  0
 59 61  1  0  0  0
 59 62  1  0  0  0
 60128  1  0  0  0
 60129  1  0  0  0
 60130  1  0  0  0
 61131  1  0  0  0
 61132  1  0  0  0
 61133  1  0  0  0
 62134  1  0  0  0
 62135  1  0  0  0
 62136  1  0  0  0
 63 65  1  0  0  0
 63137  1  0  0  0
 63138  1  0  0  0
 63139  1  0  0  0
 64140  1  0  0  0
 65141  1  0  0  0
 68 78  1  0  0  0
 71142  1  0  0  0
 71143  1  0  0  0
 71144  1  0  0  0
 71 79  1  0  0  0
 72145  1  0  0  0
 72146  1  0  0  0
 72147  1  0  0  0
 72 80  1  0  0  0
 73148  1  0  0  0
 73149  1  0  0  0
 73150  1  0  0  0
 73 81  1  0  0  0
 74 78  1  0  0  0
 74 79  1  0  0  0
 74151  1  0  0  0
 74152  1  0  0  0
 75 79  1  0  0  0
 75 80  1  0  0  0
 75153  1  0  0  0
 75154  1  0  0  0
 76 80  1  0  0  0
 76 81  1  0  0  0
 76155  1  0  0  0
 76156  1  0  0  0
 77 81  1  0  0  0
 77 82  1  0  0  0
 77157  1  0  0  0
 77158  1  0  0  0
 78159  1  0  0  0
 78160  1  0  0  0
 79161  1  0  0  0
 80162  1  0  0  0
 81163  1  0  0  0
 82164  1  0  0  0
M  ISO  4   1 100  68 101  78 101  82 100
M  END
> <chiral flag>
0

> <version>
0

> <s_m_source_file>
/data/baiqing/PycharmProjects/Reinvent-master-3.2/result/LINK_invent/BTK/process_docking_weight1_custom_sum_contain_oxygen_bond_distance_aromatic_linkinvent_7_9_3/rearranged_h_0092.sdf

> <i_m_source_file_index>
63

> <r_mmod_Potential_Energy-OPLS-2005>
13.5914154052734

> <r_mmod_Stretch_Energy-OPLS-2005>
54.9101638793945

> <r_mmod_Bend_Energy-OPLS-2005>
129.941741943359

> <r_mmod_Torsional_Energy-OPLS-2005>
245.855499267578

> <r_mmod_Improper_Torsional_Energy-OPLS-2005>
3.37283968925476

> <r_mmod_Van_der_Waal_Energy-OPLS-2005>
132.088500976562

> <r_mmod_Electrostatic_Energy-OPLS-2005>
-383.393859863281

> <r_mmod_Solvation_Energy-OPLS-2005>
-188.107986450195

> <b_mmod_Minimization_Converged-OPLS-2005>
0

> <r_mmod_RMS_Derivative-OPLS-2005>
2.93040871620178

$$$$
65
                    3D
 Structure written by MMmdl.
161169  0  0  1  0            999 V2000
  -31.1224  -14.7288   19.7042 C   0  0  0  0  0  0
  -31.1792  -12.3730   19.6252 C   0  0  0  0  0  0
  -30.4446  -12.3012   18.3108 C   0  0  0  0  0  0
  -29.1141  -12.6415   18.7628 C   0  0  0  0  0  0
  -28.4261  -14.0326   19.8834 C   0  0  2  0  0  0
  -29.4840  -13.5578   20.9850 C   0  0  0  0  0  0
  -24.5921  -14.4518   20.9048 C   0  0  0  0  0  0
  -23.8168  -13.3849   21.3236 C   0  0  0  0  0  0
  -24.3305  -12.1337   20.9277 C   0  0  0  0  0  0
  -23.8157  -10.6793   20.9989 C   0  0  0  0  0  0
  -24.3073   -9.6633   21.8875 C   0  0  0  0  0  0
  -23.6568   -8.4004   22.0505 C   0  0  0  0  0  0
  -22.4702   -8.1083   21.3342 C   0  0  0  0  0  0
  -22.0164   -9.0747   20.4172 C   0  0  0  0  0  0
  -22.6769  -10.3138   20.2474 C   0  0  0  0  0  0
  -21.7350   -6.1104   22.5199 C   0  0  0  0  0  0
  -21.4374   -6.5915   23.8145 C   0  0  0  0  0  0
  -21.3757   -5.6995   24.9064 C   0  0  0  0  0  0
  -21.6024   -4.3238   24.7109 C   0  0  0  0  0  0
  -21.8778   -3.8367   23.4219 C   0  0  0  0  0  0
  -21.9353   -4.7242   22.3312 C   0  0  0  0  0  0
  -22.3889  -13.5971   21.4540 C   0  0  0  0  0  0
  -22.1740   -4.2358   21.0903 F   0  0  0  0  0  0
  -21.5521   -3.4684   25.7600 F   0  0  0  0  0  0
  -30.7275  -13.5950   20.2939 N   0  0  0  0  0  0
  -25.5426  -14.0270   20.1099 N   0  0  0  0  0  0
  -24.6794  -12.7972   19.8404 N   0  0  0  0  0  0
  -21.7395  -12.7577   22.2320 N   0  0  0  0  0  0
  -24.4443  -15.8000   20.8580 N   0  0  0  0  0  0
  -32.1612  -15.1947   20.1097 O   0  0  0  0  0  0
  -21.7432   -6.9320   21.4128 O   0  0  0  0  0  0
  -21.8709  -14.5213   20.8308 O   0  0  0  0  0  0
  -24.7221  -31.7499   23.1236 C   0  0  0  0  0  0
  -25.9642  -32.4184   23.7875 C   0  0  1  0  0  0
  -26.8785  -26.1419   20.2787 C   0  0  0  0  0  0
  -25.6067  -33.8051   24.1701 N   0  0  0  0  0  0
  -23.5458  -30.3619   21.4921 C   0  0  2  0  0  0
  -24.9357  -28.6147   20.1058 C   0  0  0  0  0  0
  -22.7851  -29.4108   22.4581 C   0  0  0  0  0  0
  -18.0346  -28.1434   22.8438 C   0  0  0  0  0  0
  -24.1507  -36.7027   23.2661 C   0  0  0  0  0  0
  -26.1353  -30.2848   21.4681 C   0  0  0  0  0  0
  -26.1225  -28.8026   20.8165 C   0  0  0  0  0  0
  -27.0850  -27.6000   20.8605 C   0  0  0  0  0  0
  -25.7431  -26.3187   19.4502 C   0  0  0  0  0  0
  -24.8248  -27.4167   19.3849 C   0  0  0  0  0  0
  -23.8018  -29.6638   20.1242 C   0  0  0  0  0  0
  -25.4176  -36.2730   24.0240 C   0  0  1  0  0  0
  -20.5989  -28.3804   23.1074 C   0  0  2  0  0  0
  -20.6792  -26.9434   22.5405 C   0  0  0  0  0  0
  -19.5776  -26.6352   21.5215 C   0  0  0  0  0  0
  -18.1960  -26.7955   22.1611 C   0  0  0  0  0  0
  -19.1619  -28.8948   23.2734 C   0  0  0  0  0  0
  -18.9527  -30.1524   23.8793 C   0  0  0  0  0  0
  -17.6516  -30.6610   24.0547 C   0  0  0  0  0  0
  -25.9192  -34.9135   23.4836 C   0  0  0  0  0  0
  -16.5402  -29.9089   23.6361 C   0  0  0  0  0  0
  -16.7327  -28.6514   23.0373 C   0  0  0  0  0  0
  -26.4674  -31.6437   25.0698 C   0  0  0  0  0  0
  -25.3618  -31.3903   26.1231 C   0  0  0  0  0  0
  -27.0679  -30.2719   24.6988 C   0  0  0  0  0  0
  -27.6036  -32.4421   25.7519 C   0  0  0  0  0  0
  -27.5557  -37.1668   24.8459 C   0  0  0  0  0  0
  -21.4473  -29.2992   22.3343 N   0  0  0  0  0  0
  -26.4254  -37.3550   23.9410 N   0  0  0  0  0  0
  -24.8352  -30.8486   22.0755 N   0  0  0  0  0  0
  -23.4153  -28.7729   23.3050 O   0  0  0  0  0  0
  -27.5170  -24.5967   20.3423 O   0  0  0  0  0  0
  -26.5886  -34.8798   22.4491 O   0  0  0  0  0  0
  -23.6182  -32.0855   23.5934 O   0  0  0  0  0  0
  -27.1247  -14.9374   21.5903 C   0  0  0  0  0  0
  -27.0713  -13.0565   21.4208 C   0  0  0  0  0  0
  -26.9603  -12.3743   19.6447 C   0  0  0  0  0  0
  -27.0197  -16.2042   20.2959 C   0  0  0  0  0  0
  -26.8726  -13.8409   18.2823 C   0  0  0  0  0  0
  -26.2034  -12.5380   23.7867 C   0  0  0  0  0  0
  -27.1405  -12.1403   22.6388 C   0  0  0  0  0  0
  -26.8067  -18.3103   20.4517 C   0  0  0  0  0  0
  -27.9517  -14.2879   17.1337 C   0  0  0  0  0  0
  -27.4229  -20.4518   20.2544 C   0  0  0  0  0  0
  -29.3388  -15.2327   17.4895 C   0  0  0  0  0  0
  -27.0018  -22.6535   20.3361 C   0  0  0  0  0  0
  -26.8451  -15.4842   18.8087 N   0  0  0  0  0  0
  -30.6291  -15.1062   18.4243 N   0  0  0  0  0  0
  -26.8196  -10.4953   19.2457 Br  0  0  0  0  0  0
  -32.2573  -12.3997   19.4533 H   0  0  0  0  0  0
  -31.0169  -11.4948   20.2547 H   0  0  0  0  0  0
  -30.4942  -11.2786   17.9266 H   0  0  0  0  0  0
  -30.8492  -12.9094   17.5040 H   0  0  0  0  0  0
  -29.0795  -11.7349   19.3785 H   0  0  0  0  0  0
  -28.5597  -12.2014   17.9356 H   0  0  0  0  0  0
  -28.8075  -15.0216   19.7787 H   0  0  0  0  0  0
  -29.4095  -12.5383   21.3596 H   0  0  0  0  0  0
  -29.5498  -14.2241   21.8481 H   0  0  0  0  0  0
  -25.1702   -9.8730   22.4991 H   0  0  0  0  0  0
  -24.0629   -7.6812   22.7468 H   0  0  0  0  0  0
  -21.1295   -8.8708   19.8346 H   0  0  0  0  0  0
  -22.2580  -11.0361   19.5603 H   0  0  0  0  0  0
  -21.2527   -7.6446   23.9706 H   0  0  0  0  0  0
  -21.1542   -6.0725   25.8963 H   0  0  0  0  0  0
  -22.0404   -2.7811   23.2660 H   0  0  0  0  0  0
  -22.2222  -12.0158   22.7166 H   0  0  0  0  0  0
  -20.7424  -12.8576   22.3580 H   0  0  0  0  0  0
  -23.4706  -16.0748   20.9291 H   0  0  0  0  0  0
  -24.8675  -16.1463   20.0040 H   0  0  0  0  0  0
  -26.7733  -32.4479   23.0567 H   0  0  0  0  0  0
  -25.0052  -33.9021   24.9748 H   0  0  0  0  0  0
  -22.8978  -31.2191   21.2977 H   0  0  0  0  0  0
  -23.3808  -35.9312   23.3206 H   0  0  0  0  0  0
  -24.3564  -36.8838   22.2100 H   0  0  0  0  0  0
  -23.7231  -37.6138   23.6855 H   0  0  0  0  0  0
  -26.4222  -30.9725   20.6716 H   0  0  0  0  0  0
  -26.9665  -30.3255   22.1573 H   0  0  0  0  0  0
  -27.9648  -27.7351   21.4741 H   0  0  0  0  0  0
  -25.4558  -25.4507   18.8737 H   0  0  0  0  0  0
  -23.9480  -27.2811   18.7669 H   0  0  0  0  0  0
  -24.0498  -30.4230   19.3814 H   0  0  0  0  0  0
  -22.8793  -29.2023   19.7681 H   0  0  0  0  0  0
  -25.1407  -36.1419   25.0726 H   0  0  0  0  0  0
  -21.0072  -28.3464   24.1201 H   0  0  0  0  0  0
  -20.5625  -26.2443   23.3699 H   0  0  0  0  0  0
  -21.6654  -26.7330   22.1247 H   0  0  0  0  0  0
  -19.6929  -25.6234   21.1317 H   0  0  0  0  0  0
  -19.6730  -27.3101   20.6698 H   0  0  0  0  0  0
  -17.4233  -26.6702   21.4012 H   0  0  0  0  0  0
  -18.0337  -26.0121   22.9026 H   0  0  0  0  0  0
  -19.8006  -30.7363   24.2116 H   0  0  0  0  0  0
  -17.5070  -31.6279   24.5172 H   0  0  0  0  0  0
  -15.5400  -30.2965   23.7738 H   0  0  0  0  0  0
  -15.8726  -28.0800   22.7146 H   0  0  0  0  0  0
  -24.5854  -30.7199   25.7527 H   0  0  0  0  0  0
  -24.8762  -32.3170   26.4293 H   0  0  0  0  0  0
  -25.7688  -30.9302   27.0244 H   0  0  0  0  0  0
  -26.3440  -29.6128   24.2194 H   0  0  0  0  0  0
  -27.4081  -29.7439   25.5907 H   0  0  0  0  0  0
  -27.9448  -30.3714   24.0591 H   0  0  0  0  0  0
  -27.2521  -33.3853   26.1712 H   0  0  0  0  0  0
  -28.4026  -32.6772   25.0475 H   0  0  0  0  0  0
  -28.0509  -31.8827   26.5747 H   0  0  0  0  0  0
  -28.2485  -38.0043   24.7543 H   0  0  0  0  0  0
  -28.1138  -36.2560   24.6240 H   0  0  0  0  0  0
  -27.2270  -37.1230   25.8856 H   0  0  0  0  0  0
  -20.9827  -29.8640   21.6367 H   0  0  0  0  0  0
  -26.0029  -38.2565   24.1456 H   0  0  0  0  0  0
  -27.1743  -15.3184   22.6004 H   0  0  0  0  0  0
  -26.3065  -11.8415   24.6192 H   0  0  0  0  0  0
  -25.1561  -12.5298   23.4960 H   0  0  0  0  0  0
  -26.4398  -13.5346   24.1587 H   0  0  0  0  0  0
  -28.1541  -12.1349   23.0361 H   0  0  0  0  0  0
  -26.9471  -11.1213   22.3116 H   0  0  0  0  0  0
  -26.4980  -18.3266   21.4973 H   0  0  0  0  0  0
  -25.8643  -18.3721   19.9083 H   0  0  0  0  0  0
  -27.3628  -14.9096   16.4577 H   0  0  0  0  0  0
  -28.1980  -13.4755   16.4497 H   0  0  0  0  0  0
  -27.8323  -20.4100   19.2453 H   0  0  0  0  0  0
  -28.3069  -20.4272   20.8919 H   0  0  0  0  0  0
  -28.9800  -16.2364   17.7173 H   0  0  0  0  0  0
  -29.7958  -15.3711   16.5101 H   0  0  0  0  0  0
  -26.4366  -22.6731   21.2676 H   0  0  0  0  0  0
  -26.2287  -22.7137   19.5705 H   0  0  0  0  0  0
  -31.3326  -15.7233   18.0457 H   0  0  0  0  0  0
  1 25  1  0  0  0
  1 30  2  0  0  0
  1 84  1  0  0  0
  2  3  1  0  0  0
  2 25  1  0  0  0
  2 86  1  0  0  0
  2 87  1  0  0  0
  3  4  1  0  0  0
  3 88  1  0  0  0
  3 89  1  0  0  0
  4  5  1  0  0  0
  4 90  1  0  0  0
  4 91  1  0  0  0
  5  6  1  0  0  0
  5 26  1  0  0  0
  5 92  1  0  0  0
  6 25  1  0  0  0
  6 93  1  0  0  0
  6 94  1  0  0  0
  7  8  2  0  0  0
  7 26  1  0  0  0
  7 29  1  0  0  0
  8  9  1  0  0  0
  8 22  1  0  0  0
  9 10  1  0  0  0
  9 27  2  0  0  0
 10 11  2  0  0  0
 10 15  1  0  0  0
 11 12  1  0  0  0
 11 95  1  0  0  0
 12 13  2  0  0  0
 12 96  1  0  0  0
 13 14  1  0  0  0
 13 31  1  0  0  0
 14 15  2  0  0  0
 14 97  1  0  0  0
 15 98  1  0  0  0
 16 17  2  0  0  0
 16 21  1  0  0  0
 16 31  1  0  0  0
 17 18  1  0  0  0
 17 99  1  0  0  0
 18 19  2  0  0  0
 18100  1  0  0  0
 19 20  1  0  0  0
 19 24  1  0  0  0
 20 21  2  0  0  0
 20101  1  0  0  0
 21 23  1  0  0  0
 22 28  1  0  0  0
 22 32  2  0  0  0
 26 27  1  0  0  0
 28102  1  0  0  0
 28103  1  0  0  0
 29104  1  0  0  0
 29105  1  0  0  0
 33 34  1  0  0  0
 33 66  1  0  0  0
 33 70  2  0  0  0
 34 36  1  0  0  0
 34 59  1  0  0  0
 34106  1  0  0  0
 35 44  2  0  0  0
 35 45  1  0  0  0
 35 68  1  0  0  0
 36 56  1  0  0  0
 36107  1  0  0  0
 37 39  1  0  0  0
 37 47  1  0  0  0
 37 66  1  0  0  0
 37108  1  0  0  0
 38 43  2  0  0  0
 38 46  1  0  0  0
 38 47  1  0  0  0
 39 64  1  0  0  0
 39 67  2  0  0  0
 40 52  1  0  0  0
 40 53  2  0  0  0
 40 58  1  0  0  0
 41109  1  0  0  0
 41110  1  0  0  0
 41111  1  0  0  0
 41 48  1  0  0  0
 42 43  1  0  0  0
 42 66  1  0  0  0
 42112  1  0  0  0
 42113  1  0  0  0
 43 44  1  0  0  0
 44114  1  0  0  0
 45 46  2  0  0  0
 45115  1  0  0  0
 46116  1  0  0  0
 47117  1  0  0  0
 47118  1  0  0  0
 48 56  1  0  0  0
 48 65  1  0  0  0
 48119  1  0  0  0
 49 50  1  0  0  0
 49 53  1  0  0  0
 49 64  1  0  0  0
 49120  1  0  0  0
 50 51  1  0  0  0
 50121  1  0  0  0
 50122  1  0  0  0
 51 52  1  0  0  0
 51123  1  0  0  0
 51124  1  0  0  0
 52125  1  0  0  0
 52126  1  0  0  0
 53 54  1  0  0  0
 54 55  2  0  0  0
 54127  1  0  0  0
 55 57  1  0  0  0
 55128  1  0  0  0
 56 69  2  0  0  0
 57 58  2  0  0  0
 57129  1  0  0  0
 58130  1  0  0  0
 59 60  1  0  0  0
 59 61  1  0  0  0
 59 62  1  0  0  0
 60131  1  0  0  0
 60132  1  0  0  0
 60133  1  0  0  0
 61134  1  0  0  0
 61135  1  0  0  0
 61136  1  0  0  0
 62137  1  0  0  0
 62138  1  0  0  0
 62139  1  0  0  0
 63 65  1  0  0  0
 63140  1  0  0  0
 63141  1  0  0  0
 63142  1  0  0  0
 64143  1  0  0  0
 65144  1  0  0  0
 68 82  1  0  0  0
 71 72  2  0  0  0
 71 74  1  0  0  0
 71145  1  0  0  0
 72 73  1  0  0  0
 72 77  1  0  0  0
 73 75  2  0  0  0
 73 85  1  0  0  0
 74 78  1  0  0  0
 74 83  2  0  0  0
 75 79  1  0  0  0
 75 83  1  0  0  0
 76 77  1  0  0  0
 76146  1  0  0  0
 76147  1  0  0  0
 76148  1  0  0  0
 77149  1  0  0  0
 77150  1  0  0  0
 78 80  1  0  0  0
 78151  1  0  0  0
 78152  1  0  0  0
 79 81  1  0  0  0
 79153  1  0  0  0
 79154  1  0  0  0
 80 82  1  0  0  0
 80155  1  0  0  0
 80156  1  0  0  0
 81 84  1  0  0  0
 81157  1  0  0  0
 81158  1  0  0  0
 82159  1  0  0  0
 82160  1  0  0  0
 84161  1  0  0  0
M  ISO  4   1 100  68 101  82 101  84 100
M  END
> <chiral flag>
0

> <version>
0

> <s_m_source_file>
/data/baiqing/PycharmProjects/Reinvent-master-3.2/result/LINK_invent/BTK/process_docking_weight1_custom_sum_contain_oxygen_bond_distance_aromatic_linkinvent_7_9_3/rearranged_h_0092.sdf

> <i_m_source_file_index>
64

> <r_mmod_Potential_Energy-OPLS-2005>
15359.4609375

> <r_mmod_Stretch_Energy-OPLS-2005>
8185.1767578125

> <r_mmod_Bend_Energy-OPLS-2005>
1462.27648925781

> <r_mmod_Torsional_Energy-OPLS-2005>
586.768737792969

> <r_mmod_Improper_Torsional_Energy-OPLS-2005>
71.4180068969727

> <r_mmod_Van_der_Waal_Energy-OPLS-2005>
2958.97119140625

> <r_mmod_Electrostatic_Energy-OPLS-2005>
-456.391296386719

> <r_mmod_Solvation_Energy-OPLS-2005>
-222.945877075195

> <b_mmod_Minimization_Converged-OPLS-2005>
0

> <r_mmod_RMS_Derivative-OPLS-2005>
1.90010678768158

$$$$
66
                    3D
 Structure written by MMmdl.
176184  0  0  1  0            999 V2000
  -30.5345  -14.9883   20.4169 C   0  0  0  0  0  0
  -30.4389  -12.6202   19.4928 C   0  0  0  0  0  0
  -29.5183  -12.5386   18.2545 C   0  0  0  0  0  0
  -28.0572  -12.3090   18.6810 C   0  0  0  0  0  0
  -27.6261  -13.2510   19.8351 C   0  0  2  0  0  0
  -28.6690  -13.3056   20.9700 C   0  0  0  0  0  0
  -25.2449  -13.8219   20.5721 C   0  0  0  0  0  0
  -24.1775  -13.0439   20.9242 C   0  0  0  0  0  0
  -24.6404  -11.6928   20.8764 C   0  0  0  0  0  0
  -23.9091  -10.4297   21.0421 C   0  0  0  0  0  0
  -24.3634   -9.4207   21.9197 C   0  0  0  0  0  0
  -23.6302   -8.2244   22.0764 C   0  0  0  0  0  0
  -22.4285   -8.0289   21.3549 C   0  0  0  0  0  0
  -21.9927   -9.0269   20.4651 C   0  0  0  0  0  0
  -22.7267  -10.2143   20.3064 C   0  0  0  0  0  0
  -21.6853   -6.0739   22.5284 C   0  0  0  0  0  0
  -21.4018   -6.5648   23.8217 C   0  0  0  0  0  0
  -21.3657   -5.6800   24.9180 C   0  0  0  0  0  0
  -21.6038   -4.3060   24.7236 C   0  0  0  0  0  0
  -21.8814   -3.8152   23.4356 C   0  0  0  0  0  0
  -21.9196   -4.6966   22.3407 C   0  0  0  0  0  0
  -22.7792  -13.5203   21.1890 C   0  0  0  0  0  0
  -22.1658   -4.2149   21.0982 F   0  0  0  0  0  0
  -21.5625   -3.4543   25.7749 F   0  0  0  0  0  0
  -29.9361  -13.7272   20.3589 N   0  0  0  0  0  0
  -26.2875  -12.9460   20.3244 N   0  0  0  0  0  0
  -25.9338  -11.6589   20.5754 N   0  0  0  0  0  0
  -22.0442  -12.8192   22.0440 N   0  0  0  0  0  0
  -25.4087  -15.1955   20.4142 N   0  0  0  0  0  0
  -31.7482  -15.0341   20.1919 O   0  0  0  0  0  0
  -21.6642   -6.8889   21.4249 O   0  0  0  0  0  0
  -22.3477  -14.5509   20.6738 O   0  0  0  0  0  0
  -24.6459  -31.8410   23.1869 C   0  0  0  0  0  0
  -25.9224  -32.4677   23.8273 C   0  0  1  0  0  0
  -27.2148  -27.1053   20.1666 C   0  0  0  0  0  0
  -25.5963  -33.8480   24.2178 N   0  0  0  0  0  0
  -23.4522  -30.4567   21.5336 C   0  0  2  0  0  0
  -24.9038  -28.8795   20.1118 C   0  0  0  0  0  0
  -22.7589  -29.4502   22.4861 C   0  0  0  0  0  0
  -18.0314  -28.1378   22.8468 C   0  0  0  0  0  0
  -24.1493  -36.7256   23.2641 C   0  0  0  0  0  0
  -26.0085  -30.7052   21.3911 C   0  0  0  0  0  0
  -26.0821  -29.3124   20.7355 C   0  0  0  0  0  0
  -27.2412  -28.4432   20.7432 C   0  0  0  0  0  0
  -26.0154  -26.7849   19.4961 C   0  0  0  0  0  0
  -24.8855  -27.6297   19.4731 C   0  0  0  0  0  0
  -23.6824  -29.7865   20.1529 C   0  0  0  0  0  0
  -25.4120  -36.3021   24.0308 C   0  0  1  0  0  0
  -20.5921  -28.3708   23.1228 C   0  0  2  0  0  0
  -20.6796  -26.9404   22.5404 C   0  0  0  0  0  0
  -19.5772  -26.6373   21.5207 C   0  0  0  0  0  0
  -18.1949  -26.7923   22.1617 C   0  0  0  0  0  0
  -19.1570  -28.8866   23.2841 C   0  0  0  0  0  0
  -18.9494  -30.1467   23.8859 C   0  0  0  0  0  0
  -17.6489  -30.6587   24.0543 C   0  0  0  0  0  0
  -25.9076  -34.9394   23.5052 C   0  0  0  0  0  0
  -16.5377  -29.9067   23.6333 C   0  0  0  0  0  0
  -16.7301  -28.6486   23.0350 C   0  0  0  0  0  0
  -26.4533  -31.6552   25.0726 C   0  0  0  0  0  0
  -25.3707  -31.3744   26.1419 C   0  0  0  0  0  0
  -27.0414  -30.2945   24.6333 C   0  0  0  0  0  0
  -27.6051  -32.4332   25.7526 C   0  0  0  0  0  0
  -27.5577  -37.1775   24.8457 C   0  0  0  0  0  0
  -21.4282  -29.3032   22.3611 N   0  0  0  0  0  0
  -26.4283  -37.3730   23.9410 N   0  0  0  0  0  0
  -24.7217  -31.0225   22.0929 N   0  0  0  0  0  0
  -23.4211  -28.8047   23.3030 O   0  0  0  0  0  0
  -28.2515  -26.0935   20.1936 O   0  0  0  0  0  0
  -26.5673  -34.8892   22.4640 O   0  0  0  0  0  0
  -23.5569  -32.1311   23.7067 O   0  0  0  0  0  0
  -30.5822  -22.9154   21.1587 C   0  0  0  0  0  0
  -29.6189  -22.0996   20.5346 C   0  0  0  0  0  0
  -30.0757  -20.6711   20.2461 C   0  0  0  0  0  0
  -31.4865  -20.6130   20.0106 C   0  0  0  0  0  0
  -32.3483  -21.5445   20.6486 C   0  0  0  0  0  0
  -32.4820  -20.3265   17.6820 C   0  0  0  0  0  0
  -34.4465  -23.3270   19.0790 C   0  0  0  0  0  0
  -34.3232  -21.4146   23.2819 C   0  0  0  0  0  0
  -35.6988  -19.9088   21.7825 C   0  0  0  0  0  0
  -28.3331  -23.0327   20.1290 C   0  0  0  0  0  0
  -29.3670  -19.1638   20.1669 C   0  0  0  0  0  0
  -32.0703  -19.6261   18.9854 C   0  0  0  0  0  0
  -34.6612  -22.7084   20.4703 C   0  0  0  0  0  0
  -30.1629  -17.7278   20.7108 C   0  0  0  0  0  0
  -27.9614  -24.6249   20.6684 C   0  0  0  0  0  0
  -33.8831  -21.3849   20.7105 C   0  0  1  0  0  0
  -34.3343  -20.5976   21.9769 C   0  0  0  0  0  0
  -31.8695  -22.5998   21.3231 N   0  0  0  0  0  0
  -29.7664  -16.1922   20.5287 N   0  0  0  0  0  0
  -31.4695  -12.7867   19.1754 H   0  0  0  0  0  0
  -30.4432  -11.6748   20.0383 H   0  0  0  0  0  0
  -29.8464  -11.7411   17.5868 H   0  0  0  0  0  0
  -29.5909  -13.4668   17.6846 H   0  0  0  0  0  0
  -27.9715  -11.2717   19.0054 H   0  0  0  0  0  0
  -27.3876  -12.4189   17.8267 H   0  0  0  0  0  0
  -27.5811  -14.2467   19.3935 H   0  0  0  0  0  0
  -28.7696  -12.3404   21.4683 H   0  0  0  0  0  0
  -28.3633  -14.0215   21.7349 H   0  0  0  0  0  0
  -25.2779   -9.5681   22.4782 H   0  0  0  0  0  0
  -24.0007   -7.4636   22.7491 H   0  0  0  0  0  0
  -21.0855   -8.8803   19.8958 H   0  0  0  0  0  0
  -22.3735  -10.9692   19.6173 H   0  0  0  0  0  0
  -21.2009   -7.6157   23.9724 H   0  0  0  0  0  0
  -21.1477   -6.0529   25.9083 H   0  0  0  0  0  0
  -22.0591   -2.7614   23.2861 H   0  0  0  0  0  0
  -22.4063  -11.9846   22.4819 H   0  0  0  0  0  0
  -21.1058  -13.1213   22.2643 H   0  0  0  0  0  0
  -24.6347  -15.8422   20.5226 H   0  0  0  0  0  0
  -26.2478  -15.6413   20.0678 H   0  0  0  0  0  0
  -26.7286  -32.5272   23.0999 H   0  0  0  0  0  0
  -25.0041  -33.9584   25.0275 H   0  0  0  0  0  0
  -22.7567  -31.2827   21.3778 H   0  0  0  0  0  0
  -23.3759  -35.9588   23.3276 H   0  0  0  0  0  0
  -24.3581  -36.8930   22.2065 H   0  0  0  0  0  0
  -23.7251  -37.6433   23.6707 H   0  0  0  0  0  0
  -26.1620  -31.4565   20.6150 H   0  0  0  0  0  0
  -26.8786  -30.7596   22.0339 H   0  0  0  0  0  0
  -28.1412  -28.7691   21.2472 H   0  0  0  0  0  0
  -25.9341  -25.8308   18.9952 H   0  0  0  0  0  0
  -23.9904  -27.2957   18.9644 H   0  0  0  0  0  0
  -23.8207  -30.5622   19.3987 H   0  0  0  0  0  0
  -22.7965  -29.2299   19.8431 H   0  0  0  0  0  0
  -25.1296  -36.1846   25.0799 H   0  0  0  0  0  0
  -21.0004  -28.3318   24.1349 H   0  0  0  0  0  0
  -20.5703  -26.2312   23.3628 H   0  0  0  0  0  0
  -21.6660  -26.7419   22.1189 H   0  0  0  0  0  0
  -19.6932  -25.6280   21.1244 H   0  0  0  0  0  0
  -19.6717  -27.3177   20.6733 H   0  0  0  0  0  0
  -17.4219  -26.6676   21.4020 H   0  0  0  0  0  0
  -18.0343  -26.0070   22.9017 H   0  0  0  0  0  0
  -19.7984  -30.7276   24.2217 H   0  0  0  0  0  0
  -17.5058  -31.6266   24.5154 H   0  0  0  0  0  0
  -15.5377  -30.2949   23.7706 H   0  0  0  0  0  0
  -15.8707  -28.0805   22.7064 H   0  0  0  0  0  0
  -24.5914  -30.7054   25.7754 H   0  0  0  0  0  0
  -24.8856  -32.2917   26.4765 H   0  0  0  0  0  0
  -25.7991  -30.8989   27.0257 H   0  0  0  0  0  0
  -26.3047  -29.6649   24.1330 H   0  0  0  0  0  0
  -27.4003  -29.7262   25.4926 H   0  0  0  0  0  0
  -27.8962  -30.4168   23.9681 H   0  0  0  0  0  0
  -27.2632  -33.3668   26.2005 H   0  0  0  0  0  0
  -28.3916  -32.6833   25.0395 H   0  0  0  0  0  0
  -28.0649  -31.8519   26.5528 H   0  0  0  0  0  0
  -28.2540  -38.0118   24.7520 H   0  0  0  0  0  0
  -28.1128  -36.2641   24.6255 H   0  0  0  0  0  0
  -27.2299  -37.1375   25.8860 H   0  0  0  0  0  0
  -20.9512  -29.8763   21.6789 H   0  0  0  0  0  0
  -26.0152  -38.2796   24.1436 H   0  0  0  0  0  0
  -30.3410  -23.9128   21.4914 H   0  0  0  0  0  0
  -32.8781  -19.6092   16.9637 H   0  0  0  0  0  0
  -33.2453  -21.0839   17.8346 H   0  0  0  0  0  0
  -31.6245  -20.8150   17.2179 H   0  0  0  0  0  0
  -34.9812  -24.2724   18.9864 H   0  0  0  0  0  0
  -33.3917  -23.5251   18.8840 H   0  0  0  0  0  0
  -34.8185  -22.6682   18.2942 H   0  0  0  0  0  0
  -34.5965  -20.7919   24.1346 H   0  0  0  0  0  0
  -33.3327  -21.8192   23.4882 H   0  0  0  0  0  0
  -35.0260  -22.2472   23.2468 H   0  0  0  0  0  0
  -35.9380  -19.2684   22.6325 H   0  0  0  0  0  0
  -36.5102  -20.6301   21.6806 H   0  0  0  0  0  0
  -35.7030  -19.2753   20.8954 H   0  0  0  0  0  0
  -27.4818  -22.4191   20.4238 H   0  0  0  0  0  0
  -28.2861  -23.0413   19.0403 H   0  0  0  0  0  0
  -29.0823  -19.0191   19.1243 H   0  0  0  0  0  0
  -28.4197  -19.2413   20.7008 H   0  0  0  0  0  0
  -31.3476  -18.8847   18.6578 H   0  0  0  0  0  0
  -32.9013  -19.0641   19.4136 H   0  0  0  0  0  0
  -34.3975  -23.4430   21.2320 H   0  0  0  0  0  0
  -35.7299  -22.5298   20.5911 H   0  0  0  0  0  0
  -30.2242  -17.8516   21.7923 H   0  0  0  0  0  0
  -31.2087  -17.7468   20.4253 H   0  0  0  0  0  0
  -28.1859  -24.6398   21.7357 H   0  0  0  0  0  0
  -26.8730  -24.5909   20.6746 H   0  0  0  0  0  0
  -34.1791  -20.7624   19.8716 H   0  0  0  0  0  0
  -33.6185  -19.7836   22.1046 H   0  0  0  0  0  0
  -28.7756  -16.0161   20.6075 H   0  0  0  0  0  0
  1 25  1  0  0  0
  1 30  2  0  0  0
  1 89  1  0  0  0
  2  3  1  0  0  0
  2 25  1  0  0  0
  2 90  1  0  0  0
  2 91  1  0  0  0
  3  4  1  0  0  0
  3 92  1  0  0  0
  3 93  1  0  0  0
  4  5  1  0  0  0
  4 94  1  0  0  0
  4 95  1  0  0  0
  5  6  1  0  0  0
  5 26  1  0  0  0
  5 96  1  0  0  0
  6 25  1  0  0  0
  6 97  1  0  0  0
  6 98  1  0  0  0
  7  8  2  0  0  0
  7 26  1  0  0  0
  7 29  1  0  0  0
  8  9  1  0  0  0
  8 22  1  0  0  0
  9 10  1  0  0  0
  9 27  2  0  0  0
 10 11  2  0  0  0
 10 15  1  0  0  0
 11 12  1  0  0  0
 11 99  1  0  0  0
 12 13  2  0  0  0
 12100  1  0  0  0
 13 14  1  0  0  0
 13 31  1  0  0  0
 14 15  2  0  0  0
 14101  1  0  0  0
 15102  1  0  0  0
 16 17  2  0  0  0
 16 21  1  0  0  0
 16 31  1  0  0  0
 17 18  1  0  0  0
 17103  1  0  0  0
 18 19  2  0  0  0
 18104  1  0  0  0
 19 20  1  0  0  0
 19 24  1  0  0  0
 20 21  2  0  0  0
 20105  1  0  0  0
 21 23  1  0  0  0
 22 28  1  0  0  0
 22 32  2  0  0  0
 26 27  1  0  0  0
 28106  1  0  0  0
 28107  1  0  0  0
 29108  1  0  0  0
 29109  1  0  0  0
 33 34  1  0  0  0
 33 66  1  0  0  0
 33 70  2  0  0  0
 34 36  1  0  0  0
 34 59  1  0  0  0
 34110  1  0  0  0
 35 44  2  0  0  0
 35 45  1  0  0  0
 35 68  1  0  0  0
 36 56  1  0  0  0
 36111  1  0  0  0
 37 39  1  0  0  0
 37 47  1  0  0  0
 37 66  1  0  0  0
 37112  1  0  0  0
 38 43  2  0  0  0
 38 46  1  0  0  0
 38 47  1  0  0  0
 39 64  1  0  0  0
 39 67  2  0  0  0
 40 52  1  0  0  0
 40 53  2  0  0  0
 40 58  1  0  0  0
 41113  1  0  0  0
 41114  1  0  0  0
 41115  1  0  0  0
 41 48  1  0  0  0
 42 43  1  0  0  0
 42 66  1  0  0  0
 42116  1  0  0  0
 42117  1  0  0  0
 43 44  1  0  0  0
 44118  1  0  0  0
 45 46  2  0  0  0
 45119  1  0  0  0
 46120  1  0  0  0
 47121  1  0  0  0
 47122  1  0  0  0
 48 56  1  0  0  0
 48 65  1  0  0  0
 48123  1  0  0  0
 49 50  1  0  0  0
 49 53  1  0  0  0
 49 64  1  0  0  0
 49124  1  0  0  0
 50 51  1  0  0  0
 50125  1  0  0  0
 50126  1  0  0  0
 51 52  1  0  0  0
 51127  1  0  0  0
 51128  1  0  0  0
 52129  1  0  0  0
 52130  1  0  0  0
 53 54  1  0  0  0
 54 55  2  0  0  0
 54131  1  0  0  0
 55 57  1  0  0  0
 55132  1  0  0  0
 56 69  2  0  0  0
 57 58  2  0  0  0
 57133  1  0  0  0
 58134  1  0  0  0
 59 60  1  0  0  0
 59 61  1  0  0  0
 59 62  1  0  0  0
 60135  1  0  0  0
 60136  1  0  0  0
 60137  1  0  0  0
 61138  1  0  0  0
 61139  1  0  0  0
 61140  1  0  0  0
 62141  1  0  0  0
 62142  1  0  0  0
 62143  1  0  0  0
 63 65  1  0  0  0
 63144  1  0  0  0
 63145  1  0  0  0
 63146  1  0  0  0
 64147  1  0  0  0
 65148  1  0  0  0
 68 85  1  0  0  0
 71 72  2  0  0  0
 71 88  1  0  0  0
 71149  1  0  0  0
 72 73  1  0  0  0
 72 80  1  0  0  0
 73 74  2  0  0  0
 73 81  1  0  0  0
 74 75  1  0  0  0
 74 82  1  0  0  0
 75 86  1  0  0  0
 75 88  2  0  0  0
 76 82  1  0  0  0
 76150  1  0  0  0
 76151  1  0  0  0
 76152  1  0  0  0
 77 83  1  0  0  0
 77153  1  0  0  0
 77154  1  0  0  0
 77155  1  0  0  0
 78156  1  0  0  0
 78157  1  0  0  0
 78158  1  0  0  0
 78 87  1  0  0  0
 79 87  1  0  0  0
 79159  1  0  0  0
 79160  1  0  0  0
 79161  1  0  0  0
 80 85  1  0  0  0
 80162  1  0  0  0
 80163  1  0  0  0
 81 84  1  0  0  0
 81164  1  0  0  0
 81165  1  0  0  0
 82166  1  0  0  0
 82167  1  0  0  0
 83168  1  0  0  0
 83169  1  0  0  0
 83 86  1  0  0  0
 84 89  1  0  0  0
 84170  1  0  0  0
 84171  1  0  0  0
 85172  1  0  0  0
 85173  1  0  0  0
 86 87  1  0  0  0
 86174  1  0  0  0
 87175  1  0  0  0
 89176  1  0  0  0
M  ISO  4   1 100  68 101  85 101  89 100
M  END
> <chiral flag>
0

> <version>
0

> <s_m_source_file>
/data/baiqing/PycharmProjects/Reinvent-master-3.2/result/LINK_invent/BTK/process_docking_weight1_custom_sum_contain_oxygen_bond_distance_aromatic_linkinvent_7_9_3/rearranged_h_0092.sdf

> <i_m_source_file_index>
65

> <r_mmod_Potential_Energy-OPLS-2005>
710.022888183594

> <r_mmod_Stretch_Energy-OPLS-2005>
331.980651855469

> <r_mmod_Bend_Energy-OPLS-2005>
361.651824951172

> <r_mmod_Torsional_Energy-OPLS-2005>
326.451080322266

> <r_mmod_Improper_Torsional_Energy-OPLS-2005>
5.51143264770508

> <r_mmod_Van_der_Waal_Energy-OPLS-2005>
147.168930053711

> <r_mmod_Electrostatic_Energy-OPLS-2005>
-463.785797119141

> <r_mmod_Solvation_Energy-OPLS-2005>
-221.797836303711

> <b_mmod_Minimization_Converged-OPLS-2005>
0

> <r_mmod_RMS_Derivative-OPLS-2005>
1.89448177814484

$$$$
67
                    3D
 Structure written by MMmdl.
161169  0  0  1  0            999 V2000
  -30.6753  -14.5021   20.7046 C   0  0  0  0  0  0
  -30.4090  -12.3483   19.4669 C   0  0  0  0  0  0
  -29.5020  -12.5245   18.2321 C   0  0  0  0  0  0
  -28.0250  -12.3405   18.6266 C   0  0  0  0  0  0
  -27.6448  -13.2054   19.8567 C   0  0  2  0  0  0
  -28.6588  -13.0136   21.0007 C   0  0  0  0  0  0
  -25.2477  -13.8136   20.5654 C   0  0  0  0  0  0
  -24.1750  -13.0380   20.9209 C   0  0  0  0  0  0
  -24.6307  -11.6866   20.8716 C   0  0  0  0  0  0
  -23.9013  -10.4246   21.0385 C   0  0  0  0  0  0
  -24.3583   -9.4176   21.9170 C   0  0  0  0  0  0
  -23.6241   -8.2227   22.0772 C   0  0  0  0  0  0
  -22.4212   -8.0278   21.3581 C   0  0  0  0  0  0
  -21.9847   -9.0236   20.4675 C   0  0  0  0  0  0
  -22.7190  -10.2100   20.3039 C   0  0  0  0  0  0
  -21.6825   -6.0771   22.5339 C   0  0  0  0  0  0
  -21.4009   -6.5658   23.8282 C   0  0  0  0  0  0
  -21.3654   -5.6803   24.9240 C   0  0  0  0  0  0
  -21.6017   -4.3065   24.7260 C   0  0  0  0  0  0
  -21.8790   -3.8171   23.4369 C   0  0  0  0  0  0
  -21.9159   -4.7003   22.3445 C   0  0  0  0  0  0
  -22.7782  -13.5211   21.1857 C   0  0  0  0  0  0
  -22.1617   -4.2183   21.1027 F   0  0  0  0  0  0
  -21.5598   -3.4542   25.7765 F   0  0  0  0  0  0
  -30.0052  -13.3273   20.4956 N   0  0  0  0  0  0
  -26.2871  -12.9302   20.3165 N   0  0  0  0  0  0
  -25.9186  -11.6454   20.5574 N   0  0  0  0  0  0
  -22.0398  -12.8270   22.0476 N   0  0  0  0  0  0
  -25.4055  -15.1862   20.4111 N   0  0  0  0  0  0
  -31.7006  -14.7883   20.0792 O   0  0  0  0  0  0
  -21.6560   -6.8900   21.4296 O   0  0  0  0  0  0
  -22.3493  -14.5520   20.6694 O   0  0  0  0  0  0
  -24.6192  -31.8696   23.2154 C   0  0  0  0  0  0
  -25.9101  -32.4838   23.8422 C   0  0  1  0  0  0
  -27.2323  -27.4013   20.0924 C   0  0  0  0  0  0
  -25.5976  -33.8621   24.2368 N   0  0  0  0  0  0
  -23.4078  -30.4967   21.5516 C   0  0  2  0  0  0
  -24.8548  -28.9603   20.1181 C   0  0  0  0  0  0
  -22.7429  -29.4675   22.4972 C   0  0  0  0  0  0
  -18.0287  -28.1418   22.8467 C   0  0  0  0  0  0
  -24.1487  -36.7265   23.2624 C   0  0  0  0  0  0
  -25.9453  -30.8197   21.3821 C   0  0  0  0  0  0
  -26.0196  -29.4563   20.7183 C   0  0  0  0  0  0
  -27.2091  -28.6836   20.7008 C   0  0  0  0  0  0
  -26.0508  -26.9425   19.4633 C   0  0  0  0  0  0
  -24.8686  -27.7044   19.4880 C   0  0  0  0  0  0
  -23.6237  -29.8362   20.1638 C   0  0  0  0  0  0
  -25.4124  -36.3089   24.0313 C   0  0  1  0  0  0
  -20.5878  -28.3697   23.1306 C   0  0  2  0  0  0
  -20.6774  -26.9440   22.5381 C   0  0  0  0  0  0
  -19.5748  -26.6429   21.5184 C   0  0  0  0  0  0
  -18.1939  -26.7968   22.1595 C   0  0  0  0  0  0
  -19.1529  -28.8874   23.2890 C   0  0  0  0  0  0
  -18.9452  -30.1478   23.8917 C   0  0  0  0  0  0
  -17.6441  -30.6614   24.0584 C   0  0  0  0  0  0
  -25.9065  -34.9461   23.5122 C   0  0  0  0  0  0
  -16.5353  -29.9120   23.6335 C   0  0  0  0  0  0
  -16.7266  -28.6536   23.0344 C   0  0  0  0  0  0
  -26.4528  -31.6633   25.0764 C   0  0  0  0  0  0
  -25.3787  -31.3738   26.1502 C   0  0  0  0  0  0
  -27.0374  -30.3062   24.6209 C   0  0  0  0  0  0
  -27.6139  -32.4327   25.7511 C   0  0  0  0  0  0
  -27.5591  -37.1805   24.8485 C   0  0  0  0  0  0
  -21.4148  -29.3056   22.3699 N   0  0  0  0  0  0
  -26.4320  -37.3781   23.9407 N   0  0  0  0  0  0
  -24.6750  -31.0759   22.1077 N   0  0  0  0  0  0
  -23.4183  -28.8173   23.3001 O   0  0  0  0  0  0
  -28.3878  -26.6335   20.1430 O   0  0  0  0  0  0
  -26.5548  -34.8917   22.4640 O   0  0  0  0  0  0
  -23.5372  -32.1466   23.7537 O   0  0  0  0  0  0
  -30.0374  -17.8303   20.9534 C   0  0  0  0  0  0
  -29.8154  -16.1209   23.9312 C   0  0  0  0  0  0
  -28.8480  -16.8338   22.9875 C   0  0  0  0  0  0
  -30.4687  -15.0195   23.0936 C   0  0  0  0  0  0
  -29.3471  -16.5522   21.5442 C   0  0  2  0  0  0
  -29.1302  -19.0838   20.7149 C   0  0  0  0  0  0
  -29.7949  -20.3817   20.1476 C   0  0  0  0  0  0
  -29.0396  -21.7243   20.4466 C   0  0  0  0  0  0
  -29.7519  -22.9792   19.8539 C   0  0  0  0  0  0
  -29.4153  -24.3777   20.4733 C   0  0  0  0  0  0
  -28.3485  -25.2404   19.7437 C   0  0  0  0  0  0
  -30.1768  -15.3122   21.6821 N   0  0  0  0  0  0
  -31.2434  -17.8821   20.7048 O   0  0  0  0  0  0
  -31.4573  -12.4524   19.1890 H   0  0  0  0  0  0
  -30.3072  -11.3358   19.8643 H   0  0  0  0  0  0
  -29.7781  -11.8089   17.4591 H   0  0  0  0  0  0
  -29.6527  -13.5196   17.8076 H   0  0  0  0  0  0
  -27.8772  -11.2856   18.8609 H   0  0  0  0  0  0
  -27.3720  -12.5587   17.7792 H   0  0  0  0  0  0
  -27.6796  -14.2467   19.5360 H   0  0  0  0  0  0
  -28.6315  -11.9890   21.3708 H   0  0  0  0  0  0
  -28.3448  -13.6416   21.8346 H   0  0  0  0  0  0
  -25.2719   -9.5632   22.4759 H   0  0  0  0  0  0
  -23.9936   -7.4604   22.7473 H   0  0  0  0  0  0
  -21.0780   -8.8752   19.8974 H   0  0  0  0  0  0
  -22.3647  -10.9636   19.6150 H   0  0  0  0  0  0
  -21.2028   -7.6167   23.9818 H   0  0  0  0  0  0
  -21.1491   -6.0530   25.9158 H   0  0  0  0  0  0
  -22.0552   -2.7622   23.2878 H   0  0  0  0  0  0
  -22.3919  -11.9951   22.4961 H   0  0  0  0  0  0
  -21.1031  -13.1383   22.2609 H   0  0  0  0  0  0
  -24.6100  -15.8072   20.5168 H   0  0  0  0  0  0
  -26.2212  -15.6514   20.0352 H   0  0  0  0  0  0
  -26.7155  -32.5527   23.1166 H   0  0  0  0  0  0
  -25.0334  -33.9809   25.0643 H   0  0  0  0  0  0
  -22.6941  -31.3109   21.4172 H   0  0  0  0  0  0
  -23.3772  -35.9586   23.3335 H   0  0  0  0  0  0
  -24.3582  -36.8832   22.2038 H   0  0  0  0  0  0
  -23.7219  -37.6472   23.6595 H   0  0  0  0  0  0
  -26.0742  -31.5908   20.6206 H   0  0  0  0  0  0
  -26.8258  -30.8619   22.0076 H   0  0  0  0  0  0
  -28.1067  -29.0646   21.1713 H   0  0  0  0  0  0
  -26.0120  -25.9941   18.9449 H   0  0  0  0  0  0
  -23.9776  -27.3222   19.0124 H   0  0  0  0  0  0
  -23.7531  -30.6214   19.4152 H   0  0  0  0  0  0
  -22.7425  -29.2720   19.8528 H   0  0  0  0  0  0
  -25.1303  -36.1961   25.0801 H   0  0  0  0  0  0
  -20.9983  -28.3272   24.1421 H   0  0  0  0  0  0
  -20.5706  -26.2301   23.3558 H   0  0  0  0  0  0
  -21.6646  -26.7511   22.1157 H   0  0  0  0  0  0
  -19.6904  -25.6337   21.1216 H   0  0  0  0  0  0
  -19.6707  -27.3230   20.6708 H   0  0  0  0  0  0
  -17.4203  -26.6722   21.4016 H   0  0  0  0  0  0
  -18.0364  -26.0129   22.9001 H   0  0  0  0  0  0
  -19.7927  -30.7302   24.2313 H   0  0  0  0  0  0
  -17.5002  -31.6292   24.5173 H   0  0  0  0  0  0
  -15.5343  -30.3013   23.7694 H   0  0  0  0  0  0
  -15.8668  -28.0879   22.7054 H   0  0  0  0  0  0
  -24.5955  -30.7106   25.7813 H   0  0  0  0  0  0
  -24.8980  -32.2895   26.4950 H   0  0  0  0  0  0
  -25.8132  -30.8879   27.0246 H   0  0  0  0  0  0
  -26.2951  -29.6805   24.1246 H   0  0  0  0  0  0
  -27.4104  -29.7340   25.4715 H   0  0  0  0  0  0
  -27.8798  -30.4369   23.9413 H   0  0  0  0  0  0
  -27.2823  -33.3611   26.2159 H   0  0  0  0  0  0
  -28.3919  -32.6923   25.0320 H   0  0  0  0  0  0
  -28.0844  -31.8395   26.5358 H   0  0  0  0  0  0
  -28.2651  -38.0072   24.7508 H   0  0  0  0  0  0
  -28.1049  -36.2598   24.6354 H   0  0  0  0  0  0
  -27.2286  -37.1513   25.8889 H   0  0  0  0  0  0
  -20.9332  -29.8767   21.6905 H   0  0  0  0  0  0
  -26.0193  -38.2853   24.1426 H   0  0  0  0  0  0
  -29.3157  -15.7316   24.8244 H   0  0  0  0  0  0
  -30.5903  -16.8061   24.2861 H   0  0  0  0  0  0
  -28.7893  -17.8951   23.2420 H   0  0  0  0  0  0
  -27.8367  -16.4381   23.1126 H   0  0  0  0  0  0
  -30.0703  -14.0396   23.3710 H   0  0  0  0  0  0
  -31.5438  -14.9819   23.2717 H   0  0  0  0  0  0
  -28.4910  -16.3312   20.9081 H   0  0  0  0  0  0
  -28.6695  -19.3369   21.6670 H   0  0  0  0  0  0
  -28.3080  -18.7902   20.0620 H   0  0  0  0  0  0
  -29.9029  -20.2707   19.0699 H   0  0  0  0  0  0
  -30.8111  -20.4784   20.5372 H   0  0  0  0  0  0
  -28.9457  -21.8364   21.5284 H   0  0  0  0  0  0
  -28.0198  -21.6691   20.0569 H   0  0  0  0  0  0
  -30.8268  -22.8376   19.9835 H   0  0  0  0  0  0
  -29.6062  -23.0029   18.7709 H   0  0  0  0  0  0
  -29.1387  -24.2738   21.5246 H   0  0  0  0  0  0
  -30.3446  -24.9515   20.4867 H   0  0  0  0  0  0
  -28.4980  -25.1975   18.6646 H   0  0  0  0  0  0
  -27.3823  -24.7783   19.9475 H   0  0  0  0  0  0
  1 25  1  0  0  0
  1 30  2  0  0  0
  1 82  1  0  0  0
  2  3  1  0  0  0
  2 25  1  0  0  0
  2 84  1  0  0  0
  2 85  1  0  0  0
  3  4  1  0  0  0
  3 86  1  0  0  0
  3 87  1  0  0  0
  4  5  1  0  0  0
  4 88  1  0  0  0
  4 89  1  0  0  0
  5  6  1  0  0  0
  5 26  1  0  0  0
  5 90  1  0  0  0
  6 25  1  0  0  0
  6 91  1  0  0  0
  6 92  1  0  0  0
  7  8  2  0  0  0
  7 26  1  0  0  0
  7 29  1  0  0  0
  8  9  1  0  0  0
  8 22  1  0  0  0
  9 10  1  0  0  0
  9 27  2  0  0  0
 10 11  2  0  0  0
 10 15  1  0  0  0
 11 12  1  0  0  0
 11 93  1  0  0  0
 12 13  2  0  0  0
 12 94  1  0  0  0
 13 14  1  0  0  0
 13 31  1  0  0  0
 14 15  2  0  0  0
 14 95  1  0  0  0
 15 96  1  0  0  0
 16 17  2  0  0  0
 16 21  1  0  0  0
 16 31  1  0  0  0
 17 18  1  0  0  0
 17 97  1  0  0  0
 18 19  2  0  0  0
 18 98  1  0  0  0
 19 20  1  0  0  0
 19 24  1  0  0  0
 20 21  2  0  0  0
 20 99  1  0  0  0
 21 23  1  0  0  0
 22 28  1  0  0  0
 22 32  2  0  0  0
 26 27  1  0  0  0
 28100  1  0  0  0
 28101  1  0  0  0
 29102  1  0  0  0
 29103  1  0  0  0
 33 34  1  0  0  0
 33 66  1  0  0  0
 33 70  2  0  0  0
 34 36  1  0  0  0
 34 59  1  0  0  0
 34104  1  0  0  0
 35 44  2  0  0  0
 35 45  1  0  0  0
 35 68  1  0  0  0
 36 56  1  0  0  0
 36105  1  0  0  0
 37 39  1  0  0  0
 37 47  1  0  0  0
 37 66  1  0  0  0
 37106  1  0  0  0
 38 43  2  0  0  0
 38 46  1  0  0  0
 38 47  1  0  0  0
 39 64  1  0  0  0
 39 67  2  0  0  0
 40 52  1  0  0  0
 40 53  2  0  0  0
 40 58  1  0  0  0
 41107  1  0  0  0
 41108  1  0  0  0
 41109  1  0  0  0
 41 48  1  0  0  0
 42 43  1  0  0  0
 42 66  1  0  0  0
 42110  1  0  0  0
 42111  1  0  0  0
 43 44  1  0  0  0
 44112  1  0  0  0
 45 46  2  0  0  0
 45113  1  0  0  0
 46114  1  0  0  0
 47115  1  0  0  0
 47116  1  0  0  0
 48 56  1  0  0  0
 48 65  1  0  0  0
 48117  1  0  0  0
 49 50  1  0  0  0
 49 53  1  0  0  0
 49 64  1  0  0  0
 49118  1  0  0  0
 50 51  1  0  0  0
 50119  1  0  0  0
 50120  1  0  0  0
 51 52  1  0  0  0
 51121  1  0  0  0
 51122  1  0  0  0
 52123  1  0  0  0
 52124  1  0  0  0
 53 54  1  0  0  0
 54 55  2  0  0  0
 54125  1  0  0  0
 55 57  1  0  0  0
 55126  1  0  0  0
 56 69  2  0  0  0
 57 58  2  0  0  0
 57127  1  0  0  0
 58128  1  0  0  0
 59 60  1  0  0  0
 59 61  1  0  0  0
 59 62  1  0  0  0
 60129  1  0  0  0
 60130  1  0  0  0
 60131  1  0  0  0
 61132  1  0  0  0
 61133  1  0  0  0
 61134  1  0  0  0
 62135  1  0  0  0
 62136  1  0  0  0
 62137  1  0  0  0
 63 65  1  0  0  0
 63138  1  0  0  0
 63139  1  0  0  0
 63140  1  0  0  0
 64141  1  0  0  0
 65142  1  0  0  0
 68 81  1  0  0  0
 71 76  1  0  0  0
 71 83  2  0  0  0
 71 75  1  0  0  0
 72 73  1  0  0  0
 72 74  1  0  0  0
 72143  1  0  0  0
 72144  1  0  0  0
 73 75  1  0  0  0
 73145  1  0  0  0
 73146  1  0  0  0
 74 82  1  0  0  0
 74147  1  0  0  0
 74148  1  0  0  0
 75 82  1  0  0  0
 75149  1  0  0  0
 76 77  1  0  0  0
 76150  1  0  0  0
 76151  1  0  0  0
 77 78  1  0  0  0
 77152  1  0  0  0
 77153  1  0  0  0
 78 79  1  0  0  0
 78154  1  0  0  0
 78155  1  0  0  0
 79 80  1  0  0  0
 79156  1  0  0  0
 79157  1  0  0  0
 80 81  1  0  0  0
 80158  1  0  0  0
 80159  1  0  0  0
 81160  1  0  0  0
 81161  1  0  0  0
M  ISO  4   1 100  68 101  81 101  82 100
M  END
> <chiral flag>
0

> <version>
0

> <s_m_source_file>
/data/baiqing/PycharmProjects/Reinvent-master-3.2/result/LINK_invent/BTK/process_docking_weight1_custom_sum_contain_oxygen_bond_distance_aromatic_linkinvent_7_9_3/rearranged_h_0092.sdf

> <i_m_source_file_index>
66

> <r_mmod_Potential_Energy-OPLS-2005>
105.005157470703

> <r_mmod_Stretch_Energy-OPLS-2005>
52.6846961975098

> <r_mmod_Bend_Energy-OPLS-2005>
126.723976135254

> <r_mmod_Torsional_Energy-OPLS-2005>
302.718475341797

> <r_mmod_Improper_Torsional_Energy-OPLS-2005>
2.39744567871094

> <r_mmod_Van_der_Waal_Energy-OPLS-2005>
123.717178344727

> <r_mmod_Electrostatic_Energy-OPLS-2005>
-309.92626953125

> <r_mmod_Solvation_Energy-OPLS-2005>
-215.451919555664

> <b_mmod_Minimization_Converged-OPLS-2005>
0

> <r_mmod_RMS_Derivative-OPLS-2005>
6.72853422164917

$$$$
68
                    3D
 Structure written by MMmdl.
172180  0  0  1  0            999 V2000
  -31.1581  -13.1619   20.6353 C   0  0  0  0  0  0
  -30.8187  -13.6774   18.6633 C   0  0  0  0  0  0
  -29.9482  -15.4097   18.8882 C   0  0  0  0  0  0
  -27.9374  -15.3468   19.8308 C   0  0  0  0  0  0
  -27.4331  -13.4921   20.4928 C   0  0  2  0  0  0
  -28.7084  -12.1281   20.2126 C   0  0  0  0  0  0
  -25.0375  -13.8724   20.5923 C   0  0  0  0  0  0
  -24.0284  -13.0346   20.8985 C   0  0  0  0  0  0
  -24.5462  -11.7052   20.8545 C   0  0  0  0  0  0
  -23.8728  -10.4231   21.0268 C   0  0  0  0  0  0
  -24.3451   -9.4274   21.9085 C   0  0  0  0  0  0
  -23.6182   -8.2295   22.0667 C   0  0  0  0  0  0
  -22.4162   -8.0246   21.3505 C   0  0  0  0  0  0
  -21.9757   -9.0046   20.4450 C   0  0  0  0  0  0
  -22.6957  -10.1959   20.2870 C   0  0  0  0  0  0
  -21.6766   -6.0691   22.5310 C   0  0  0  0  0  0
  -21.3914   -6.5648   23.8221 C   0  0  0  0  0  0
  -21.3665   -5.6843   24.9207 C   0  0  0  0  0  0
  -21.6089   -4.3103   24.7303 C   0  0  0  0  0  0
  -21.8833   -3.8151   23.4406 C   0  0  0  0  0  0
  -21.9167   -4.6939   22.3445 C   0  0  0  0  0  0
  -22.6440  -13.4817   21.1945 C   0  0  0  0  0  0
  -22.1669   -4.2116   21.1023 F   0  0  0  0  0  0
  -21.5612   -3.4599   25.7813 F   0  0  0  0  0  0
  -30.3679  -12.5040   19.6870 N   0  0  0  0  0  0
  -26.1083  -13.0540   20.4266 N   0  0  0  0  0  0
  -25.8390  -11.7335   20.5709 N   0  0  0  0  0  0
  -21.9536  -12.7595   22.0610 N   0  0  0  0  0  0
  -25.1359  -15.2495   20.5137 N   0  0  0  0  0  0
  -32.1866  -13.8969   20.5841 O   0  0  0  0  0  0
  -21.6570   -6.8830   21.4254 O   0  0  0  0  0  0
  -22.2086  -14.5289   20.7192 O   0  0  0  0  0  0
  -24.6825  -31.8115   23.1662 C   0  0  0  0  0  0
  -25.9488  -32.4495   23.8146 C   0  0  1  0  0  0
  -27.0633  -26.8194   19.9559 C   0  0  0  0  0  0
  -25.6127  -33.8316   24.2067 N   0  0  0  0  0  0
  -23.4817  -30.4437   21.5290 C   0  0  2  0  0  0
  -24.8876  -28.8360   20.0861 C   0  0  0  0  0  0
  -22.7716  -29.4383   22.4758 C   0  0  0  0  0  0
  -18.0321  -28.1414   22.8461 C   0  0  0  0  0  0
  -24.1541  -36.7111   23.2650 C   0  0  0  0  0  0
  -26.0683  -30.5708   21.4005 C   0  0  0  0  0  0
  -26.1031  -29.1618   20.7010 C   0  0  0  0  0  0
  -27.1982  -28.1623   20.6226 C   0  0  0  0  0  0
  -25.8118  -26.6904   19.3439 C   0  0  0  0  0  0
  -24.7726  -27.6278   19.4046 C   0  0  0  0  0  0
  -23.7050  -29.7931   20.1435 C   0  0  0  0  0  0
  -25.4183  -36.2862   24.0288 C   0  0  1  0  0  0
  -20.5972  -28.3756   23.1182 C   0  0  2  0  0  0
  -20.6799  -26.9430   22.5390 C   0  0  0  0  0  0
  -19.5765  -26.6386   21.5212 C   0  0  0  0  0  0
  -18.1955  -26.7937   22.1630 C   0  0  0  0  0  0
  -19.1594  -28.8909   23.2812 C   0  0  0  0  0  0
  -18.9490  -30.1505   23.8839 C   0  0  0  0  0  0
  -17.6478  -30.6600   24.0556 C   0  0  0  0  0  0
  -25.9157  -34.9266   23.4971 C   0  0  0  0  0  0
  -16.5373  -29.9089   23.6341 C   0  0  0  0  0  0
  -16.7298  -28.6520   23.0344 C   0  0  0  0  0  0
  -26.4631  -31.6421   25.0699 C   0  0  0  0  0  0
  -25.3725  -31.3709   26.1334 C   0  0  0  0  0  0
  -27.0467  -30.2744   24.6475 C   0  0  0  0  0  0
  -27.6136  -32.4167   25.7546 C   0  0  0  0  0  0
  -27.5573  -37.1709   24.8494 C   0  0  0  0  0  0
  -21.4384  -29.3029   22.3548 N   0  0  0  0  0  0
  -26.4295  -37.3613   23.9421 N   0  0  0  0  0  0
  -24.7697  -30.9702   22.0834 N   0  0  0  0  0  0
  -23.4264  -28.7893   23.2942 O   0  0  0  0  0  0
  -27.9258  -25.5860   19.8048 O   0  0  0  0  0  0
  -26.5716  -34.8819   22.4539 O   0  0  0  0  0  0
  -23.5878  -32.1172   23.6683 O   0  0  0  0  0  0
  -28.4755  -14.5904   17.1114 C   0  0  0  0  0  0
  -28.4673  -13.7220   18.3418 C   0  0  0  0  0  0
  -26.5596  -14.7447   17.3621 C   0  0  0  0  0  0
  -26.1828  -12.0129   15.5076 C   0  0  0  0  0  0
  -23.7420  -11.4317   15.3415 C   0  0  0  0  0  0
  -29.6105  -14.2286   20.8150 C   0  0  0  0  0  0
  -25.1346  -14.8193   16.9098 C   0  0  0  0  0  0
  -24.4047  -13.4423   16.8267 C   0  0  0  0  0  0
  -27.4013  -20.7103   18.3065 C   0  0  0  0  0  0
  -27.9219  -18.9335   18.1435 C   0  0  0  0  0  0
  -28.0658  -22.3101   18.9922 C   0  0  0  0  0  0
  -27.3710  -17.4553   17.1667 C   0  0  0  0  0  0
  -27.4149  -24.0269   19.3219 C   0  0  0  0  0  0
  -24.7489  -12.5842   15.5720 C   0  0  0  0  0  0
  -27.5351  -15.7012   17.2514 N   0  0  0  0  0  0
  -27.1203  -13.5939   17.9252 N   0  3  0  0  0  0
  -30.4101  -13.3506   21.6205 N   0  0  0  0  0  0
  -31.8826  -13.7962   18.4201 H   0  0  0  0  0  0
  -30.6394  -13.2377   17.6818 H   0  0  0  0  0  0
  -30.0470  -16.0802   18.0362 H   0  0  0  0  0  0
  -30.6251  -16.0640   19.4348 H   0  0  0  0  0  0
  -27.9867  -15.9957   20.7140 H   0  0  0  0  0  0
  -27.1401  -15.9770   19.4422 H   0  0  0  0  0  0
  -27.3756  -13.5471   21.5812 H   0  0  0  0  0  0
  -28.3174  -11.4520   19.4516 H   0  0  0  0  0  0
  -28.7521  -11.4976   21.1045 H   0  0  0  0  0  0
  -25.2568   -9.5881   22.4648 H   0  0  0  0  0  0
  -23.9845   -7.4746   22.7482 H   0  0  0  0  0  0
  -21.0737   -8.8480   19.8691 H   0  0  0  0  0  0
  -22.3279  -10.9448   19.6025 H   0  0  0  0  0  0
  -21.1814   -7.6143   23.9645 H   0  0  0  0  0  0
  -21.1456   -6.0612   25.9096 H   0  0  0  0  0  0
  -22.0578   -2.7595   23.2957 H   0  0  0  0  0  0
  -22.3498  -11.9300   22.4826 H   0  0  0  0  0  0
  -21.0176  -13.0431   22.3272 H   0  0  0  0  0  0
  -24.3221  -15.8291   20.6832 H   0  0  0  0  0  0
  -26.0060  -15.7685   20.4544 H   0  0  0  0  0  0
  -26.7556  -32.4954   23.0843 H   0  0  0  0  0  0
  -25.0282  -33.9374   25.0225 H   0  0  0  0  0  0
  -22.7992  -31.2813   21.3758 H   0  0  0  0  0  0
  -23.3797  -35.9430   23.3233 H   0  0  0  0  0  0
  -24.3617  -36.8823   22.2070 H   0  0  0  0  0  0
  -23.7297  -37.6278   23.6759 H   0  0  0  0  0  0
  -26.2719  -31.3251   20.6409 H   0  0  0  0  0  0
  -26.9232  -30.6035   22.0611 H   0  0  0  0  0  0
  -28.1335  -28.3821   21.1207 H   0  0  0  0  0  0
  -25.5643  -25.7948   18.7985 H   0  0  0  0  0  0
  -23.8433  -27.3970   18.9059 H   0  0  0  0  0  0
  -23.8707  -30.5745   19.3998 H   0  0  0  0  0  0
  -22.7960  -29.2813   19.8202 H   0  0  0  0  0  0
  -25.1374  -36.1573   25.0758 H   0  0  0  0  0  0
  -21.0049  -28.3327   24.1313 H   0  0  0  0  0  0
  -20.5688  -26.2340   23.3621 H   0  0  0  0  0  0
  -21.6649  -26.7390   22.1174 H   0  0  0  0  0  0
  -19.6911  -25.6299   21.1238 H   0  0  0  0  0  0
  -19.6698  -27.3203   20.6759 H   0  0  0  0  0  0
  -17.4209  -26.6679   21.4050 H   0  0  0  0  0  0
  -18.0351  -26.0111   22.9059 H   0  0  0  0  0  0
  -19.7967  -30.7356   24.2159 H   0  0  0  0  0  0
  -17.5026  -31.6257   24.5203 H   0  0  0  0  0  0
  -15.5378  -30.2967   23.7712 H   0  0  0  0  0  0
  -15.8698  -28.0842   22.7055 H   0  0  0  0  0  0
  -24.5993  -30.6948   25.7666 H   0  0  0  0  0  0
  -24.8822  -32.2907   26.4540 H   0  0  0  0  0  0
  -25.7979  -30.9055   27.0236 H   0  0  0  0  0  0
  -26.3096  -29.6455   24.1473 H   0  0  0  0  0  0
  -27.3937  -29.7077   25.5122 H   0  0  0  0  0  0
  -27.9121  -30.3858   23.9949 H   0  0  0  0  0  0
  -27.2770  -33.3552   26.1960 H   0  0  0  0  0  0
  -28.4123  -32.6526   25.0502 H   0  0  0  0  0  0
  -28.0610  -31.8336   26.5605 H   0  0  0  0  0  0
  -28.2554  -38.0030   24.7476 H   0  0  0  0  0  0
  -28.1096  -36.2527   24.6397 H   0  0  0  0  0  0
  -27.2270  -37.1433   25.8895 H   0  0  0  0  0  0
  -20.9663  -29.8767   21.6702 H   0  0  0  0  0  0
  -26.0086  -38.2639   24.1417 H   0  0  0  0  0  0
  -29.3688  -14.8627   16.5703 H   0  0  0  0  0  0
  -26.2716  -11.2912   14.6963 H   0  0  0  0  0  0
  -26.4839  -11.4968   16.4242 H   0  0  0  0  0  0
  -26.9262  -12.7888   15.3026 H   0  0  0  0  0  0
  -23.6048  -10.8748   16.2630 H   0  0  0  0  0  0
  -24.0639  -10.7191   14.5701 H   0  0  0  0  0  0
  -22.7618  -11.7901   15.0306 H   0  0  0  0  0  0
  -30.0673  -15.2076   21.0726 H   0  0  0  0  0  0
  -29.0290  -14.4832   21.7014 H   0  0  0  0  0  0
  -25.1720  -15.2677   15.9183 H   0  0  0  0  0  0
  -24.6167  -15.5217   17.5608 H   0  0  0  0  0  0
  -23.3336  -13.6340   16.7859 H   0  0  0  0  0  0
  -24.5338  -12.8928   17.7578 H   0  0  0  0  0  0
  -27.0621  -20.9948   17.3096 H   0  0  0  0  0  0
  -26.4578  -20.5832   18.8400 H   0  0  0  0  0  0
  -27.9037  -18.5790   19.1749 H   0  0  0  0  0  0
  -28.9823  -18.9892   17.8953 H   0  0  0  0  0  0
  -28.9798  -22.4630   18.4109 H   0  0  0  0  0  0
  -28.4593  -22.0114   19.9687 H   0  0  0  0  0  0
  -27.6284  -17.6941   16.1321 H   0  0  0  0  0  0
  -26.2950  -17.6110   17.1909 H   0  0  0  0  0  0
  -26.6645  -23.8347   20.0998 H   0  0  0  0  0  0
  -26.8329  -24.2127   18.4169 H   0  0  0  0  0  0
  -24.6313  -13.2496   14.7196 H   0  0  0  0  0  0
  -26.5435  -12.8269   18.2403 H   0  0  0  0  0  0
  -30.8648  -13.7674   22.4215 H   0  0  0  0  0  0
  1 25  1  0  0  0
  1 30  2  0  0  0
  1 87  1  0  0  0
  2  3  1  0  0  0
  2 25  1  0  0  0
  2 88  1  0  0  0
  2 89  1  0  0  0
  3  4  1  0  0  0
  3 90  1  0  0  0
  3 91  1  0  0  0
  4  5  1  0  0  0
  4 92  1  0  0  0
  4 93  1  0  0  0
  5  6  1  0  0  0
  5 26  1  0  0  0
  5 94  1  0  0  0
  6 25  1  0  0  0
  6 95  1  0  0  0
  6 96  1  0  0  0
  7  8  2  0  0  0
  7 26  1  0  0  0
  7 29  1  0  0  0
  8  9  1  0  0  0
  8 22  1  0  0  0
  9 10  1  0  0  0
  9 27  2  0  0  0
 10 11  2  0  0  0
 10 15  1  0  0  0
 11 12  1  0  0  0
 11 97  1  0  0  0
 12 13  2  0  0  0
 12 98  1  0  0  0
 13 14  1  0  0  0
 13 31  1  0  0  0
 14 15  2  0  0  0
 14 99  1  0  0  0
 15100  1  0  0  0
 16 17  2  0  0  0
 16 21  1  0  0  0
 16 31  1  0  0  0
 17 18  1  0  0  0
 17101  1  0  0  0
 18 19  2  0  0  0
 18102  1  0  0  0
 19 20  1  0  0  0
 19 24  1  0  0  0
 20 21  2  0  0  0
 20103  1  0  0  0
 21 23  1  0  0  0
 22 28  1  0  0  0
 22 32  2  0  0  0
 26 27  1  0  0  0
 28104  1  0  0  0
 28105  1  0  0  0
 29106  1  0  0  0
 29107  1  0  0  0
 33 34  1  0  0  0
 33 66  1  0  0  0
 33 70  2  0  0  0
 34 36  1  0  0  0
 34 59  1  0  0  0
 34108  1  0  0  0
 35 44  2  0  0  0
 35 45  1  0  0  0
 35 68  1  0  0  0
 36 56  1  0  0  0
 36109  1  0  0  0
 37 39  1  0  0  0
 37 47  1  0  0  0
 37 66  1  0  0  0
 37110  1  0  0  0
 38 43  2  0  0  0
 38 46  1  0  0  0
 38 47  1  0  0  0
 39 64  1  0  0  0
 39 67  2  0  0  0
 40 52  1  0  0  0
 40 53  2  0  0  0
 40 58  1  0  0  0
 41111  1  0  0  0
 41112  1  0  0  0
 41113  1  0  0  0
 41 48  1  0  0  0
 42 43  1  0  0  0
 42 66  1  0  0  0
 42114  1  0  0  0
 42115  1  0  0  0
 43 44  1  0  0  0
 44116  1  0  0  0
 45 46  2  0  0  0
 45117  1  0  0  0
 46118  1  0  0  0
 47119  1  0  0  0
 47120  1  0  0  0
 48 56  1  0  0  0
 48 65  1  0  0  0
 48121  1  0  0  0
 49 50  1  0  0  0
 49 53  1  0  0  0
 49 64  1  0  0  0
 49122  1  0  0  0
 50 51  1  0  0  0
 50123  1  0  0  0
 50124  1  0  0  0
 51 52  1  0  0  0
 51125  1  0  0  0
 51126  1  0  0  0
 52127  1  0  0  0
 52128  1  0  0  0
 53 54  1  0  0  0
 54 55  2  0  0  0
 54129  1  0  0  0
 55 57  1  0  0  0
 55130  1  0  0  0
 56 69  2  0  0  0
 57 58  2  0  0  0
 57131  1  0  0  0
 58132  1  0  0  0
 59 60  1  0  0  0
 59 61  1  0  0  0
 59 62  1  0  0  0
 60133  1  0  0  0
 60134  1  0  0  0
 60135  1  0  0  0
 61136  1  0  0  0
 61137  1  0  0  0
 61138  1  0  0  0
 62139  1  0  0  0
 62140  1  0  0  0
 62141  1  0  0  0
 63 65  1  0  0  0
 63142  1  0  0  0
 63143  1  0  0  0
 63144  1  0  0  0
 64145  1  0  0  0
 65146  1  0  0  0
 68 83  1  0  0  0
 71 72  2  0  0  0
 71 85  1  0  0  0
 71147  1  0  0  0
 72 76  1  0  0  0
 72 86  1  0  0  0
 73 77  1  0  0  0
 73 85  1  0  0  0
 73 86  2  0  0  0
 74148  1  0  0  0
 74149  1  0  0  0
 74150  1  0  0  0
 74 84  1  0  0  0
 75 84  1  0  0  0
 75151  1  0  0  0
 75152  1  0  0  0
 75153  1  0  0  0
 76 87  1  0  0  0
 76154  1  0  0  0
 76155  1  0  0  0
 77 78  1  0  0  0
 77156  1  0  0  0
 77157  1  0  0  0
 78 84  1  0  0  0
 78158  1  0  0  0
 78159  1  0  0  0
 79 80  1  0  0  0
 79 81  1  0  0  0
 79160  1  0  0  0
 79161  1  0  0  0
 80 82  1  0  0  0
 80162  1  0  0  0
 80163  1  0  0  0
 81 83  1  0  0  0
 81164  1  0  0  0
 81165  1  0  0  0
 82 85  1  0  0  0
 82166  1  0  0  0
 82167  1  0  0  0
 83168  1  0  0  0
 83169  1  0  0  0
 84170  1  0  0  0
 86171  1  0  0  0
 87172  1  0  0  0
M  CHG  1  86   1
M  ISO  4   1 100  68 101  83 101  87 100
M  END
> <chiral flag>
0

> <version>
0

> <s_m_source_file>
/data/baiqing/PycharmProjects/Reinvent-master-3.2/result/LINK_invent/BTK/process_docking_weight1_custom_sum_contain_oxygen_bond_distance_aromatic_linkinvent_7_9_3/rearranged_h_0092.sdf

> <i_m_source_file_index>
67

> <r_mmod_Potential_Energy-OPLS-2005>
10474.7783203125

> <r_mmod_Stretch_Energy-OPLS-2005>
4350.58837890625

> <r_mmod_Bend_Energy-OPLS-2005>
1080.10766601562

> <r_mmod_Torsional_Energy-OPLS-2005>
562.794616699219

> <r_mmod_Improper_Torsional_Energy-OPLS-2005>
49.4458923339844

> <r_mmod_Van_der_Waal_Energy-OPLS-2005>
2057.017578125

> <r_mmod_Electrostatic_Energy-OPLS-2005>
-335.202270507812

> <r_mmod_Solvation_Energy-OPLS-2005>
-387.584411621094

> <b_mmod_Minimization_Converged-OPLS-2005>
0

> <r_mmod_RMS_Derivative-OPLS-2005>
15.3369169235229

$$$$
69
                    3D
 Structure written by MMmdl.
164172  0  0  1  0            999 V2000
  -30.6800  -14.5090   20.5187 C   0  0  0  0  0  0
  -30.4152  -12.3100   19.4390 C   0  0  0  0  0  0
  -29.4956  -12.4947   18.2142 C   0  0  0  0  0  0
  -28.0161  -12.3553   18.6239 C   0  0  0  0  0  0
  -27.6547  -13.2089   19.8696 C   0  0  2  0  0  0
  -28.6950  -13.0240   20.9975 C   0  0  0  0  0  0
  -25.2558  -13.8162   20.5674 C   0  0  0  0  0  0
  -24.1822  -13.0438   20.9184 C   0  0  0  0  0  0
  -24.6380  -11.6907   20.8743 C   0  0  0  0  0  0
  -23.9054  -10.4289   21.0404 C   0  0  0  0  0  0
  -24.3612   -9.4204   21.9179 C   0  0  0  0  0  0
  -23.6286   -8.2240   22.0751 C   0  0  0  0  0  0
  -22.4271   -8.0283   21.3542 C   0  0  0  0  0  0
  -21.9903   -9.0249   20.4643 C   0  0  0  0  0  0
  -22.7229  -10.2131   20.3052 C   0  0  0  0  0  0
  -21.6854   -6.0733   22.5274 C   0  0  0  0  0  0
  -21.4015   -6.5634   23.8207 C   0  0  0  0  0  0
  -21.3662   -5.6789   24.9168 C   0  0  0  0  0  0
  -21.6047   -4.3051   24.7221 C   0  0  0  0  0  0
  -21.8819   -3.8146   23.4339 C   0  0  0  0  0  0
  -21.9191   -4.6961   22.3398 C   0  0  0  0  0  0
  -22.7848  -13.5235   21.1853 C   0  0  0  0  0  0
  -22.1655   -4.2148   21.0976 F   0  0  0  0  0  0
  -21.5636   -3.4536   25.7734 F   0  0  0  0  0  0
  -30.0221  -13.3188   20.4375 N   0  0  0  0  0  0
  -26.2987  -12.9332   20.3344 N   0  0  0  0  0  0
  -25.9307  -11.6491   20.5770 N   0  0  0  0  0  0
  -22.0496  -12.8221   22.0417 N   0  0  0  0  0  0
  -25.4279  -15.1885   20.4065 N   0  0  0  0  0  0
  -31.8481  -14.6177   20.1320 O   0  0  0  0  0  0
  -21.6639   -6.8877   21.4237 O   0  0  0  0  0  0
  -22.3531  -14.5544   20.6716 O   0  0  0  0  0  0
  -24.6139  -31.8680   23.2084 C   0  0  0  0  0  0
  -25.9028  -32.4821   23.8393 C   0  0  1  0  0  0
  -27.2303  -27.4224   20.1034 C   0  0  0  0  0  0
  -25.5883  -33.8622   24.2321 N   0  0  0  0  0  0
  -23.4034  -30.4905   21.5480 C   0  0  2  0  0  0
  -24.8493  -28.9471   20.1196 C   0  0  0  0  0  0
  -22.7413  -29.4670   22.4983 C   0  0  0  0  0  0
  -18.0276  -28.1367   22.8483 C   0  0  0  0  0  0
  -24.1482  -36.7320   23.2642 C   0  0  0  0  0  0
  -25.9328  -30.8281   21.3627 C   0  0  0  0  0  0
  -26.0097  -29.4600   20.7137 C   0  0  0  0  0  0
  -27.2064  -28.7055   20.6983 C   0  0  0  0  0  0
  -26.0569  -26.9253   19.5038 C   0  0  0  0  0  0
  -24.8673  -27.6791   19.5120 C   0  0  0  0  0  0
  -23.6126  -29.8166   20.1656 C   0  0  0  0  0  0
  -25.4106  -36.3119   24.0342 C   0  0  1  0  0  0
  -20.5864  -28.3666   23.1305 C   0  0  2  0  0  0
  -20.6759  -26.9405   22.5412 C   0  0  0  0  0  0
  -19.5741  -26.6380   21.5205 C   0  0  0  0  0  0
  -18.1922  -26.7914   22.1616 C   0  0  0  0  0  0
  -19.1523  -28.8831   23.2888 C   0  0  0  0  0  0
  -18.9454  -30.1432   23.8909 C   0  0  0  0  0  0
  -17.6459  -30.6579   24.0564 C   0  0  0  0  0  0
  -25.9034  -34.9482   23.5134 C   0  0  0  0  0  0
  -16.5349  -29.9085   23.6322 C   0  0  0  0  0  0
  -16.7268  -28.6495   23.0353 C   0  0  0  0  0  0
  -26.4452  -31.6601   25.0726 C   0  0  0  0  0  0
  -25.3734  -31.3689   26.1489 C   0  0  0  0  0  0
  -27.0284  -30.3048   24.6093 C   0  0  0  0  0  0
  -27.6029  -32.4325   25.7475 C   0  0  0  0  0  0
  -27.5583  -37.1816   24.8470 C   0  0  0  0  0  0
  -21.4141  -29.3041   22.3719 N   0  0  0  0  0  0
  -26.4296  -37.3804   23.9414 N   0  0  0  0  0  0
  -24.6687  -31.0771   22.0977 N   0  0  0  0  0  0
  -23.4185  -28.8234   23.3044 O   0  0  0  0  0  0
  -28.3882  -26.6760   20.0721 O   0  0  0  0  0  0
  -26.5610  -34.8936   22.4704 O   0  0  0  0  0  0
  -23.5331  -32.1436   23.7465 O   0  0  0  0  0  0
  -30.4624  -19.7157   20.2371 C   0  0  0  0  0  0
  -29.1363  -17.8811   21.0840 C   0  0  0  0  0  0
  -29.2861  -19.2770   20.8662 C   0  0  0  0  0  0
  -31.4098  -18.7670   19.8295 C   0  0  0  0  0  0
  -30.1422  -16.9698   20.6633 C   0  0  0  0  0  0
  -32.7065  -18.6650   17.6578 C   0  0  0  0  0  0
  -33.9432  -18.8304   19.8865 C   0  0  0  0  0  0
  -28.2277  -20.2901   21.3234 C   0  0  0  0  0  0
  -28.0151  -21.5469   20.4207 C   0  0  0  0  0  0
  -28.4481  -22.9019   21.0498 C   0  0  0  0  0  0
  -28.1521  -24.1564   20.1762 C   0  0  0  0  0  0
  -28.4070  -25.5032   20.9080 C   0  0  0  0  0  0
  -32.6757  -19.1975   19.0992 C   0  0  0  0  0  0
  -31.2474  -17.4431   20.0405 N   0  0  0  0  0  0
  -29.9214  -15.5699   20.8952 N   0  0  0  0  0  0
  -31.4620  -12.3946   19.1420 H   0  0  0  0  0  0
  -30.3048  -11.3071   19.8545 H   0  0  0  0  0  0
  -29.7403  -11.7608   17.4451 H   0  0  0  0  0  0
  -29.6635  -13.4751   17.7655 H   0  0  0  0  0  0
  -27.8327  -11.3009   18.8339 H   0  0  0  0  0  0
  -27.3651  -12.6153   17.7880 H   0  0  0  0  0  0
  -27.6872  -14.2508   19.5523 H   0  0  0  0  0  0
  -28.6742  -12.0005   21.3743 H   0  0  0  0  0  0
  -28.4606  -13.6563   21.8552 H   0  0  0  0  0  0
  -25.2759   -9.5685   22.4748 H   0  0  0  0  0  0
  -24.0004   -7.4630   22.7467 H   0  0  0  0  0  0
  -21.0841   -8.8758   19.8945 H   0  0  0  0  0  0
  -22.3683  -10.9666   19.6160 H   0  0  0  0  0  0
  -21.2006   -7.6141   23.9710 H   0  0  0  0  0  0
  -21.1487   -6.0518   25.9073 H   0  0  0  0  0  0
  -22.0602   -2.7609   23.2837 H   0  0  0  0  0  0
  -22.4116  -11.9874   22.4787 H   0  0  0  0  0  0
  -21.1115  -13.1239   22.2635 H   0  0  0  0  0  0
  -24.6585  -15.8419   20.5075 H   0  0  0  0  0  0
  -26.2726  -15.6262   20.0617 H   0  0  0  0  0  0
  -26.7097  -32.5533   23.1160 H   0  0  0  0  0  0
  -25.0032  -33.9786   25.0462 H   0  0  0  0  0  0
  -22.6939  -31.3082   21.4036 H   0  0  0  0  0  0
  -23.3747  -35.9647   23.3317 H   0  0  0  0  0  0
  -24.3579  -36.8932   22.2055 H   0  0  0  0  0  0
  -23.7231  -37.6530   23.6647 H   0  0  0  0  0  0
  -26.0494  -31.5900   20.5909 H   0  0  0  0  0  0
  -26.8201  -30.8822   21.9817 H   0  0  0  0  0  0
  -28.1061  -29.1008   21.1474 H   0  0  0  0  0  0
  -26.0619  -25.9596   19.0202 H   0  0  0  0  0  0
  -23.9756  -27.2784   19.0502 H   0  0  0  0  0  0
  -23.7275  -30.5871   19.4027 H   0  0  0  0  0  0
  -22.7353  -29.2394   19.8666 H   0  0  0  0  0  0
  -25.1280  -36.1991   25.0835 H   0  0  0  0  0  0
  -20.9948  -28.3223   24.1426 H   0  0  0  0  0  0
  -20.5635  -26.2295   23.3611 H   0  0  0  0  0  0
  -21.6639  -26.7436   22.1225 H   0  0  0  0  0  0
  -19.6914  -25.6296   21.1229 H   0  0  0  0  0  0
  -19.6658  -27.3193   20.6736 H   0  0  0  0  0  0
  -17.4194  -26.6654   21.4019 H   0  0  0  0  0  0
  -18.0320  -26.0046   22.8998 H   0  0  0  0  0  0
  -19.7935  -30.7226   24.2290 H   0  0  0  0  0  0
  -17.5030  -31.6262   24.5163 H   0  0  0  0  0  0
  -15.5358  -30.3002   23.7637 H   0  0  0  0  0  0
  -15.8659  -28.0818   22.7073 H   0  0  0  0  0  0
  -24.5906  -30.7027   25.7836 H   0  0  0  0  0  0
  -24.8920  -32.2832   26.4971 H   0  0  0  0  0  0
  -25.8120  -30.8846   27.0226 H   0  0  0  0  0  0
  -26.2816  -29.6810   24.1166 H   0  0  0  0  0  0
  -27.4087  -29.7276   25.4534 H   0  0  0  0  0  0
  -27.8639  -30.4386   23.9219 H   0  0  0  0  0  0
  -27.2653  -33.3618   26.2074 H   0  0  0  0  0  0
  -28.3818  -32.6914   25.0289 H   0  0  0  0  0  0
  -28.0724  -31.8446   26.5371 H   0  0  0  0  0  0
  -28.2616  -38.0100   24.7527 H   0  0  0  0  0  0
  -28.1066  -36.2641   24.6280 H   0  0  0  0  0  0
  -27.2307  -37.1460   25.8875 H   0  0  0  0  0  0
  -20.9308  -29.8786   21.6954 H   0  0  0  0  0  0
  -26.0191  -38.2888   24.1400 H   0  0  0  0  0  0
  -30.6350  -20.7678   20.0579 H   0  0  0  0  0  0
  -28.2473  -17.5139   21.5794 H   0  0  0  0  0  0
  -31.8245  -18.9934   17.1065 H   0  0  0  0  0  0
  -32.7218  -17.5747   17.6398 H   0  0  0  0  0  0
  -33.5862  -19.0237   17.1228 H   0  0  0  0  0  0
  -33.9230  -19.2746   20.8822 H   0  0  0  0  0  0
  -34.8395  -19.1904   19.3816 H   0  0  0  0  0  0
  -34.0361  -17.7505   20.0061 H   0  0  0  0  0  0
  -28.4673  -20.5956   22.3419 H   0  0  0  0  0  0
  -27.2789  -19.7570   21.3947 H   0  0  0  0  0  0
  -26.9461  -21.6157   20.2118 H   0  0  0  0  0  0
  -28.4797  -21.4100   19.4445 H   0  0  0  0  0  0
  -29.5156  -22.8686   21.2743 H   0  0  0  0  0  0
  -27.9447  -23.0163   22.0106 H   0  0  0  0  0  0
  -27.1200  -24.1255   19.8307 H   0  0  0  0  0  0
  -28.7683  -24.1111   19.2791 H   0  0  0  0  0  0
  -29.3979  -25.4681   21.3626 H   0  0  0  0  0  0
  -27.7049  -25.6107   21.7366 H   0  0  0  0  0  0
  -32.6537  -20.2865   19.0297 H   0  0  0  0  0  0
  -29.0065  -15.3285   21.2378 H   0  0  0  0  0  0
  1 25  1  0  0  0
  1 30  2  0  0  0
  1 85  1  0  0  0
  2  3  1  0  0  0
  2 25  1  0  0  0
  2 86  1  0  0  0
  2 87  1  0  0  0
  3  4  1  0  0  0
  3 88  1  0  0  0
  3 89  1  0  0  0
  4  5  1  0  0  0
  4 90  1  0  0  0
  4 91  1  0  0  0
  5  6  1  0  0  0
  5 26  1  0  0  0
  5 92  1  0  0  0
  6 25  1  0  0  0
  6 93  1  0  0  0
  6 94  1  0  0  0
  7  8  2  0  0  0
  7 26  1  0  0  0
  7 29  1  0  0  0
  8  9  1  0  0  0
  8 22  1  0  0  0
  9 10  1  0  0  0
  9 27  2  0  0  0
 10 11  2  0  0  0
 10 15  1  0  0  0
 11 12  1  0  0  0
 11 95  1  0  0  0
 12 13  2  0  0  0
 12 96  1  0  0  0
 13 14  1  0  0  0
 13 31  1  0  0  0
 14 15  2  0  0  0
 14 97  1  0  0  0
 15 98  1  0  0  0
 16 17  2  0  0  0
 16 21  1  0  0  0
 16 31  1  0  0  0
 17 18  1  0  0  0
 17 99  1  0  0  0
 18 19  2  0  0  0
 18100  1  0  0  0
 19 20  1  0  0  0
 19 24  1  0  0  0
 20 21  2  0  0  0
 20101  1  0  0  0
 21 23  1  0  0  0
 22 28  1  0  0  0
 22 32  2  0  0  0
 26 27  1  0  0  0
 28102  1  0  0  0
 28103  1  0  0  0
 29104  1  0  0  0
 29105  1  0  0  0
 33 34  1  0  0  0
 33 66  1  0  0  0
 33 70  2  0  0  0
 34 36  1  0  0  0
 34 59  1  0  0  0
 34106  1  0  0  0
 35 44  2  0  0  0
 35 45  1  0  0  0
 35 68  1  0  0  0
 36 56  1  0  0  0
 36107  1  0  0  0
 37 39  1  0  0  0
 37 47  1  0  0  0
 37 66  1  0  0  0
 37108  1  0  0  0
 38 43  2  0  0  0
 38 46  1  0  0  0
 38 47  1  0  0  0
 39 64  1  0  0  0
 39 67  2  0  0  0
 40 52  1  0  0  0
 40 53  2  0  0  0
 40 58  1  0  0  0
 41109  1  0  0  0
 41110  1  0  0  0
 41111  1  0  0  0
 41 48  1  0  0  0
 42 43  1  0  0  0
 42 66  1  0  0  0
 42112  1  0  0  0
 42113  1  0  0  0
 43 44  1  0  0  0
 44114  1  0  0  0
 45 46  2  0  0  0
 45115  1  0  0  0
 46116  1  0  0  0
 47117  1  0  0  0
 47118  1  0  0  0
 48 56  1  0  0  0
 48 65  1  0  0  0
 48119  1  0  0  0
 49 50  1  0  0  0
 49 53  1  0  0  0
 49 64  1  0  0  0
 49120  1  0  0  0
 50 51  1  0  0  0
 50121  1  0  0  0
 50122  1  0  0  0
 51 52  1  0  0  0
 51123  1  0  0  0
 51124  1  0  0  0
 52125  1  0  0  0
 52126  1  0  0  0
 53 54  1  0  0  0
 54 55  2  0  0  0
 54127  1  0  0  0
 55 57  1  0  0  0
 55128  1  0  0  0
 56 69  2  0  0  0
 57 58  2  0  0  0
 57129  1  0  0  0
 58130  1  0  0  0
 59 60  1  0  0  0
 59 61  1  0  0  0
 59 62  1  0  0  0
 60131  1  0  0  0
 60132  1  0  0  0
 60133  1  0  0  0
 61134  1  0  0  0
 61135  1  0  0  0
 61136  1  0  0  0
 62137  1  0  0  0
 62138  1  0  0  0
 62139  1  0  0  0
 63 65  1  0  0  0
 63140  1  0  0  0
 63141  1  0  0  0
 63142  1  0  0  0
 64143  1  0  0  0
 65144  1  0  0  0
 68 82  1  0  0  0
 71 73  2  0  0  0
 71 74  1  0  0  0
 71145  1  0  0  0
 72 73  1  0  0  0
 72 75  2  0  0  0
 72146  1  0  0  0
 73 78  1  0  0  0
 74 83  1  0  0  0
 74 84  2  0  0  0
 75 84  1  0  0  0
 75 85  1  0  0  0
 76147  1  0  0  0
 76148  1  0  0  0
 76149  1  0  0  0
 76 83  1  0  0  0
 77 83  1  0  0  0
 77150  1  0  0  0
 77151  1  0  0  0
 77152  1  0  0  0
 78 79  1  0  0  0
 78153  1  0  0  0
 78154  1  0  0  0
 79 80  1  0  0  0
 79155  1  0  0  0
 79156  1  0  0  0
 80 81  1  0  0  0
 80157  1  0  0  0
 80158  1  0  0  0
 81 82  1  0  0  0
 81159  1  0  0  0
 81160  1  0  0  0
 82161  1  0  0  0
 82162  1  0  0  0
 83163  1  0  0  0
 85164  1  0  0  0
M  ISO  4   1 100  68 101  82 101  85 100
M  END
> <chiral flag>
0

> <version>
0

> <s_m_source_file>
/data/baiqing/PycharmProjects/Reinvent-master-3.2/result/LINK_invent/BTK/process_docking_weight1_custom_sum_contain_oxygen_bond_distance_aromatic_linkinvent_7_9_3/rearranged_h_0092.sdf

> <i_m_source_file_index>
68

> <r_mmod_Potential_Energy-OPLS-2005>
-193.234710693359

> <r_mmod_Stretch_Energy-OPLS-2005>
40.7816543579102

> <r_mmod_Bend_Energy-OPLS-2005>
101.641372680664

> <r_mmod_Torsional_Energy-OPLS-2005>
222.304611206055

> <r_mmod_Improper_Torsional_Energy-OPLS-2005>
4.06454181671143

> <r_mmod_Van_der_Waal_Energy-OPLS-2005>
148.721817016602

> <r_mmod_Electrostatic_Energy-OPLS-2005>
-508.255340576172

> <r_mmod_Solvation_Energy-OPLS-2005>
-219.91569519043

> <b_mmod_Minimization_Converged-OPLS-2005>
0

> <r_mmod_RMS_Derivative-OPLS-2005>
1.49984812736511

$$$$
70
                    3D
 Structure written by MMmdl.
166174  0  0  1  0            999 V2000
  -30.5865  -14.7393   20.4887 C   0  0  0  0  0  0
  -30.4419  -12.4546   19.4742 C   0  0  0  0  0  0
  -29.5167  -12.5195   18.2371 C   0  0  0  0  0  0
  -28.0400  -12.3417   18.6457 C   0  0  0  0  0  0
  -27.6463  -13.2195   19.8634 C   0  0  2  0  0  0
  -28.6911  -13.1284   20.9973 C   0  0  0  0  0  0
  -25.2567  -13.7996   20.5810 C   0  0  0  0  0  0
  -24.1811  -13.0321   20.9225 C   0  0  0  0  0  0
  -24.6401  -11.6805   20.8748 C   0  0  0  0  0  0
  -23.9066  -10.4224   21.0406 C   0  0  0  0  0  0
  -24.3607   -9.4146   21.9188 C   0  0  0  0  0  0
  -23.6262   -8.2192   22.0750 C   0  0  0  0  0  0
  -22.4238   -8.0272   21.3533 C   0  0  0  0  0  0
  -21.9884   -9.0260   20.4640 C   0  0  0  0  0  0
  -22.7236  -10.2118   20.3052 C   0  0  0  0  0  0
  -21.6831   -6.0755   22.5282 C   0  0  0  0  0  0
  -21.4014   -6.5640   23.8230 C   0  0  0  0  0  0
  -21.3634   -5.6781   24.9181 C   0  0  0  0  0  0
  -21.6012   -4.3044   24.7214 C   0  0  0  0  0  0
  -21.8814   -3.8153   23.4338 C   0  0  0  0  0  0
  -21.9179   -4.6985   22.3403 C   0  0  0  0  0  0
  -22.7854  -13.5203   21.1843 C   0  0  0  0  0  0
  -22.1656   -4.2186   21.0982 F   0  0  0  0  0  0
  -21.5619   -3.4503   25.7716 F   0  0  0  0  0  0
  -29.9925  -13.4980   20.4251 N   0  0  0  0  0  0
  -26.2992  -12.9235   20.3383 N   0  0  0  0  0  0
  -25.9337  -11.6387   20.5776 N   0  0  0  0  0  0
  -22.0450  -12.8246   22.0406 N   0  0  0  0  0  0
  -25.4293  -15.1641   20.4355 N   0  0  0  0  0  0
  -31.7608  -14.8802   20.1312 O   0  0  0  0  0  0
  -21.6583   -6.8893   21.4236 O   0  0  0  0  0  0
  -22.3585  -14.5528   20.6676 O   0  0  0  0  0  0
  -24.6275  -31.8569   23.1998 C   0  0  0  0  0  0
  -25.9105  -32.4771   23.8336 C   0  0  1  0  0  0
  -27.2431  -27.3006   20.1216 C   0  0  0  0  0  0
  -25.5911  -33.8570   24.2258 N   0  0  0  0  0  0
  -23.4252  -30.4763   21.5439 C   0  0  2  0  0  0
  -24.8784  -28.9334   20.1083 C   0  0  0  0  0  0
  -22.7497  -29.4579   22.4936 C   0  0  0  0  0  0
  -18.0285  -28.1381   22.8492 C   0  0  0  0  0  0
  -24.1493  -36.7295   23.2644 C   0  0  0  0  0  0
  -25.9684  -30.7828   21.3739 C   0  0  0  0  0  0
  -26.0469  -29.4091   20.7167 C   0  0  0  0  0  0
  -27.2306  -28.6066   20.7112 C   0  0  0  0  0  0
  -26.0531  -26.8943   19.4699 C   0  0  0  0  0  0
  -24.8870  -27.6843   19.4712 C   0  0  0  0  0  0
  -23.6414  -29.8101   20.1598 C   0  0  0  0  0  0
  -25.4121  -36.3081   24.0323 C   0  0  1  0  0  0
  -20.5889  -28.3671   23.1300 C   0  0  2  0  0  0
  -20.6781  -26.9394   22.5423 C   0  0  0  0  0  0
  -19.5750  -26.6372   21.5235 C   0  0  0  0  0  0
  -18.1923  -26.7922   22.1638 C   0  0  0  0  0  0
  -19.1540  -28.8852   23.2889 C   0  0  0  0  0  0
  -18.9455  -30.1458   23.8895 C   0  0  0  0  0  0
  -17.6455  -30.6582   24.0563 C   0  0  0  0  0  0
  -25.9057  -34.9453   23.5101 C   0  0  0  0  0  0
  -16.5345  -29.9075   23.6335 C   0  0  0  0  0  0
  -16.7273  -28.6498   23.0348 C   0  0  0  0  0  0
  -26.4482  -31.6579   25.0706 C   0  0  0  0  0  0
  -25.3707  -31.3715   26.1425 C   0  0  0  0  0  0
  -27.0317  -30.2998   24.6156 C   0  0  0  0  0  0
  -27.6035  -32.4325   25.7485 C   0  0  0  0  0  0
  -27.5577  -37.1806   24.8460 C   0  0  0  0  0  0
  -21.4202  -29.3020   22.3691 N   0  0  0  0  0  0
  -26.4292  -37.3776   23.9404 N   0  0  0  0  0  0
  -24.6929  -31.0556   22.0963 N   0  0  0  0  0  0
  -23.4212  -28.8133   23.3033 O   0  0  0  0  0  0
  -28.3523  -26.4273   20.2013 O   0  0  0  0  0  0
  -26.5634  -34.8923   22.4670 O   0  0  0  0  0  0
  -23.5428  -32.1375   23.7305 O   0  0  0  0  0  0
  -27.6775  -17.6459   19.6689 C   0  0  0  0  0  0
  -26.5876  -18.5488   19.6175 C   0  0  0  0  0  0
  -28.7411  -18.2088   20.3193 C   0  0  0  0  0  0
  -26.9749  -19.6250   20.3606 C   0  0  0  0  0  0
  -26.0525  -20.6781   20.9019 C   0  0  0  0  0  0
  -24.0732  -18.0500   19.8552 C   0  0  0  0  0  0
  -25.3527  -17.3465   17.7472 C   0  0  0  0  0  0
  -30.0098  -17.3464   20.6575 C   0  0  0  0  0  0
  -28.5162  -22.3120   20.3734 C   0  0  0  0  0  0
  -29.1242  -23.7957   20.4881 C   0  0  0  0  0  0
  -29.1835  -20.8836   20.8137 C   0  0  0  0  0  0
  -28.1214  -24.9647   20.0025 C   0  0  0  0  0  0
  -25.2513  -18.3502   18.9088 C   0  0  0  0  0  0
  -28.3798  -19.6110   20.5003 N   0  0  0  0  0  0
  -29.7819  -15.8306   20.7677 N   0  0  0  0  0  0
  -31.4809  -12.5940   19.1724 H   0  0  0  0  0  0
  -30.3974  -11.4685   19.9387 H   0  0  0  0  0  0
  -29.8018  -11.7564   17.5100 H   0  0  0  0  0  0
  -29.6483  -13.4789   17.7368 H   0  0  0  0  0  0
  -27.8909  -11.2902   18.8894 H   0  0  0  0  0  0
  -27.3867  -12.5583   17.7990 H   0  0  0  0  0  0
  -27.6412  -14.2474   19.5034 H   0  0  0  0  0  0
  -28.7273  -12.1204   21.4107 H   0  0  0  0  0  0
  -28.4231  -13.7852   21.8264 H   0  0  0  0  0  0
  -25.2762   -9.5610   22.4746 H   0  0  0  0  0  0
  -23.9968   -7.4576   22.7467 H   0  0  0  0  0  0
  -21.0810   -8.8813   19.8945 H   0  0  0  0  0  0
  -22.3740  -10.9676   19.6165 H   0  0  0  0  0  0
  -21.2044   -7.6151   23.9763 H   0  0  0  0  0  0
  -21.1446   -6.0505   25.9097 H   0  0  0  0  0  0
  -22.0612   -2.7617   23.2828 H   0  0  0  0  0  0
  -22.4014  -11.9892   22.4812 H   0  0  0  0  0  0
  -21.1096  -13.1355   22.2598 H   0  0  0  0  0  0
  -24.6378  -15.7932   20.4937 H   0  0  0  0  0  0
  -26.2711  -15.6274   20.1235 H   0  0  0  0  0  0
  -26.7170  -32.5445   23.1084 H   0  0  0  0  0  0
  -25.0026  -33.9713   25.0379 H   0  0  0  0  0  0
  -22.7197  -31.2966   21.3993 H   0  0  0  0  0  0
  -23.3751  -35.9629   23.3305 H   0  0  0  0  0  0
  -24.3580  -36.8923   22.2058 H   0  0  0  0  0  0
  -23.7249  -37.6498   23.6673 H   0  0  0  0  0  0
  -26.0984  -31.5449   20.6045 H   0  0  0  0  0  0
  -26.8491  -30.8359   22.0023 H   0  0  0  0  0  0
  -28.1253  -28.9705   21.1967 H   0  0  0  0  0  0
  -25.9961  -25.9471   18.9538 H   0  0  0  0  0  0
  -23.9991  -27.3181   18.9752 H   0  0  0  0  0  0
  -23.7564  -30.5872   19.4024 H   0  0  0  0  0  0
  -22.7634  -29.2321   19.8630 H   0  0  0  0  0  0
  -25.1306  -36.1937   25.0812 H   0  0  0  0  0  0
  -20.9979  -28.3241   24.1427 H   0  0  0  0  0  0
  -20.5699  -26.2274   23.3616 H   0  0  0  0  0  0
  -21.6642  -26.7431   22.1207 H   0  0  0  0  0  0
  -19.6907  -25.6287   21.1254 H   0  0  0  0  0  0
  -19.6695  -27.3200   20.6779 H   0  0  0  0  0  0
  -17.4204  -26.6677   21.4027 H   0  0  0  0  0  0
  -18.0306  -26.0068   22.9038 H   0  0  0  0  0  0
  -19.7926  -30.7282   24.2255 H   0  0  0  0  0  0
  -17.4997  -31.6262   24.5155 H   0  0  0  0  0  0
  -15.5341  -30.2968   23.7659 H   0  0  0  0  0  0
  -15.8673  -28.0818   22.7051 H   0  0  0  0  0  0
  -24.5898  -30.7047   25.7750 H   0  0  0  0  0  0
  -24.8870  -32.2874   26.4831 H   0  0  0  0  0  0
  -25.8021  -30.8909   27.0211 H   0  0  0  0  0  0
  -26.2883  -29.6764   24.1169 H   0  0  0  0  0  0
  -27.4002  -29.7241   25.4654 H   0  0  0  0  0  0
  -27.8760  -30.4281   23.9377 H   0  0  0  0  0  0
  -27.2633  -33.3637   26.2032 H   0  0  0  0  0  0
  -28.3857  -32.6864   25.0319 H   0  0  0  0  0  0
  -28.0679  -31.8462   26.5427 H   0  0  0  0  0  0
  -28.2593  -38.0106   24.7517 H   0  0  0  0  0  0
  -28.1076  -36.2638   24.6282 H   0  0  0  0  0  0
  -27.2292  -37.1451   25.8861 H   0  0  0  0  0  0
  -20.9380  -29.8730   21.6888 H   0  0  0  0  0  0
  -26.0172  -38.2849   24.1398 H   0  0  0  0  0  0
  -27.6791  -16.6468   19.2606 H   0  0  0  0  0  0
  -25.8978  -21.4968   20.1989 H   0  0  0  0  0  0
  -26.3999  -21.0498   21.8663 H   0  0  0  0  0  0
  -25.0717  -20.2648   21.1182 H   0  0  0  0  0  0
  -23.6148  -18.9635   20.2299 H   0  0  0  0  0  0
  -24.3753  -17.4705   20.7245 H   0  0  0  0  0  0
  -23.2798  -17.5069   19.3408 H   0  0  0  0  0  0
  -26.0846  -17.6860   17.0127 H   0  0  0  0  0  0
  -24.3999  -17.2419   17.2275 H   0  0  0  0  0  0
  -25.6493  -16.3517   18.0748 H   0  0  0  0  0  0
  -30.4432  -17.6928   21.5970 H   0  0  0  0  0  0
  -30.7721  -17.5254   19.8977 H   0  0  0  0  0  0
  -28.1433  -22.1971   19.3542 H   0  0  0  0  0  0
  -27.6597  -22.4627   21.0119 H   0  0  0  0  0  0
  -30.0548  -23.8569   19.9243 H   0  0  0  0  0  0
  -29.3870  -23.9776   21.5311 H   0  0  0  0  0  0
  -29.4084  -20.8948   21.8809 H   0  0  0  0  0  0
  -30.1435  -20.7802   20.3082 H   0  0  0  0  0  0
  -27.1658  -24.7276   20.4696 H   0  0  0  0  0  0
  -27.9732  -24.8226   18.9315 H   0  0  0  0  0  0
  -25.0272  -19.3108   18.4400 H   0  0  0  0  0  0
  -28.8537  -15.5779   21.0689 H   0  0  0  0  0  0
  1 25  1  0  0  0
  1 30  2  0  0  0
  1 85  1  0  0  0
  2  3  1  0  0  0
  2 25  1  0  0  0
  2 86  1  0  0  0
  2 87  1  0  0  0
  3  4  1  0  0  0
  3 88  1  0  0  0
  3 89  1  0  0  0
  4  5  1  0  0  0
  4 90  1  0  0  0
  4 91  1  0  0  0
  5  6  1  0  0  0
  5 26  1  0  0  0
  5 92  1  0  0  0
  6 25  1  0  0  0
  6 93  1  0  0  0
  6 94  1  0  0  0
  7  8  2  0  0  0
  7 26  1  0  0  0
  7 29  1  0  0  0
  8  9  1  0  0  0
  8 22  1  0  0  0
  9 10  1  0  0  0
  9 27  2  0  0  0
 10 11  2  0  0  0
 10 15  1  0  0  0
 11 12  1  0  0  0
 11 95  1  0  0  0
 12 13  2  0  0  0
 12 96  1  0  0  0
 13 14  1  0  0  0
 13 31  1  0  0  0
 14 15  2  0  0  0
 14 97  1  0  0  0
 15 98  1  0  0  0
 16 17  2  0  0  0
 16 21  1  0  0  0
 16 31  1  0  0  0
 17 18  1  0  0  0
 17 99  1  0  0  0
 18 19  2  0  0  0
 18100  1  0  0  0
 19 20  1  0  0  0
 19 24  1  0  0  0
 20 21  2  0  0  0
 20101  1  0  0  0
 21 23  1  0  0  0
 22 28  1  0  0  0
 22 32  2  0  0  0
 26 27  1  0  0  0
 28102  1  0  0  0
 28103  1  0  0  0
 29104  1  0  0  0
 29105  1  0  0  0
 33 34  1  0  0  0
 33 66  1  0  0  0
 33 70  2  0  0  0
 34 36  1  0  0  0
 34 59  1  0  0  0
 34106  1  0  0  0
 35 44  2  0  0  0
 35 45  1  0  0  0
 35 68  1  0  0  0
 36 56  1  0  0  0
 36107  1  0  0  0
 37 39  1  0  0  0
 37 47  1  0  0  0
 37 66  1  0  0  0
 37108  1  0  0  0
 38 43  2  0  0  0
 38 46  1  0  0  0
 38 47  1  0  0  0
 39 64  1  0  0  0
 39 67  2  0  0  0
 40 52  1  0  0  0
 40 53  2  0  0  0
 40 58  1  0  0  0
 41109  1  0  0  0
 41110  1  0  0  0
 41111  1  0  0  0
 41 48  1  0  0  0
 42 43  1  0  0  0
 42 66  1  0  0  0
 42112  1  0  0  0
 42113  1  0  0  0
 43 44  1  0  0  0
 44114  1  0  0  0
 45 46  2  0  0  0
 45115  1  0  0  0
 46116  1  0  0  0
 47117  1  0  0  0
 47118  1  0  0  0
 48 56  1  0  0  0
 48 65  1  0  0  0
 48119  1  0  0  0
 49 50  1  0  0  0
 49 53  1  0  0  0
 49 64  1  0  0  0
 49120  1  0  0  0
 50 51  1  0  0  0
 50121  1  0  0  0
 50122  1  0  0  0
 51 52  1  0  0  0
 51123  1  0  0  0
 51124  1  0  0  0
 52125  1  0  0  0
 52126  1  0  0  0
 53 54  1  0  0  0
 54 55  2  0  0  0
 54127  1  0  0  0
 55 57  1  0  0  0
 55128  1  0  0  0
 56 69  2  0  0  0
 57 58  2  0  0  0
 57129  1  0  0  0
 58130  1  0  0  0
 59 60  1  0  0  0
 59 61  1  0  0  0
 59 62  1  0  0  0
 60131  1  0  0  0
 60132  1  0  0  0
 60133  1  0  0  0
 61134  1  0  0  0
 61135  1  0  0  0
 61136  1  0  0  0
 62137  1  0  0  0
 62138  1  0  0  0
 62139  1  0  0  0
 63 65  1  0  0  0
 63140  1  0  0  0
 63141  1  0  0  0
 63142  1  0  0  0
 64143  1  0  0  0
 65144  1  0  0  0
 68 82  1  0  0  0
 71 72  1  0  0  0
 71 73  2  0  0  0
 71145  1  0  0  0
 72 74  2  0  0  0
 72 83  1  0  0  0
 73 78  1  0  0  0
 73 84  1  0  0  0
 74 75  1  0  0  0
 74 84  1  0  0  0
 75146  1  0  0  0
 75147  1  0  0  0
 75148  1  0  0  0
 76149  1  0  0  0
 76150  1  0  0  0
 76151  1  0  0  0
 76 83  1  0  0  0
 77 83  1  0  0  0
 77152  1  0  0  0
 77153  1  0  0  0
 77154  1  0  0  0
 78 85  1  0  0  0
 78155  1  0  0  0
 78156  1  0  0  0
 79 80  1  0  0  0
 79 81  1  0  0  0
 79157  1  0  0  0
 79158  1  0  0  0
 80 82  1  0  0  0
 80159  1  0  0  0
 80160  1  0  0  0
 81 84  1  0  0  0
 81161  1  0  0  0
 81162  1  0  0  0
 82163  1  0  0  0
 82164  1  0  0  0
 83165  1  0  0  0
 85166  1  0  0  0
M  ISO  4   1 100  68 101  82 101  85 100
M  END
> <chiral flag>
0

> <version>
0

> <s_m_source_file>
/data/baiqing/PycharmProjects/Reinvent-master-3.2/result/LINK_invent/BTK/process_docking_weight1_custom_sum_contain_oxygen_bond_distance_aromatic_linkinvent_7_9_3/rearranged_h_0092.sdf

> <i_m_source_file_index>
69

> <r_mmod_Potential_Energy-OPLS-2005>
142.142074584961

> <r_mmod_Stretch_Energy-OPLS-2005>
129.453598022461

> <r_mmod_Bend_Energy-OPLS-2005>
201.446228027344

> <r_mmod_Torsional_Energy-OPLS-2005>
262.250122070312

> <r_mmod_Improper_Torsional_Energy-OPLS-2005>
4.57414674758911

> <r_mmod_Van_der_Waal_Energy-OPLS-2005>
129.542694091797

> <r_mmod_Electrostatic_Energy-OPLS-2005>
-463.966583251953

> <r_mmod_Solvation_Energy-OPLS-2005>
-195.332504272461

> <b_mmod_Minimization_Converged-OPLS-2005>
0

> <r_mmod_RMS_Derivative-OPLS-2005>
2.67413759231567

$$$$
71
                    3D
 Structure written by MMmdl.
172180  0  0  1  0            999 V2000
  -30.7425  -14.4358   20.6319 C   0  0  0  0  0  0
  -30.4144  -12.3144   19.4052 C   0  0  0  0  0  0
  -29.4772  -12.5114   18.1984 C   0  0  0  0  0  0
  -28.0076  -12.3437   18.6220 C   0  0  0  0  0  0
  -27.6551  -13.1941   19.8687 C   0  0  2  0  0  0
  -28.6984  -12.9875   20.9890 C   0  0  0  0  0  0
  -25.2581  -13.8141   20.5695 C   0  0  0  0  0  0
  -24.1830  -13.0436   20.9194 C   0  0  0  0  0  0
  -24.6369  -11.6891   20.8768 C   0  0  0  0  0  0
  -23.9034  -10.4293   21.0436 C   0  0  0  0  0  0
  -24.3600   -9.4208   21.9200 C   0  0  0  0  0  0
  -23.6285   -8.2236   22.0760 C   0  0  0  0  0  0
  -22.4275   -8.0272   21.3538 C   0  0  0  0  0  0
  -21.9908   -9.0249   20.4646 C   0  0  0  0  0  0
  -22.7223  -10.2132   20.3066 C   0  0  0  0  0  0
  -21.6850   -6.0736   22.5283 C   0  0  0  0  0  0
  -21.4010   -6.5639   23.8213 C   0  0  0  0  0  0
  -21.3655   -5.6797   24.9177 C   0  0  0  0  0  0
  -21.6053   -4.3060   24.7228 C   0  0  0  0  0  0
  -21.8817   -3.8149   23.4346 C   0  0  0  0  0  0
  -21.9188   -4.6968   22.3405 C   0  0  0  0  0  0
  -22.7860  -13.5244   21.1869 C   0  0  0  0  0  0
  -22.1662   -4.2159   21.0979 F   0  0  0  0  0  0
  -21.5628   -3.4537   25.7735 F   0  0  0  0  0  0
  -30.0314  -13.2895   20.4391 N   0  0  0  0  0  0
  -26.2987  -12.9270   20.3349 N   0  0  0  0  0  0
  -25.9284  -11.6445   20.5786 N   0  0  0  0  0  0
  -22.0491  -12.8234   22.0408 N   0  0  0  0  0  0
  -25.4332  -15.1850   20.4074 N   0  0  0  0  0  0
  -31.8369  -14.6321   20.0934 O   0  0  0  0  0  0
  -21.6629   -6.8876   21.4241 O   0  0  0  0  0  0
  -22.3564  -14.5561   20.6721 O   0  0  0  0  0  0
  -24.6129  -31.8685   23.2117 C   0  0  0  0  0  0
  -25.9025  -32.4832   23.8418 C   0  0  1  0  0  0
  -27.2339  -27.4350   20.1062 C   0  0  0  0  0  0
  -25.5874  -33.8628   24.2326 N   0  0  0  0  0  0
  -23.4025  -30.4918   21.5518 C   0  0  2  0  0  0
  -24.8540  -28.9633   20.1145 C   0  0  0  0  0  0
  -22.7408  -29.4651   22.4989 C   0  0  0  0  0  0
  -18.0275  -28.1359   22.8527 C   0  0  0  0  0  0
  -24.1481  -36.7313   23.2633 C   0  0  0  0  0  0
  -25.9321  -30.8354   21.3684 C   0  0  0  0  0  0
  -26.0138  -29.4718   20.7138 C   0  0  0  0  0  0
  -27.2107  -28.7165   20.7046 C   0  0  0  0  0  0
  -26.0605  -26.9443   19.4945 C   0  0  0  0  0  0
  -24.8726  -27.7002   19.4995 C   0  0  0  0  0  0
  -23.6122  -29.8254   20.1669 C   0  0  0  0  0  0
  -25.4107  -36.3107   24.0324 C   0  0  1  0  0  0
  -20.5862  -28.3646   23.1338 C   0  0  2  0  0  0
  -20.6752  -26.9379   22.5430 C   0  0  0  0  0  0
  -19.5729  -26.6373   21.5226 C   0  0  0  0  0  0
  -18.1908  -26.7914   22.1640 C   0  0  0  0  0  0
  -19.1528  -28.8818   23.2925 C   0  0  0  0  0  0
  -18.9448  -30.1428   23.8926 C   0  0  0  0  0  0
  -17.6448  -30.6570   24.0571 C   0  0  0  0  0  0
  -25.9045  -34.9472   23.5131 C   0  0  0  0  0  0
  -16.5342  -29.9080   23.6325 C   0  0  0  0  0  0
  -16.7265  -28.6493   23.0366 C   0  0  0  0  0  0
  -26.4469  -31.6618   25.0747 C   0  0  0  0  0  0
  -25.3733  -31.3696   26.1488 C   0  0  0  0  0  0
  -27.0332  -30.3071   24.6124 C   0  0  0  0  0  0
  -27.6039  -32.4363   25.7501 C   0  0  0  0  0  0
  -27.5592  -37.1779   24.8448 C   0  0  0  0  0  0
  -21.4139  -29.3019   22.3736 N   0  0  0  0  0  0
  -26.4292  -37.3797   23.9422 N   0  0  0  0  0  0
  -24.6670  -31.0787   22.1022 N   0  0  0  0  0  0
  -23.4195  -28.8197   23.3013 O   0  0  0  0  0  0
  -28.3893  -26.6784   20.1186 O   0  0  0  0  0  0
  -26.5618  -34.8924   22.4698 O   0  0  0  0  0  0
  -23.5314  -32.1453   23.7499 O   0  0  0  0  0  0
  -29.4736  -18.7194   21.9942 C   0  0  0  0  0  0
  -30.6137  -19.6818   20.3383 C   0  0  0  0  0  0
  -29.6772  -17.7521   21.0433 C   0  0  0  0  0  0
  -30.4013  -18.3752   19.9785 C   0  0  0  0  0  0
  -32.3784  -17.7754   18.5384 C   0  0  0  0  0  0
  -30.1416  -18.3492   17.4811 C   0  0  0  0  0  0
  -28.4047  -25.6029   22.2788 C   0  0  0  0  0  0
  -31.0949  -15.7514   22.6336 C   0  0  0  0  0  0
  -29.2149  -16.3009   21.1189 C   0  0  0  0  0  0
  -29.2081  -22.9443   20.6881 C   0  0  0  0  0  0
  -30.3439  -22.4653   21.6217 C   0  0  0  0  0  0
  -29.3560  -24.4171   20.2079 C   0  0  0  0  0  0
  -30.0830  -21.1350   22.3759 C   0  0  0  0  0  0
  -30.8520  -17.7255   18.6883 C   0  0  0  0  0  0
  -28.2829  -25.3909   20.7593 C   0  0  2  0  0  0
  -30.0423  -19.9099   21.5762 N   0  0  0  0  0  0
  -30.2419  -15.3194   21.5252 N   0  0  0  0  0  0
  -31.4547  -12.4181   19.0916 H   0  0  0  0  0  0
  -30.3252  -11.3010   19.7996 H   0  0  0  0  0  0
  -29.7198  -11.7990   17.4092 H   0  0  0  0  0  0
  -29.6237  -13.5046   17.7716 H   0  0  0  0  0  0
  -27.8426  -11.2870   18.8360 H   0  0  0  0  0  0
  -27.3431  -12.5898   17.7930 H   0  0  0  0  0  0
  -27.6910  -14.2327   19.5497 H   0  0  0  0  0  0
  -28.6778  -11.9542   21.3391 H   0  0  0  0  0  0
  -28.4467  -13.5911   21.8615 H   0  0  0  0  0  0
  -25.2730   -9.5688   22.4788 H   0  0  0  0  0  0
  -23.9996   -7.4625   22.7470 H   0  0  0  0  0  0
  -21.0841   -8.8754   19.8942 H   0  0  0  0  0  0
  -22.3672  -10.9676   19.6185 H   0  0  0  0  0  0
  -21.2000   -7.6145   23.9725 H   0  0  0  0  0  0
  -21.1487   -6.0522   25.9085 H   0  0  0  0  0  0
  -22.0602   -2.7615   23.2841 H   0  0  0  0  0  0
  -22.4087  -11.9876   22.4775 H   0  0  0  0  0  0
  -21.1117  -13.1281   22.2630 H   0  0  0  0  0  0
  -24.6667  -15.8411   20.5108 H   0  0  0  0  0  0
  -26.2865  -15.6214   20.0833 H   0  0  0  0  0  0
  -26.7106  -32.5547   23.1190 H   0  0  0  0  0  0
  -24.9966  -33.9797   25.0423 H   0  0  0  0  0  0
  -22.6909  -31.3076   21.4098 H   0  0  0  0  0  0
  -23.3756  -35.9635   23.3288 H   0  0  0  0  0  0
  -24.3556  -36.8960   22.2050 H   0  0  0  0  0  0
  -23.7235  -37.6497   23.6697 H   0  0  0  0  0  0
  -26.0481  -31.6032   20.6034 H   0  0  0  0  0  0
  -26.8154  -30.8870   21.9927 H   0  0  0  0  0  0
  -28.1047  -29.1006   21.1777 H   0  0  0  0  0  0
  -26.0603  -25.9789   19.0094 H   0  0  0  0  0  0
  -23.9804  -27.3063   19.0341 H   0  0  0  0  0  0
  -23.7150  -30.5998   19.4053 H   0  0  0  0  0  0
  -22.7381  -29.2392   19.8771 H   0  0  0  0  0  0
  -25.1273  -36.1965   25.0815 H   0  0  0  0  0  0
  -20.9963  -28.3220   24.1461 H   0  0  0  0  0  0
  -20.5678  -26.2234   23.3611 H   0  0  0  0  0  0
  -21.6609  -26.7422   22.1199 H   0  0  0  0  0  0
  -19.6886  -25.6296   21.1232 H   0  0  0  0  0  0
  -19.6680  -27.3211   20.6783 H   0  0  0  0  0  0
  -17.4174  -26.6703   21.4041 H   0  0  0  0  0  0
  -18.0282  -26.0038   22.9012 H   0  0  0  0  0  0
  -19.7926  -30.7223   24.2333 H   0  0  0  0  0  0
  -17.5011  -31.6276   24.5137 H   0  0  0  0  0  0
  -15.5341  -30.2985   23.7632 H   0  0  0  0  0  0
  -15.8669  -28.0813   22.7072 H   0  0  0  0  0  0
  -24.5901  -30.7064   25.7799 H   0  0  0  0  0  0
  -24.8907  -32.2826   26.4983 H   0  0  0  0  0  0
  -25.8049  -30.8822   27.0237 H   0  0  0  0  0  0
  -26.2894  -29.6798   24.1195 H   0  0  0  0  0  0
  -27.4138  -29.7329   25.4575 H   0  0  0  0  0  0
  -27.8704  -30.4396   23.9270 H   0  0  0  0  0  0
  -27.2676  -33.3680   26.2071 H   0  0  0  0  0  0
  -28.3848  -32.6911   25.0326 H   0  0  0  0  0  0
  -28.0736  -31.8514   26.5419 H   0  0  0  0  0  0
  -28.2535  -38.0138   24.7586 H   0  0  0  0  0  0
  -28.1155  -36.2669   24.6175 H   0  0  0  0  0  0
  -27.2307  -37.1303   25.8839 H   0  0  0  0  0  0
  -20.9284  -29.8762   21.6985 H   0  0  0  0  0  0
  -26.0175  -38.2864   24.1472 H   0  0  0  0  0  0
  -28.9783  -18.6624   22.9563 H   0  0  0  0  0  0
  -31.1296  -20.4741   19.8113 H   0  0  0  0  0  0
  -32.8690  -17.2748   19.3742 H   0  0  0  0  0  0
  -32.7440  -18.8014   18.5000 H   0  0  0  0  0  0
  -32.6979  -17.2740   17.6242 H   0  0  0  0  0  0
  -29.0585  -18.2690   17.5835 H   0  0  0  0  0  0
  -30.4243  -17.8454   16.5562 H   0  0  0  0  0  0
  -30.3895  -19.4052   17.3753 H   0  0  0  0  0  0
  -28.3536  -24.6597   22.8214 H   0  0  0  0  0  0
  -27.5962  -26.2331   22.6530 H   0  0  0  0  0  0
  -29.3450  -26.0860   22.5440 H   0  0  0  0  0  0
  -30.4939  -16.1589   23.4472 H   0  0  0  0  0  0
  -31.7959  -16.5199   22.3050 H   0  0  0  0  0  0
  -31.6738  -14.9192   23.0365 H   0  0  0  0  0  0
  -28.8003  -16.0478   20.1431 H   0  0  0  0  0  0
  -28.3790  -16.2342   21.8154 H   0  0  0  0  0  0
  -28.2446  -22.8115   21.1810 H   0  0  0  0  0  0
  -29.1740  -22.2858   19.8194 H   0  0  0  0  0  0
  -30.5083  -23.2345   22.3793 H   0  0  0  0  0  0
  -31.2813  -22.4029   21.0696 H   0  0  0  0  0  0
  -29.2866  -24.4233   19.1191 H   0  0  0  0  0  0
  -30.3542  -24.7970   20.4321 H   0  0  0  0  0  0
  -29.1451  -21.2137   22.9265 H   0  0  0  0  0  0
  -30.8621  -20.9984   23.1277 H   0  0  0  0  0  0
  -30.5645  -16.6765   18.7214 H   0  0  0  0  0  0
  -27.3137  -24.9341   20.5589 H   0  0  0  0  0  0
  1 25  1  0  0  0
  1 30  2  0  0  0
  1 87  1  0  0  0
  2  3  1  0  0  0
  2 25  1  0  0  0
  2 88  1  0  0  0
  2 89  1  0  0  0
  3  4  1  0  0  0
  3 90  1  0  0  0
  3 91  1  0  0  0
  4  5  1  0  0  0
  4 92  1  0  0  0
  4 93  1  0  0  0
  5  6  1  0  0  0
  5 26  1  0  0  0
  5 94  1  0  0  0
  6 25  1  0  0  0
  6 95  1  0  0  0
  6 96  1  0  0  0
  7  8  2  0  0  0
  7 26  1  0  0  0
  7 29  1  0  0  0
  8  9  1  0  0  0
  8 22  1  0  0  0
  9 10  1  0  0  0
  9 27  2  0  0  0
 10 11  2  0  0  0
 10 15  1  0  0  0
 11 12  1  0  0  0
 11 97  1  0  0  0
 12 13  2  0  0  0
 12 98  1  0  0  0
 13 14  1  0  0  0
 13 31  1  0  0  0
 14 15  2  0  0  0
 14 99  1  0  0  0
 15100  1  0  0  0
 16 17  2  0  0  0
 16 21  1  0  0  0
 16 31  1  0  0  0
 17 18  1  0  0  0
 17101  1  0  0  0
 18 19  2  0  0  0
 18102  1  0  0  0
 19 20  1  0  0  0
 19 24  1  0  0  0
 20 21  2  0  0  0
 20103  1  0  0  0
 21 23  1  0  0  0
 22 28  1  0  0  0
 22 32  2  0  0  0
 26 27  1  0  0  0
 28104  1  0  0  0
 28105  1  0  0  0
 29106  1  0  0  0
 29107  1  0  0  0
 33 34  1  0  0  0
 33 66  1  0  0  0
 33 70  2  0  0  0
 34 36  1  0  0  0
 34 59  1  0  0  0
 34108  1  0  0  0
 35 44  2  0  0  0
 35 45  1  0  0  0
 35 68  1  0  0  0
 36 56  1  0  0  0
 36109  1  0  0  0
 37 39  1  0  0  0
 37 47  1  0  0  0
 37 66  1  0  0  0
 37110  1  0  0  0
 38 43  2  0  0  0
 38 46  1  0  0  0
 38 47  1  0  0  0
 39 64  1  0  0  0
 39 67  2  0  0  0
 40 52  1  0  0  0
 40 53  2  0  0  0
 40 58  1  0  0  0
 41111  1  0  0  0
 41112  1  0  0  0
 41113  1  0  0  0
 41 48  1  0  0  0
 42 43  1  0  0  0
 42 66  1  0  0  0
 42114  1  0  0  0
 42115  1  0  0  0
 43 44  1  0  0  0
 44116  1  0  0  0
 45 46  2  0  0  0
 45117  1  0  0  0
 46118  1  0  0  0
 47119  1  0  0  0
 47120  1  0  0  0
 48 56  1  0  0  0
 48 65  1  0  0  0
 48121  1  0  0  0
 49 50  1  0  0  0
 49 53  1  0  0  0
 49 64  1  0  0  0
 49122  1  0  0  0
 50 51  1  0  0  0
 50123  1  0  0  0
 50124  1  0  0  0
 51 52  1  0  0  0
 51125  1  0  0  0
 51126  1  0  0  0
 52127  1  0  0  0
 52128  1  0  0  0
 53 54  1  0  0  0
 54 55  2  0  0  0
 54129  1  0  0  0
 55 57  1  0  0  0
 55130  1  0  0  0
 56 69  2  0  0  0
 57 58  2  0  0  0
 57131  1  0  0  0
 58132  1  0  0  0
 59 60  1  0  0  0
 59 61  1  0  0  0
 59 62  1  0  0  0
 60133  1  0  0  0
 60134  1  0  0  0
 60135  1  0  0  0
 61136  1  0  0  0
 61137  1  0  0  0
 61138  1  0  0  0
 62139  1  0  0  0
 62140  1  0  0  0
 62141  1  0  0  0
 63 65  1  0  0  0
 63142  1  0  0  0
 63143  1  0  0  0
 63144  1  0  0  0
 64145  1  0  0  0
 65146  1  0  0  0
 68 85  1  0  0  0
 71 73  2  0  0  0
 71 86  1  0  0  0
 71147  1  0  0  0
 72 74  2  0  0  0
 72 86  1  0  0  0
 72148  1  0  0  0
 73 74  1  0  0  0
 73 79  1  0  0  0
 74 84  1  0  0  0
 75149  1  0  0  0
 75150  1  0  0  0
 75151  1  0  0  0
 75 84  1  0  0  0
 76 84  1  0  0  0
 76152  1  0  0  0
 76153  1  0  0  0
 76154  1  0  0  0
 77155  1  0  0  0
 77156  1  0  0  0
 77157  1  0  0  0
 77 85  1  0  0  0
 78 87  1  0  0  0
 78158  1  0  0  0
 78159  1  0  0  0
 78160  1  0  0  0
 79 87  1  0  0  0
 79161  1  0  0  0
 79162  1  0  0  0
 80 81  1  0  0  0
 80 82  1  0  0  0
 80163  1  0  0  0
 80164  1  0  0  0
 81 83  1  0  0  0
 81165  1  0  0  0
 81166  1  0  0  0
 82 85  1  0  0  0
 82167  1  0  0  0
 82168  1  0  0  0
 83 86  1  0  0  0
 83169  1  0  0  0
 83170  1  0  0  0
 84171  1  0  0  0
 85172  1  0  0  0
M  ISO  4   1 100  68 101  85 101  87 100
M  END
> <chiral flag>
0

> <version>
0

> <s_m_source_file>
/data/baiqing/PycharmProjects/Reinvent-master-3.2/result/LINK_invent/BTK/process_docking_weight1_custom_sum_contain_oxygen_bond_distance_aromatic_linkinvent_7_9_3/rearranged_h_0092.sdf

> <i_m_source_file_index>
70

> <r_mmod_Potential_Energy-OPLS-2005>
47.4316673278809

> <r_mmod_Stretch_Energy-OPLS-2005>
36.9379730224609

> <r_mmod_Bend_Energy-OPLS-2005>
101.075187683105

> <r_mmod_Torsional_Energy-OPLS-2005>
310.290649414062

> <r_mmod_Improper_Torsional_Energy-OPLS-2005>
4.41708660125732

> <r_mmod_Van_der_Waal_Energy-OPLS-2005>
115.22566986084

> <r_mmod_Electrostatic_Energy-OPLS-2005>
-345.505767822266

> <r_mmod_Solvation_Energy-OPLS-2005>
-186.325988769531

> <b_mmod_Minimization_Converged-OPLS-2005>
0

> <r_mmod_RMS_Derivative-OPLS-2005>
2.7865686416626

$$$$
72
                    3D
 Structure written by MMmdl.
179187  0  0  1  0            999 V2000
  -30.5993  -14.7215   20.4084 C   0  0  0  0  0  0
  -30.4250  -12.4275   19.4535 C   0  0  0  0  0  0
  -29.4949  -12.4760   18.2200 C   0  0  0  0  0  0
  -28.0266  -12.2980   18.6457 C   0  0  0  0  0  0
  -27.6385  -13.2122   19.8376 C   0  0  2  0  0  0
  -28.6828  -13.1579   20.9724 C   0  0  0  0  0  0
  -25.2566  -13.8122   20.5693 C   0  0  0  0  0  0
  -24.1842  -13.0433   20.9191 C   0  0  0  0  0  0
  -24.6366  -11.6877   20.8704 C   0  0  0  0  0  0
  -23.9014  -10.4291   21.0390 C   0  0  0  0  0  0
  -24.3589   -9.4215   21.9161 C   0  0  0  0  0  0
  -23.6302   -8.2227   22.0729 C   0  0  0  0  0  0
  -22.4275   -8.0240   21.3525 C   0  0  0  0  0  0
  -21.9900   -9.0201   20.4621 C   0  0  0  0  0  0
  -22.7190  -10.2100   20.3043 C   0  0  0  0  0  0
  -21.6857   -6.0716   22.5270 C   0  0  0  0  0  0
  -21.4026   -6.5637   23.8198 C   0  0  0  0  0  0
  -21.3665   -5.6792   24.9155 C   0  0  0  0  0  0
  -21.6047   -4.3062   24.7222 C   0  0  0  0  0  0
  -21.8824   -3.8140   23.4359 C   0  0  0  0  0  0
  -21.9218   -4.6949   22.3413 C   0  0  0  0  0  0
  -22.7864  -13.5210   21.1857 C   0  0  0  0  0  0
  -22.1684   -4.2132   21.0989 F   0  0  0  0  0  0
  -21.5629   -3.4549   25.7742 F   0  0  0  0  0  0
  -29.9863  -13.4910   20.3856 N   0  0  0  0  0  0
  -26.2932  -12.9298   20.3231 N   0  0  0  0  0  0
  -25.9287  -11.6466   20.5706 N   0  0  0  0  0  0
  -22.0551  -12.8163   22.0394 N   0  0  0  0  0  0
  -25.4348  -15.1850   20.4149 N   0  0  0  0  0  0
  -31.7953  -14.8260   20.1241 O   0  0  0  0  0  0
  -21.6659   -6.8835   21.4209 O   0  0  0  0  0  0
  -22.3532  -14.5519   20.6692 O   0  0  0  0  0  0
  -24.6213  -31.8570   23.1983 C   0  0  0  0  0  0
  -25.9034  -32.4771   23.8328 C   0  0  1  0  0  0
  -27.2245  -27.2899   20.1516 C   0  0  0  0  0  0
  -25.5834  -33.8569   24.2253 N   0  0  0  0  0  0
  -23.4213  -30.4774   21.5366 C   0  0  2  0  0  0
  -24.8751  -28.9252   20.1152 C   0  0  0  0  0  0
  -22.7481  -29.4577   22.4862 C   0  0  0  0  0  0
  -18.0313  -28.1388   22.8469 C   0  0  0  0  0  0
  -24.1483  -36.7289   23.2646 C   0  0  0  0  0  0
  -25.9633  -30.7846   21.3749 C   0  0  0  0  0  0
  -26.0423  -29.4071   20.7216 C   0  0  0  0  0  0
  -27.2256  -28.6045   20.7212 C   0  0  0  0  0  0
  -26.0352  -26.8530   19.5410 C   0  0  0  0  0  0
  -24.8755  -27.6527   19.5143 C   0  0  0  0  0  0
  -23.6432  -29.8103   20.1520 C   0  0  0  0  0  0
  -25.4110  -36.3086   24.0346 C   0  0  1  0  0  0
  -20.5919  -28.3689   23.1273 C   0  0  2  0  0  0
  -20.6818  -26.9415   22.5415 C   0  0  0  0  0  0
  -19.5786  -26.6386   21.5216 C   0  0  0  0  0  0
  -18.1956  -26.7938   22.1613 C   0  0  0  0  0  0
  -19.1572  -28.8859   23.2868 C   0  0  0  0  0  0
  -18.9481  -30.1459   23.8881 C   0  0  0  0  0  0
  -17.6482  -30.6575   24.0577 C   0  0  0  0  0  0
  -25.9021  -34.9447   23.5113 C   0  0  0  0  0  0
  -16.5369  -29.9078   23.6330 C   0  0  0  0  0  0
  -16.7310  -28.6517   23.0318 C   0  0  0  0  0  0
  -26.4467  -31.6577   25.0681 C   0  0  0  0  0  0
  -25.3719  -31.3695   26.1422 C   0  0  0  0  0  0
  -27.0329  -30.3000   24.6149 C   0  0  0  0  0  0
  -27.6016  -32.4346   25.7423 C   0  0  0  0  0  0
  -27.5599  -37.1779   24.8475 C   0  0  0  0  0  0
  -21.4203  -29.3016   22.3621 N   0  0  0  0  0  0
  -26.4309  -37.3763   23.9418 N   0  0  0  0  0  0
  -24.6864  -31.0561   22.0929 N   0  0  0  0  0  0
  -23.4225  -28.8122   23.2935 O   0  0  0  0  0  0
  -28.3381  -26.4351   20.1199 O   0  0  0  0  0  0
  -26.5628  -34.8932   22.4703 O   0  0  0  0  0  0
  -23.5361  -32.1377   23.7277 O   0  0  0  0  0  0
  -29.4663  -19.8682   20.0662 C   0  0  0  0  0  0
  -29.0334  -21.0356   20.8054 C   0  0  0  0  0  0
  -28.6206  -20.7530   22.1447 C   0  0  0  0  0  0
  -29.4263  -18.5352   20.6188 C   0  0  0  0  0  0
  -28.3339  -19.3850   22.5069 C   0  0  0  0  0  0
  -32.5758  -21.8078   23.7007 C   0  0  0  0  0  0
  -27.9217  -19.4120   26.3178 C   0  0  0  0  0  0
  -27.0266  -17.4680   23.6476 C   0  0  0  0  0  0
  -26.2115  -19.7101   23.9293 C   0  0  0  0  0  0
  -29.2373  -22.5362   20.2639 C   0  0  0  0  0  0
  -28.6778  -21.8958   23.1837 C   0  0  0  0  0  0
  -30.1156  -17.2499   19.9897 C   0  0  0  0  0  0
  -31.2852  -22.2516   23.0047 C   0  0  0  0  0  0
  -28.4994  -18.9012   25.0007 C   0  0  0  0  0  0
  -28.0876  -23.6775   20.1980 C   0  0  0  0  0  0
  -30.0480  -22.0745   23.8927 C   0  0  0  0  0  0
  -28.3091  -25.1387   20.8584 C   0  0  0  0  0  0
  -27.5487  -18.9260   23.7716 C   0  0  0  0  0  0
  -28.8085  -18.3366   21.7896 N   0  0  0  0  0  0
  -29.7989  -15.8436   20.4825 N   0  0  0  0  0  0
  -31.4628  -12.5556   19.1394 H   0  0  0  0  0  0
  -30.3745  -11.4457   19.9285 H   0  0  0  0  0  0
  -29.7706  -11.6932   17.5121 H   0  0  0  0  0  0
  -29.6132  -13.4202   17.6837 H   0  0  0  0  0  0
  -27.8918  -11.2511   18.9195 H   0  0  0  0  0  0
  -27.3590  -12.4681   17.7994 H   0  0  0  0  0  0
  -27.6314  -14.2252   19.4344 H   0  0  0  0  0  0
  -28.7046  -12.1718   21.4384 H   0  0  0  0  0  0
  -28.4245  -13.8694   21.7597 H   0  0  0  0  0  0
  -25.2750   -9.5705   22.4703 H   0  0  0  0  0  0
  -24.0061   -7.4616   22.7440 H   0  0  0  0  0  0
  -21.0853   -8.8652   19.8921 H   0  0  0  0  0  0
  -22.3628  -10.9597   19.6138 H   0  0  0  0  0  0
  -21.1982   -7.6132   23.9679 H   0  0  0  0  0  0
  -21.1500   -6.0530   25.9055 H   0  0  0  0  0  0
  -22.0607   -2.7602   23.2855 H   0  0  0  0  0  0
  -22.4309  -11.9895   22.4822 H   0  0  0  0  0  0
  -21.1109  -13.1041   22.2533 H   0  0  0  0  0  0
  -24.6765  -15.8425   20.5436 H   0  0  0  0  0  0
  -26.2820  -15.6242   20.0813 H   0  0  0  0  0  0
  -26.7088  -32.5460   23.1062 H   0  0  0  0  0  0
  -24.9970  -33.9717   25.0394 H   0  0  0  0  0  0
  -22.7120  -31.2941   21.3869 H   0  0  0  0  0  0
  -23.3773  -35.9583   23.3303 H   0  0  0  0  0  0
  -24.3587  -36.8912   22.2061 H   0  0  0  0  0  0
  -23.7226  -37.6487   23.6680 H   0  0  0  0  0  0
  -26.1010  -31.5514   20.6094 H   0  0  0  0  0  0
  -26.8369  -30.8335   22.0117 H   0  0  0  0  0  0
  -28.1290  -28.9730   21.1888 H   0  0  0  0  0  0
  -26.0085  -25.8687   19.0942 H   0  0  0  0  0  0
  -23.9814  -27.2704   19.0399 H   0  0  0  0  0  0
  -23.7697  -30.5903   19.3978 H   0  0  0  0  0  0
  -22.7658  -29.2396   19.8438 H   0  0  0  0  0  0
  -25.1288  -36.1947   25.0846 H   0  0  0  0  0  0
  -21.0031  -28.3296   24.1381 H   0  0  0  0  0  0
  -20.5757  -26.2276   23.3608 H   0  0  0  0  0  0
  -21.6669  -26.7446   22.1163 H   0  0  0  0  0  0
  -19.6940  -25.6297   21.1232 H   0  0  0  0  0  0
  -19.6730  -27.3209   20.6762 H   0  0  0  0  0  0
  -17.4228  -26.6691   21.4012 H   0  0  0  0  0  0
  -18.0342  -26.0083   22.9015 H   0  0  0  0  0  0
  -19.7964  -30.7294   24.2206 H   0  0  0  0  0  0
  -17.5042  -31.6257   24.5187 H   0  0  0  0  0  0
  -15.5376  -30.2979   23.7664 H   0  0  0  0  0  0
  -15.8717  -28.0869   22.6972 H   0  0  0  0  0  0
  -24.5862  -30.7087   25.7749 H   0  0  0  0  0  0
  -24.8950  -32.2858   26.4917 H   0  0  0  0  0  0
  -25.8030  -30.8815   27.0170 H   0  0  0  0  0  0
  -26.2900  -29.6704   24.1242 H   0  0  0  0  0  0
  -27.4114  -29.7296   25.4645 H   0  0  0  0  0  0
  -27.8735  -30.4284   23.9323 H   0  0  0  0  0  0
  -27.2628  -33.3666   26.1974 H   0  0  0  0  0  0
  -28.3815  -32.6893   25.0225 H   0  0  0  0  0  0
  -28.0728  -31.8518   26.5356 H   0  0  0  0  0  0
  -28.2590  -38.0099   24.7549 H   0  0  0  0  0  0
  -28.1115  -36.2624   24.6264 H   0  0  0  0  0  0
  -27.2317  -37.1408   25.8878 H   0  0  0  0  0  0
  -20.9350  -29.8735   21.6843 H   0  0  0  0  0  0
  -26.0210  -38.2838   24.1419 H   0  0  0  0  0  0
  -29.9189  -20.0019   19.0938 H   0  0  0  0  0  0
  -33.4516  -22.0634   23.1031 H   0  0  0  0  0  0
  -32.5778  -20.7227   23.8243 H   0  0  0  0  0  0
  -32.6829  -22.2496   24.6911 H   0  0  0  0  0  0
  -28.7081  -19.4798   27.0670 H   0  0  0  0  0  0
  -27.1566  -18.7317   26.6883 H   0  0  0  0  0  0
  -27.4830  -20.4022   26.2152 H   0  0  0  0  0  0
  -26.3669  -17.3360   22.7928 H   0  0  0  0  0  0
  -26.4595  -17.1902   24.5357 H   0  0  0  0  0  0
  -27.8324  -16.7402   23.5590 H   0  0  0  0  0  0
  -25.6097  -19.6219   23.0239 H   0  0  0  0  0  0
  -26.2974  -20.7666   24.1260 H   0  0  0  0  0  0
  -25.5995  -19.3194   24.7435 H   0  0  0  0  0  0
  -29.6310  -22.4463   19.2523 H   0  0  0  0  0  0
  -30.0730  -22.9750   20.7949 H   0  0  0  0  0  0
  -27.9745  -21.7691   23.9883 H   0  0  0  0  0  0
  -28.3890  -22.8400   22.7315 H   0  0  0  0  0  0
  -31.1922  -17.3996   20.0762 H   0  0  0  0  0  0
  -29.9150  -17.2546   18.9186 H   0  0  0  0  0  0
  -31.2057  -21.6207   22.1246 H   0  0  0  0  0  0
  -31.3573  -23.2851   22.6583 H   0  0  0  0  0  0
  -28.8664  -17.8898   25.1693 H   0  0  0  0  0  0
  -29.4153  -19.4323   24.7832 H   0  0  0  0  0  0
  -27.1829  -23.2542   20.6390 H   0  0  0  0  0  0
  -27.8103  -23.8260   19.1543 H   0  0  0  0  0  0
  -30.2576  -21.2215   24.5219 H   0  0  0  0  0  0
  -29.9899  -22.9072   24.5939 H   0  0  0  0  0  0
  -29.2627  -25.1075   21.3814 H   0  0  0  0  0  0
  -27.5734  -25.2492   21.6576 H   0  0  0  0  0  0
  -28.8246  -15.6832   20.6857 H   0  0  0  0  0  0
  1 25  1  0  0  0
  1 30  2  0  0  0
  1 90  1  0  0  0
  2  3  1  0  0  0
  2 25  1  0  0  0
  2 91  1  0  0  0
  2 92  1  0  0  0
  3  4  1  0  0  0
  3 93  1  0  0  0
  3 94  1  0  0  0
  4  5  1  0  0  0
  4 95  1  0  0  0
  4 96  1  0  0  0
  5  6  1  0  0  0
  5 26  1  0  0  0
  5 97  1  0  0  0
  6 25  1  0  0  0
  6 98  1  0  0  0
  6 99  1  0  0  0
  7  8  2  0  0  0
  7 26  1  0  0  0
  7 29  1  0  0  0
  8  9  1  0  0  0
  8 22  1  0  0  0
  9 10  1  0  0  0
  9 27  2  0  0  0
 10 11  2  0  0  0
 10 15  1  0  0  0
 11 12  1  0  0  0
 11100  1  0  0  0
 12 13  2  0  0  0
 12101  1  0  0  0
 13 14  1  0  0  0
 13 31  1  0  0  0
 14 15  2  0  0  0
 14102  1  0  0  0
 15103  1  0  0  0
 16 17  2  0  0  0
 16 21  1  0  0  0
 16 31  1  0  0  0
 17 18  1  0  0  0
 17104  1  0  0  0
 18 19  2  0  0  0
 18105  1  0  0  0
 19 20  1  0  0  0
 19 24  1  0  0  0
 20 21  2  0  0  0
 20106  1  0  0  0
 21 23  1  0  0  0
 22 28  1  0  0  0
 22 32  2  0  0  0
 26 27  1  0  0  0
 28107  1  0  0  0
 28108  1  0  0  0
 29109  1  0  0  0
 29110  1  0  0  0
 33 34  1  0  0  0
 33 66  1  0  0  0
 33 70  2  0  0  0
 34 36  1  0  0  0
 34 59  1  0  0  0
 34111  1  0  0  0
 35 44  2  0  0  0
 35 45  1  0  0  0
 35 68  1  0  0  0
 36 56  1  0  0  0
 36112  1  0  0  0
 37 39  1  0  0  0
 37 47  1  0  0  0
 37 66  1  0  0  0
 37113  1  0  0  0
 38 43  2  0  0  0
 38 46  1  0  0  0
 38 47  1  0  0  0
 39 64  1  0  0  0
 39 67  2  0  0  0
 40 52  1  0  0  0
 40 53  2  0  0  0
 40 58  1  0  0  0
 41114  1  0  0  0
 41115  1  0  0  0
 41116  1  0  0  0
 41 48  1  0  0  0
 42 43  1  0  0  0
 42 66  1  0  0  0
 42117  1  0  0  0
 42118  1  0  0  0
 43 44  1  0  0  0
 44119  1  0  0  0
 45 46  2  0  0  0
 45120  1  0  0  0
 46121  1  0  0  0
 47122  1  0  0  0
 47123  1  0  0  0
 48 56  1  0  0  0
 48 65  1  0  0  0
 48124  1  0  0  0
 49 50  1  0  0  0
 49 53  1  0  0  0
 49 64  1  0  0  0
 49125  1  0  0  0
 50 51  1  0  0  0
 50126  1  0  0  0
 50127  1  0  0  0
 51 52  1  0  0  0
 51128  1  0  0  0
 51129  1  0  0  0
 52130  1  0  0  0
 52131  1  0  0  0
 53 54  1  0  0  0
 54 55  2  0  0  0
 54132  1  0  0  0
 55 57  1  0  0  0
 55133  1  0  0  0
 56 69  2  0  0  0
 57 58  2  0  0  0
 57134  1  0  0  0
 58135  1  0  0  0
 59 60  1  0  0  0
 59 61  1  0  0  0
 59 62  1  0  0  0
 60136  1  0  0  0
 60137  1  0  0  0
 60138  1  0  0  0
 61139  1  0  0  0
 61140  1  0  0  0
 61141  1  0  0  0
 62142  1  0  0  0
 62143  1  0  0  0
 62144  1  0  0  0
 63 65  1  0  0  0
 63145  1  0  0  0
 63146  1  0  0  0
 63147  1  0  0  0
 64148  1  0  0  0
 65149  1  0  0  0
 68 87  1  0  0  0
 71 72  2  0  0  0
 71 74  1  0  0  0
 71150  1  0  0  0
 72 73  1  0  0  0
 72 80  1  0  0  0
 73 75  2  0  0  0
 73 81  1  0  0  0
 74 82  1  0  0  0
 74 89  2  0  0  0
 75 88  1  0  0  0
 75 89  1  0  0  0
 76 83  1  0  0  0
 76151  1  0  0  0
 76152  1  0  0  0
 76153  1  0  0  0
 77 84  1  0  0  0
 77154  1  0  0  0
 77155  1  0  0  0
 77156  1  0  0  0
 78157  1  0  0  0
 78158  1  0  0  0
 78159  1  0  0  0
 78 88  1  0  0  0
 79 88  1  0  0  0
 79160  1  0  0  0
 79161  1  0  0  0
 79162  1  0  0  0
 80 85  1  0  0  0
 80163  1  0  0  0
 80164  1  0  0  0
 81 86  1  0  0  0
 81165  1  0  0  0
 81166  1  0  0  0
 82 90  1  0  0  0
 82167  1  0  0  0
 82168  1  0  0  0
 83 86  1  0  0  0
 83169  1  0  0  0
 83170  1  0  0  0
 84 88  1  0  0  0
 84171  1  0  0  0
 84172  1  0  0  0
 85 87  1  0  0  0
 85173  1  0  0  0
 85174  1  0  0  0
 86175  1  0  0  0
 86176  1  0  0  0
 87177  1  0  0  0
 87178  1  0  0  0
 90179  1  0  0  0
M  ISO  4   1 100  68 101  87 101  90 100
M  END
> <chiral flag>
0

> <version>
0

> <s_m_source_file>
/data/baiqing/PycharmProjects/Reinvent-master-3.2/result/LINK_invent/BTK/process_docking_weight1_custom_sum_contain_oxygen_bond_distance_aromatic_linkinvent_7_9_3/rearranged_h_0092.sdf

> <i_m_source_file_index>
71

> <r_mmod_Potential_Energy-OPLS-2005>
-8.5185432434082

> <r_mmod_Stretch_Energy-OPLS-2005>
122.42163848877

> <r_mmod_Bend_Energy-OPLS-2005>
203.675384521484

> <r_mmod_Torsional_Energy-OPLS-2005>
306.601531982422

> <r_mmod_Improper_Torsional_Energy-OPLS-2005>
9.1147928237915

> <r_mmod_Van_der_Waal_Energy-OPLS-2005>
156.452865600586

> <r_mmod_Electrostatic_Energy-OPLS-2005>
-679.482238769531

> <r_mmod_Solvation_Energy-OPLS-2005>
-200.373168945312

> <b_mmod_Minimization_Converged-OPLS-2005>
0

> <r_mmod_RMS_Derivative-OPLS-2005>
6.17785739898682

$$$$
73
                    3D
 Structure written by MMmdl.
156164  0  0  1  0            999 V2000
  -30.5646  -14.9538   20.3231 C   0  0  0  0  0  0
  -30.4577  -12.5557   19.5034 C   0  0  0  0  0  0
  -29.5276  -12.3110   18.2890 C   0  0  0  0  0  0
  -28.0359  -12.2654   18.6790 C   0  0  0  0  0  0
  -27.6260  -13.2375   19.8197 C   0  0  2  0  0  0
  -28.6806  -13.3123   20.9354 C   0  0  0  0  0  0
  -25.2500  -13.8225   20.5736 C   0  0  0  0  0  0
  -24.1800  -13.0462   20.9239 C   0  0  0  0  0  0
  -24.6398  -11.6946   20.8811 C   0  0  0  0  0  0
  -23.9083  -10.4316   21.0449 C   0  0  0  0  0  0
  -24.3637   -9.4221   21.9210 C   0  0  0  0  0  0
  -23.6310   -8.2258   22.0768 C   0  0  0  0  0  0
  -22.4295   -8.0296   21.3552 C   0  0  0  0  0  0
  -21.9932   -9.0280   20.4659 C   0  0  0  0  0  0
  -22.7264  -10.2160   20.3081 C   0  0  0  0  0  0
  -21.6856   -6.0753   22.5284 C   0  0  0  0  0  0
  -21.4010   -6.5651   23.8218 C   0  0  0  0  0  0
  -21.3656   -5.6805   24.9180 C   0  0  0  0  0  0
  -21.6045   -4.3070   24.7231 C   0  0  0  0  0  0
  -21.8821   -3.8159   23.4353 C   0  0  0  0  0  0
  -21.9192   -4.6978   22.3408 C   0  0  0  0  0  0
  -22.7816  -13.5235   21.1863 C   0  0  0  0  0  0
  -22.1657   -4.2165   21.0983 F   0  0  0  0  0  0
  -21.5624   -3.4549   25.7742 F   0  0  0  0  0  0
  -29.9476  -13.7018   20.3059 N   0  0  0  0  0  0
  -26.2905  -12.9433   20.3289 N   0  0  0  0  0  0
  -25.9331  -11.6585   20.5874 N   0  0  0  0  0  0
  -22.0460  -12.8218   22.0413 N   0  0  0  0  0  0
  -25.4187  -15.1947   20.4141 N   0  0  0  0  0  0
  -31.7975  -14.9578   20.2492 O   0  0  0  0  0  0
  -21.6652   -6.8896   21.4249 O   0  0  0  0  0  0
  -22.3507  -14.5540   20.6701 O   0  0  0  0  0  0
  -24.6403  -31.8467   23.1903 C   0  0  0  0  0  0
  -25.9189  -32.4704   23.8295 C   0  0  1  0  0  0
  -27.2168  -27.1598   20.1566 C   0  0  0  0  0  0
  -25.5961  -33.8512   24.2201 N   0  0  0  0  0  0
  -23.4430  -30.4665   21.5340 C   0  0  2  0  0  0
  -24.8936  -28.8980   20.1074 C   0  0  0  0  0  0
  -22.7551  -29.4557   22.4857 C   0  0  0  0  0  0
  -18.0304  -28.1378   22.8495 C   0  0  0  0  0  0
  -24.1485  -36.7241   23.2650 C   0  0  0  0  0  0
  -25.9972  -30.7277   21.3870 C   0  0  0  0  0  0
  -26.0684  -29.3421   20.7277 C   0  0  0  0  0  0
  -27.2309  -28.4885   20.7361 C   0  0  0  0  0  0
  -26.0187  -26.8121   19.4945 C   0  0  0  0  0  0
  -24.8800  -27.6453   19.4761 C   0  0  0  0  0  0
  -23.6691  -29.7976   20.1521 C   0  0  0  0  0  0
  -25.4114  -36.3029   24.0321 C   0  0  1  0  0  0
  -20.5915  -28.3697   23.1241 C   0  0  2  0  0  0
  -20.6778  -26.9408   22.5394 C   0  0  0  0  0  0
  -19.5752  -26.6367   21.5204 C   0  0  0  0  0  0
  -18.1937  -26.7920   22.1625 C   0  0  0  0  0  0
  -19.1565  -28.8857   23.2864 C   0  0  0  0  0  0
  -18.9488  -30.1456   23.8884 C   0  0  0  0  0  0
  -17.6487  -30.6585   24.0555 C   0  0  0  0  0  0
  -25.9075  -34.9409   23.5062 C   0  0  0  0  0  0
  -16.5374  -29.9071   23.6347 C   0  0  0  0  0  0
  -16.7292  -28.6486   23.0377 C   0  0  0  0  0  0
  -26.4520  -31.6574   25.0732 C   0  0  0  0  0  0
  -25.3715  -31.3741   26.1437 C   0  0  0  0  0  0
  -27.0401  -30.2986   24.6299 C   0  0  0  0  0  0
  -27.6052  -32.4352   25.7505 C   0  0  0  0  0  0
  -27.5558  -37.1777   24.8478 C   0  0  0  0  0  0
  -21.4246  -29.3040   22.3617 N   0  0  0  0  0  0
  -26.4271  -37.3744   23.9425 N   0  0  0  0  0  0
  -24.7127  -31.0348   22.0921 N   0  0  0  0  0  0
  -23.4209  -28.8114   23.3005 O   0  0  0  0  0  0
  -28.2738  -26.1884   20.2474 O   0  0  0  0  0  0
  -26.5660  -34.8900   22.4639 O   0  0  0  0  0  0
  -23.5528  -32.1343   23.7133 O   0  0  0  0  0  0
  -29.9249  -17.6504   20.6929 C   0  0  0  0  0  0
  -29.8306  -16.3551   19.9759 C   0  0  0  0  0  0
  -29.2413  -16.5480   18.6822 C   0  0  0  0  0  0
  -29.3608  -18.9278   20.1963 C   0  0  0  0  0  0
  -28.6138  -17.7699   18.3233 C   0  0  0  0  0  0
  -29.4074  -15.5252   17.5684 C   0  0  0  0  0  0
  -27.8728  -17.9392   17.0060 C   0  0  0  0  0  0
  -29.5572  -20.4584   20.7387 C   0  0  0  0  0  0
  -28.6548  -21.7757   20.2178 C   0  0  0  0  0  0
  -28.9771  -23.3946   20.5292 C   0  0  0  0  0  0
  -28.0057  -24.6749   20.0602 C   0  0  0  0  0  0
  -28.6731  -18.8992   19.0473 N   0  0  0  0  0  0
  -31.4745  -12.7269   19.1474 H   0  0  0  0  0  0
  -30.5099  -11.6622   20.1265 H   0  0  0  0  0  0
  -29.7923  -11.3488   17.8465 H   0  0  0  0  0  0
  -29.7038  -12.9999   17.4754 H   0  0  0  0  0  0
  -27.8424  -11.2389   18.9940 H   0  0  0  0  0  0
  -27.4087  -12.4258   17.8015 H   0  0  0  0  0  0
  -27.5711  -14.2279   19.3747 H   0  0  0  0  0  0
  -28.7757  -12.3569   21.4525 H   0  0  0  0  0  0
  -28.3924  -14.0477   21.6876 H   0  0  0  0  0  0
  -25.2783   -9.5689   22.4793 H   0  0  0  0  0  0
  -24.0019   -7.4644   22.7482 H   0  0  0  0  0  0
  -21.0862   -8.8811   19.8954 H   0  0  0  0  0  0
  -22.3730  -10.9714   19.6201 H   0  0  0  0  0  0
  -21.1996   -7.6161   23.9726 H   0  0  0  0  0  0
  -21.1461   -6.0532   25.9082 H   0  0  0  0  0  0
  -22.0594   -2.7622   23.2849 H   0  0  0  0  0  0
  -22.4083  -11.9875   22.4787 H   0  0  0  0  0  0
  -21.1080  -13.1238   22.2631 H   0  0  0  0  0  0
  -24.6528  -15.8485   20.5320 H   0  0  0  0  0  0
  -26.2784  -15.6414   20.1189 H   0  0  0  0  0  0
  -26.7258  -32.5320   23.1025 H   0  0  0  0  0  0
  -25.0116  -33.9641   25.0356 H   0  0  0  0  0  0
  -22.7448  -31.2927   21.3811 H   0  0  0  0  0  0
  -23.3757  -35.9567   23.3301 H   0  0  0  0  0  0
  -24.3586  -36.8876   22.2071 H   0  0  0  0  0  0
  -23.7209  -37.6418   23.6698 H   0  0  0  0  0  0
  -26.1529  -31.4850   20.6174 H   0  0  0  0  0  0
  -26.8668  -30.7752   22.0310 H   0  0  0  0  0  0
  -28.1223  -28.8204   21.2488 H   0  0  0  0  0  0
  -25.9251  -25.8529   19.0070 H   0  0  0  0  0  0
  -23.9822  -27.2970   18.9830 H   0  0  0  0  0  0
  -23.8036  -30.5756   19.3993 H   0  0  0  0  0  0
  -22.7841  -29.2404   19.8397 H   0  0  0  0  0  0
  -25.1284  -36.1852   25.0808 H   0  0  0  0  0  0
  -21.0029  -28.3270   24.1352 H   0  0  0  0  0  0
  -20.5665  -26.2313   23.3606 H   0  0  0  0  0  0
  -21.6638  -26.7397   22.1191 H   0  0  0  0  0  0
  -19.6908  -25.6274   21.1244 H   0  0  0  0  0  0
  -19.6675  -27.3172   20.6734 H   0  0  0  0  0  0
  -17.4197  -26.6698   21.4028 H   0  0  0  0  0  0
  -18.0328  -26.0040   22.9004 H   0  0  0  0  0  0
  -19.7968  -30.7277   24.2240 H   0  0  0  0  0  0
  -17.5043  -31.6277   24.5137 H   0  0  0  0  0  0
  -15.5378  -30.2971   23.7671 H   0  0  0  0  0  0
  -15.8691  -28.0789   22.7113 H   0  0  0  0  0  0
  -24.5920  -30.7054   25.7758 H   0  0  0  0  0  0
  -24.8877  -32.2910   26.4823 H   0  0  0  0  0  0
  -25.8015  -30.8952   27.0245 H   0  0  0  0  0  0
  -26.3022  -29.6706   24.1302 H   0  0  0  0  0  0
  -27.4028  -29.7283   25.4861 H   0  0  0  0  0  0
  -27.8912  -30.4244   23.9603 H   0  0  0  0  0  0
  -27.2656  -33.3695   26.1998 H   0  0  0  0  0  0
  -28.3897  -32.6856   25.0345 H   0  0  0  0  0  0
  -28.0696  -31.8544   26.5489 H   0  0  0  0  0  0
  -28.2563  -38.0084   24.7522 H   0  0  0  0  0  0
  -28.1053  -36.2609   24.6287 H   0  0  0  0  0  0
  -27.2297  -37.1393   25.8890 H   0  0  0  0  0  0
  -20.9449  -29.8763   21.6805 H   0  0  0  0  0  0
  -26.0126  -38.2803   24.1445 H   0  0  0  0  0  0
  -30.4956  -17.6716   21.6124 H   0  0  0  0  0  0
  -30.3366  -14.9722   17.6805 H   0  0  0  0  0  0
  -29.5135  -16.0006   16.5937 H   0  0  0  0  0  0
  -28.5493  -14.8599   17.5065 H   0  0  0  0  0  0
  -27.3289  -17.0339   16.7356 H   0  0  0  0  0  0
  -28.5721  -18.1775   16.2039 H   0  0  0  0  0  0
  -27.1422  -18.7473   17.0635 H   0  0  0  0  0  0
  -30.6032  -20.6951   20.5417 H   0  0  0  0  0  0
  -29.4847  -20.4108   21.8250 H   0  0  0  0  0  0
  -27.6305  -21.5878   20.5395 H   0  0  0  0  0  0
  -28.6142  -21.6954   19.1311 H   0  0  0  0  0  0
  -29.9663  -23.5926   20.1164 H   0  0  0  0  0  0
  -29.1052  -23.4866   21.6086 H   0  0  0  0  0  0
  -27.0387  -24.4801   20.5247 H   0  0  0  0  0  0
  -27.8356  -24.5429   18.9908 H   0  0  0  0  0  0
  1 25  1  0  0  0
  1 30  2  0  0  0
  1 72  1  0  0  0
  2  3  1  0  0  0
  2 25  1  0  0  0
  2 83  1  0  0  0
  2 84  1  0  0  0
  3  4  1  0  0  0
  3 85  1  0  0  0
  3 86  1  0  0  0
  4  5  1  0  0  0
  4 87  1  0  0  0
  4 88  1  0  0  0
  5  6  1  0  0  0
  5 26  1  0  0  0
  5 89  1  0  0  0
  6 25  1  0  0  0
  6 90  1  0  0  0
  6 91  1  0  0  0
  7  8  2  0  0  0
  7 26  1  0  0  0
  7 29  1  0  0  0
  8  9  1  0  0  0
  8 22  1  0  0  0
  9 10  1  0  0  0
  9 27  2  0  0  0
 10 11  2  0  0  0
 10 15  1  0  0  0
 11 12  1  0  0  0
 11 92  1  0  0  0
 12 13  2  0  0  0
 12 93  1  0  0  0
 13 14  1  0  0  0
 13 31  1  0  0  0
 14 15  2  0  0  0
 14 94  1  0  0  0
 15 95  1  0  0  0
 16 17  2  0  0  0
 16 21  1  0  0  0
 16 31  1  0  0  0
 17 18  1  0  0  0
 17 96  1  0  0  0
 18 19  2  0  0  0
 18 97  1  0  0  0
 19 20  1  0  0  0
 19 24  1  0  0  0
 20 21  2  0  0  0
 20 98  1  0  0  0
 21 23  1  0  0  0
 22 28  1  0  0  0
 22 32  2  0  0  0
 26 27  1  0  0  0
 28 99  1  0  0  0
 28100  1  0  0  0
 29101  1  0  0  0
 29102  1  0  0  0
 33 34  1  0  0  0
 33 66  1  0  0  0
 33 70  2  0  0  0
 34 36  1  0  0  0
 34 59  1  0  0  0
 34103  1  0  0  0
 35 44  2  0  0  0
 35 45  1  0  0  0
 35 68  1  0  0  0
 36 56  1  0  0  0
 36104  1  0  0  0
 37 39  1  0  0  0
 37 47  1  0  0  0
 37 66  1  0  0  0
 37105  1  0  0  0
 38 43  2  0  0  0
 38 46  1  0  0  0
 38 47  1  0  0  0
 39 64  1  0  0  0
 39 67  2  0  0  0
 40 52  1  0  0  0
 40 53  2  0  0  0
 40 58  1  0  0  0
 41106  1  0  0  0
 41107  1  0  0  0
 41108  1  0  0  0
 41 48  1  0  0  0
 42 43  1  0  0  0
 42 66  1  0  0  0
 42109  1  0  0  0
 42110  1  0  0  0
 43 44  1  0  0  0
 44111  1  0  0  0
 45 46  2  0  0  0
 45112  1  0  0  0
 46113  1  0  0  0
 47114  1  0  0  0
 47115  1  0  0  0
 48 56  1  0  0  0
 48 65  1  0  0  0
 48116  1  0  0  0
 49 50  1  0  0  0
 49 53  1  0  0  0
 49 64  1  0  0  0
 49117  1  0  0  0
 50 51  1  0  0  0
 50118  1  0  0  0
 50119  1  0  0  0
 51 52  1  0  0  0
 51120  1  0  0  0
 51121  1  0  0  0
 52122  1  0  0  0
 52123  1  0  0  0
 53 54  1  0  0  0
 54 55  2  0  0  0
 54124  1  0  0  0
 55 57  1  0  0  0
 55125  1  0  0  0
 56 69  2  0  0  0
 57 58  2  0  0  0
 57126  1  0  0  0
 58127  1  0  0  0
 59 60  1  0  0  0
 59 61  1  0  0  0
 59 62  1  0  0  0
 60128  1  0  0  0
 60129  1  0  0  0
 60130  1  0  0  0
 61131  1  0  0  0
 61132  1  0  0  0
 61133  1  0  0  0
 62134  1  0  0  0
 62135  1  0  0  0
 62136  1  0  0  0
 63 65  1  0  0  0
 63137  1  0  0  0
 63138  1  0  0  0
 63139  1  0  0  0
 64140  1  0  0  0
 65141  1  0  0  0
 68 81  1  0  0  0
 71 72  2  0  0  0
 71 74  1  0  0  0
 71142  1  0  0  0
 72 73  1  0  0  0
 73 75  2  0  0  0
 73 76  1  0  0  0
 74 78  1  0  0  0
 74 82  2  0  0  0
 75 77  1  0  0  0
 75 82  1  0  0  0
 76143  1  0  0  0
 76144  1  0  0  0
 76145  1  0  0  0
 77146  1  0  0  0
 77147  1  0  0  0
 77148  1  0  0  0
 78 79  1  0  0  0
 78149  1  0  0  0
 78150  1  0  0  0
 79 80  1  0  0  0
 79151  1  0  0  0
 79152  1  0  0  0
 80 81  1  0  0  0
 80153  1  0  0  0
 80154  1  0  0  0
 81155  1  0  0  0
 81156  1  0  0  0
M  ISO  4   1 100  68 101  72 100  81 101
M  END
> <chiral flag>
0

> <version>
0

> <s_m_source_file>
/data/baiqing/PycharmProjects/Reinvent-master-3.2/result/LINK_invent/BTK/process_docking_weight1_custom_sum_contain_oxygen_bond_distance_aromatic_linkinvent_7_9_3/rearranged_h_0092.sdf

> <i_m_source_file_index>
72

> <r_mmod_Potential_Energy-OPLS-2005>
433.797790527344

> <r_mmod_Stretch_Energy-OPLS-2005>
238.368240356445

> <r_mmod_Bend_Energy-OPLS-2005>
233.985336303711

> <r_mmod_Torsional_Energy-OPLS-2005>
245.149276733398

> <r_mmod_Improper_Torsional_Energy-OPLS-2005>
14.2560405731201

> <r_mmod_Van_der_Waal_Energy-OPLS-2005>
144.879653930664

> <r_mmod_Electrostatic_Energy-OPLS-2005>
-442.548461914062

> <r_mmod_Solvation_Energy-OPLS-2005>
-200.061782836914

> <b_mmod_Minimization_Converged-OPLS-2005>
0

> <r_mmod_RMS_Derivative-OPLS-2005>
1.70872986316681

$$$$
74
                    3D
 Structure written by MMmdl.
163171  0  0  1  0            999 V2000
  -30.4342  -15.4534   20.3693 C   0  0  0  0  0  0
  -30.4238  -12.9522   19.5558 C   0  0  0  0  0  0
  -29.5496  -12.6805   18.3060 C   0  0  0  0  0  0
  -28.0927  -12.3821   18.6914 C   0  0  0  0  0  0
  -27.5947  -13.3306   19.8109 C   0  0  2  0  0  0
  -28.6161  -13.6061   20.9457 C   0  0  0  0  0  0
  -25.2276  -13.8359   20.5888 C   0  0  0  0  0  0
  -24.1720  -13.0466   20.9369 C   0  0  0  0  0  0
  -24.6457  -11.6970   20.8707 C   0  0  0  0  0  0
  -23.9138  -10.4288   21.0332 C   0  0  0  0  0  0
  -24.3677   -9.4211   21.9145 C   0  0  0  0  0  0
  -23.6331   -8.2264   22.0717 C   0  0  0  0  0  0
  -22.4291   -8.0317   21.3570 C   0  0  0  0  0  0
  -21.9964   -9.0274   20.4646 C   0  0  0  0  0  0
  -22.7288  -10.2146   20.2986 C   0  0  0  0  0  0
  -21.6850   -6.0724   22.5276 C   0  0  0  0  0  0
  -21.4018   -6.5635   23.8198 C   0  0  0  0  0  0
  -21.3660   -5.6811   24.9156 C   0  0  0  0  0  0
  -21.6059   -4.3076   24.7223 C   0  0  0  0  0  0
  -21.8798   -3.8149   23.4327 C   0  0  0  0  0  0
  -21.9191   -4.6951   22.3369 C   0  0  0  0  0  0
  -22.7711  -13.5143   21.2041 C   0  0  0  0  0  0
  -22.1657   -4.2100   21.0947 F   0  0  0  0  0  0
  -21.5621   -3.4554   25.7733 F   0  0  0  0  0  0
  -29.8469  -14.1301   20.3238 N   0  0  0  0  0  0
  -26.2737  -12.9738   20.3205 N   0  0  0  0  0  0
  -25.9404  -11.6761   20.5588 N   0  0  0  0  0  0
  -22.0352  -12.8089   22.0541 N   0  0  0  0  0  0
  -25.3920  -15.2098   20.4433 N   0  0  0  0  0  0
  -31.6497  -15.3971   20.1423 O   0  0  0  0  0  0
  -21.6651   -6.8902   21.4256 O   0  0  0  0  0  0
  -22.3375  -14.5430   20.6839 O   0  0  0  0  0  0
  -24.6764  -31.8109   23.1772 C   0  0  0  0  0  0
  -25.9367  -32.4568   23.8258 C   0  0  1  0  0  0
  -27.1367  -26.7451   20.1734 C   0  0  0  0  0  0
  -25.5987  -33.8389   24.2172 N   0  0  0  0  0  0
  -23.5060  -30.4166   21.5197 C   0  0  2  0  0  0
  -24.9762  -28.8285   20.0744 C   0  0  0  0  0  0
  -22.7846  -29.4230   22.4698 C   0  0  0  0  0  0
  -18.0409  -28.1438   22.8482 C   0  0  0  0  0  0
  -24.1475  -36.7211   23.2636 C   0  0  0  0  0  0
  -26.0804  -30.5231   21.4814 C   0  0  0  0  0  0
  -26.1272  -29.1021   20.8261 C   0  0  0  0  0  0
  -27.1733  -28.0496   20.9193 C   0  0  0  0  0  0
  -26.1478  -26.8661   19.1651 C   0  0  0  0  0  0
  -25.0324  -27.7378   19.2060 C   0  0  0  0  0  0
  -23.7716  -29.7718   20.1307 C   0  0  0  0  0  0
  -25.4155  -36.3021   24.0310 C   0  0  1  0  0  0
  -20.6026  -28.3795   23.1225 C   0  0  2  0  0  0
  -20.6864  -26.9457   22.5461 C   0  0  0  0  0  0
  -19.5827  -26.6405   21.5285 C   0  0  0  0  0  0
  -18.2012  -26.7997   22.1636 C   0  0  0  0  0  0
  -19.1649  -28.8960   23.2835 C   0  0  0  0  0  0
  -18.9494  -30.1514   23.8907 C   0  0  0  0  0  0
  -17.6461  -30.6585   24.0574 C   0  0  0  0  0  0
  -25.9119  -34.9356   23.5084 C   0  0  0  0  0  0
  -16.5375  -29.9083   23.6276 C   0  0  0  0  0  0
  -16.7369  -28.6503   23.0323 C   0  0  0  0  0  0
  -26.4582  -31.6559   25.0848 C   0  0  0  0  0  0
  -25.3660  -31.3797   26.1475 C   0  0  0  0  0  0
  -27.0489  -30.2905   24.6745 C   0  0  0  0  0  0
  -27.6168  -32.4330   25.7566 C   0  0  0  0  0  0
  -27.5598  -37.1844   24.8508 C   0  0  0  0  0  0
  -21.4479  -29.2997   22.3541 N   0  0  0  0  0  0
  -26.4349  -37.3752   23.9353 N   0  0  0  0  0  0
  -24.7743  -30.9550   22.1085 N   0  0  0  0  0  0
  -23.4275  -28.7831   23.3039 O   0  0  0  0  0  0
  -27.6639  -25.2506   20.3995 O   0  0  0  0  0  0
  -26.5708  -34.8855   22.4679 O   0  0  0  0  0  0
  -23.5755  -32.1110   23.6720 O   0  0  0  0  0  0
  -25.6843  -24.9660   21.2998 C   0  0  0  0  0  0
  -28.5413  -23.9638   21.9414 C   0  0  0  0  0  0
  -27.0547  -24.8365   22.4304 C   0  0  0  0  0  0
  -25.8710  -24.1311   19.7808 C   0  0  0  0  0  0
  -28.5432  -23.0755   20.4360 C   0  0  0  0  0  0
  -24.6463  -23.8657   18.9053 C   0  0  0  0  0  0
  -30.7022  -22.0736   19.9606 C   0  0  0  0  0  0
  -26.5081  -24.3293   23.7140 C   0  0  0  0  0  0
  -25.9875  -23.0227   23.1181 C   0  0  0  0  0  0
  -29.9705  -18.4770   20.1979 C   0  0  0  0  0  0
  -29.1297  -20.0753   20.6843 C   0  0  0  0  0  0
  -26.5311  -22.8777   21.6248 C   0  0  0  0  0  0
  -27.2558  -23.2788   19.4310 N   0  0  0  0  0  0
  -29.7209  -16.7900   20.4852 N   0  0  0  0  0  0
  -29.3101  -21.7012   20.2584 N   0  0  0  0  0  0
  -31.4514  -13.1314   19.2470 H   0  0  0  0  0  0
  -30.4778  -12.0679   20.1912 H   0  0  0  0  0  0
  -29.9818  -11.8819   17.6977 H   0  0  0  0  0  0
  -29.5725  -13.5757   17.6755 H   0  0  0  0  0  0
  -28.0126  -11.3437   19.0091 H   0  0  0  0  0  0
  -27.4614  -12.4797   17.8077 H   0  0  0  0  0  0
  -27.4641  -14.2728   19.2833 H   0  0  0  0  0  0
  -28.8225  -12.7099   21.5242 H   0  0  0  0  0  0
  -28.2261  -14.3557   21.6431 H   0  0  0  0  0  0
  -25.2756   -9.5683   22.4853 H   0  0  0  0  0  0
  -23.9992   -7.4585   22.7405 H   0  0  0  0  0  0
  -21.0895   -8.8833   19.8939 H   0  0  0  0  0  0
  -22.3726  -10.9747   19.6154 H   0  0  0  0  0  0
  -21.2045   -7.6140   23.9697 H   0  0  0  0  0  0
  -21.1536   -6.0531   25.9067 H   0  0  0  0  0  0
  -22.0606   -2.7604   23.2832 H   0  0  0  0  0  0
  -22.3941  -11.9763   22.4918 H   0  0  0  0  0  0
  -21.0956  -13.1135   22.2605 H   0  0  0  0  0  0
  -24.6430  -15.8873   20.5361 H   0  0  0  0  0  0
  -26.2535  -15.6453   20.1426 H   0  0  0  0  0  0
  -26.7468  -32.5053   23.0975 H   0  0  0  0  0  0
  -25.0159  -33.9459   25.0346 H   0  0  0  0  0  0
  -22.8263  -31.2506   21.3578 H   0  0  0  0  0  0
  -23.3764  -35.9523   23.3371 H   0  0  0  0  0  0
  -24.3509  -36.8765   22.2031 H   0  0  0  0  0  0
  -23.7177  -37.6423   23.6607 H   0  0  0  0  0  0
  -26.3025  -31.2378   20.6872 H   0  0  0  0  0  0
  -26.9306  -30.5927   22.1391 H   0  0  0  0  0  0
  -27.9447  -28.1538   21.6723 H   0  0  0  0  0  0
  -26.1288  -26.1180   18.3852 H   0  0  0  0  0  0
  -24.2579  -27.6047   18.4576 H   0  0  0  0  0  0
  -23.9533  -30.5595   19.3983 H   0  0  0  0  0  0
  -22.8818  -29.2466   19.7871 H   0  0  0  0  0  0
  -25.1333  -36.1931   25.0813 H   0  0  0  0  0  0
  -21.0098  -28.3404   24.1349 H   0  0  0  0  0  0
  -20.5825  -26.2408   23.3715 H   0  0  0  0  0  0
  -21.6739  -26.7474   22.1222 H   0  0  0  0  0  0
  -19.6968  -25.6324   21.1322 H   0  0  0  0  0  0
  -19.6738  -27.3219   20.6819 H   0  0  0  0  0  0
  -17.4309  -26.6823   21.3988 H   0  0  0  0  0  0
  -18.0279  -26.0151   22.9004 H   0  0  0  0  0  0
  -19.7927  -30.7364   24.2276 H   0  0  0  0  0  0
  -17.4948  -31.6233   24.5228 H   0  0  0  0  0  0
  -15.5335  -30.2929   23.7594 H   0  0  0  0  0  0
  -15.8776  -28.0810   22.6987 H   0  0  0  0  0  0
  -24.6131  -30.6796   25.7848 H   0  0  0  0  0  0
  -24.8441  -32.2881   26.4496 H   0  0  0  0  0  0
  -25.7847  -30.9389   27.0525 H   0  0  0  0  0  0
  -26.3198  -29.6610   24.1651 H   0  0  0  0  0  0
  -27.3825  -29.7294   25.5476 H   0  0  0  0  0  0
  -27.9244  -30.4086   24.0358 H   0  0  0  0  0  0
  -27.2988  -33.3835   26.1861 H   0  0  0  0  0  0
  -28.4079  -32.6535   25.0383 H   0  0  0  0  0  0
  -28.0735  -31.8601   26.5655 H   0  0  0  0  0  0
  -28.2765  -38.0002   24.7408 H   0  0  0  0  0  0
  -28.0943  -36.2534   24.6559 H   0  0  0  0  0  0
  -27.2267  -37.1786   25.8907 H   0  0  0  0  0  0
  -20.9793  -29.8669   21.6615 H   0  0  0  0  0  0
  -26.0238  -38.2864   24.1213 H   0  0  0  0  0  0
  -24.6974  -25.2982   21.5892 H   0  0  0  0  0  0
  -29.2518  -23.7125   22.7159 H   0  0  0  0  0  0
  -23.7652  -24.3565   19.3396 H   0  0  0  0  0  0
  -24.3895  -22.8129   18.8734 H   0  0  0  0  0  0
  -24.7728  -24.2150   17.8752 H   0  0  0  0  0  0
  -31.3380  -22.0538   20.8515 H   0  0  0  0  0  0
  -30.8015  -23.0964   19.5656 H   0  0  0  0  0  0
  -31.1258  -21.3960   19.2113 H   0  0  0  0  0  0
  -25.6952  -24.9641   24.0869 H   0  0  0  0  0  0
  -27.2670  -24.1735   24.4813 H   0  0  0  0  0  0
  -24.8936  -23.0439   23.0897 H   0  0  0  0  0  0
  -26.2386  -22.1494   23.7262 H   0  0  0  0  0  0
  -29.9369  -18.5103   19.1101 H   0  0  0  0  0  0
  -31.0316  -18.6128   20.4097 H   0  0  0  0  0  0
  -29.2720  -20.1166   21.7666 H   0  0  0  0  0  0
  -28.0661  -19.8730   20.5620 H   0  0  0  0  0  0
  -25.7052  -22.3275   21.1465 H   0  0  0  0  0  0
  -27.1148  -21.9638   21.7732 H   0  0  0  0  0  0
  -28.7457  -16.6192   20.6901 H   0  0  0  0  0  0
  1 25  1  0  0  0
  1 30  2  0  0  0
  1 84  1  0  0  0
  2  3  1  0  0  0
  2 25  1  0  0  0
  2 86  1  0  0  0
  2 87  1  0  0  0
  3  4  1  0  0  0
  3 88  1  0  0  0
  3 89  1  0  0  0
  4  5  1  0  0  0
  4 90  1  0  0  0
  4 91  1  0  0  0
  5  6  1  0  0  0
  5 26  1  0  0  0
  5 92  1  0  0  0
  6 25  1  0  0  0
  6 93  1  0  0  0
  6 94  1  0  0  0
  7  8  2  0  0  0
  7 26  1  0  0  0
  7 29  1  0  0  0
  8  9  1  0  0  0
  8 22  1  0  0  0
  9 10  1  0  0  0
  9 27  2  0  0  0
 10 11  2  0  0  0
 10 15  1  0  0  0
 11 12  1  0  0  0
 11 95  1  0  0  0
 12 13  2  0  0  0
 12 96  1  0  0  0
 13 14  1  0  0  0
 13 31  1  0  0  0
 14 15  2  0  0  0
 14 97  1  0  0  0
 15 98  1  0  0  0
 16 17  2  0  0  0
 16 21  1  0  0  0
 16 31  1  0  0  0
 17 18  1  0  0  0
 17 99  1  0  0  0
 18 19  2  0  0  0
 18100  1  0  0  0
 19 20  1  0  0  0
 19 24  1  0  0  0
 20 21  2  0  0  0
 20101  1  0  0  0
 21 23  1  0  0  0
 22 28  1  0  0  0
 22 32  2  0  0  0
 26 27  1  0  0  0
 28102  1  0  0  0
 28103  1  0  0  0
 29104  1  0  0  0
 29105  1  0  0  0
 33 34  1  0  0  0
 33 66  1  0  0  0
 33 70  2  0  0  0
 34 36  1  0  0  0
 34 59  1  0  0  0
 34106  1  0  0  0
 35 44  2  0  0  0
 35 45  1  0  0  0
 35 68  1  0  0  0
 36 56  1  0  0  0
 36107  1  0  0  0
 37 39  1  0  0  0
 37 47  1  0  0  0
 37 66  1  0  0  0
 37108  1  0  0  0
 38 43  2  0  0  0
 38 46  1  0  0  0
 38 47  1  0  0  0
 39 64  1  0  0  0
 39 67  2  0  0  0
 40 52  1  0  0  0
 40 53  2  0  0  0
 40 58  1  0  0  0
 41109  1  0  0  0
 41110  1  0  0  0
 41111  1  0  0  0
 41 48  1  0  0  0
 42 43  1  0  0  0
 42 66  1  0  0  0
 42112  1  0  0  0
 42113  1  0  0  0
 43 44  1  0  0  0
 44114  1  0  0  0
 45 46  2  0  0  0
 45115  1  0  0  0
 46116  1  0  0  0
 47117  1  0  0  0
 47118  1  0  0  0
 48 56  1  0  0  0
 48 65  1  0  0  0
 48119  1  0  0  0
 49 50  1  0  0  0
 49 53  1  0  0  0
 49 64  1  0  0  0
 49120  1  0  0  0
 50 51  1  0  0  0
 50121  1  0  0  0
 50122  1  0  0  0
 51 52  1  0  0  0
 51123  1  0  0  0
 51124  1  0  0  0
 52125  1  0  0  0
 52126  1  0  0  0
 53 54  1  0  0  0
 54 55  2  0  0  0
 54127  1  0  0  0
 55 57  1  0  0  0
 55128  1  0  0  0
 56 69  2  0  0  0
 57 58  2  0  0  0
 57129  1  0  0  0
 58130  1  0  0  0
 59 60  1  0  0  0
 59 61  1  0  0  0
 59 62  1  0  0  0
 60131  1  0  0  0
 60132  1  0  0  0
 60133  1  0  0  0
 61134  1  0  0  0
 61135  1  0  0  0
 61136  1  0  0  0
 62137  1  0  0  0
 62138  1  0  0  0
 62139  1  0  0  0
 63 65  1  0  0  0
 63140  1  0  0  0
 63141  1  0  0  0
 63142  1  0  0  0
 64143  1  0  0  0
 65144  1  0  0  0
 68 82  1  0  0  0
 71 73  2  0  0  0
 71 74  1  0  0  0
 71145  1  0  0  0
 72 73  1  0  0  0
 72 75  2  0  0  0
 72146  1  0  0  0
 73 78  1  0  0  0
 74 76  1  0  0  0
 74 83  2  0  0  0
 75 83  1  0  0  0
 75 85  1  0  0  0
 76147  1  0  0  0
 76148  1  0  0  0
 76149  1  0  0  0
 77 85  1  0  0  0
 77150  1  0  0  0
 77151  1  0  0  0
 77152  1  0  0  0
 78 79  1  0  0  0
 78153  1  0  0  0
 78154  1  0  0  0
 79 82  1  0  0  0
 79155  1  0  0  0
 79156  1  0  0  0
 80 81  1  0  0  0
 80 84  1  0  0  0
 80157  1  0  0  0
 80158  1  0  0  0
 81 85  1  0  0  0
 81159  1  0  0  0
 81160  1  0  0  0
 82161  1  0  0  0
 82162  1  0  0  0
 84163  1  0  0  0
M  ISO  4   1 100  68 101  82 101  84 100
M  END
> <chiral flag>
0

> <version>
0

> <s_m_source_file>
/data/baiqing/PycharmProjects/Reinvent-master-3.2/result/LINK_invent/BTK/process_docking_weight1_custom_sum_contain_oxygen_bond_distance_aromatic_linkinvent_7_9_3/rearranged_h_0092.sdf

> <i_m_source_file_index>
73

> <r_mmod_Potential_Energy-OPLS-2005>
8189.9736328125

> <r_mmod_Stretch_Energy-OPLS-2005>
5136.41259765625

> <r_mmod_Bend_Energy-OPLS-2005>
582.399841308594

> <r_mmod_Torsional_Energy-OPLS-2005>
434.327056884766

> <r_mmod_Improper_Torsional_Energy-OPLS-2005>
36.6315116882324

> <r_mmod_Van_der_Waal_Energy-OPLS-2005>
1953.57409667969

> <r_mmod_Electrostatic_Energy-OPLS-2005>
-562.911560058594

> <r_mmod_Solvation_Energy-OPLS-2005>
-268.020690917969

> <b_mmod_Minimization_Converged-OPLS-2005>
0

> <r_mmod_RMS_Derivative-OPLS-2005>
15.7763891220093

$$$$
75
                    3D
 Structure written by MMmdl.
169177  0  0  1  0            999 V2000
  -30.6571  -14.5866   20.5182 C   0  0  0  0  0  0
  -30.4330  -12.3694   19.4288 C   0  0  0  0  0  0
  -29.4974  -12.4979   18.2074 C   0  0  0  0  0  0
  -28.0198  -12.3499   18.6254 C   0  0  0  0  0  0
  -27.6530  -13.2169   19.8594 C   0  0  2  0  0  0
  -28.7011  -13.0586   20.9823 C   0  0  0  0  0  0
  -25.2570  -13.8172   20.5702 C   0  0  0  0  0  0
  -24.1833  -13.0436   20.9185 C   0  0  0  0  0  0
  -24.6394  -11.6904   20.8724 C   0  0  0  0  0  0
  -23.9066  -10.4288   21.0393 C   0  0  0  0  0  0
  -24.3620   -9.4209   21.9175 C   0  0  0  0  0  0
  -23.6295   -8.2248   22.0755 C   0  0  0  0  0  0
  -22.4279   -8.0275   21.3543 C   0  0  0  0  0  0
  -21.9909   -9.0247   20.4647 C   0  0  0  0  0  0
  -22.7241  -10.2127   20.3047 C   0  0  0  0  0  0
  -21.6852   -6.0731   22.5277 C   0  0  0  0  0  0
  -21.4013   -6.5636   23.8208 C   0  0  0  0  0  0
  -21.3655   -5.6789   24.9174 C   0  0  0  0  0  0
  -21.6044   -4.3054   24.7224 C   0  0  0  0  0  0
  -21.8819   -3.8145   23.4348 C   0  0  0  0  0  0
  -21.9196   -4.6960   22.3407 C   0  0  0  0  0  0
  -22.7851  -13.5224   21.1850 C   0  0  0  0  0  0
  -22.1662   -4.2148   21.0976 F   0  0  0  0  0  0
  -21.5631   -3.4539   25.7736 F   0  0  0  0  0  0
  -30.0152  -13.3861   20.4102 N   0  0  0  0  0  0
  -26.2996  -12.9359   20.3321 N   0  0  0  0  0  0
  -25.9327  -11.6512   20.5749 N   0  0  0  0  0  0
  -22.0506  -12.8199   22.0399 N   0  0  0  0  0  0
  -25.4284  -15.1898   20.4175 N   0  0  0  0  0  0
  -31.8265  -14.7399   20.1566 O   0  0  0  0  0  0
  -21.6636   -6.8876   21.4236 O   0  0  0  0  0  0
  -22.3531  -14.5530   20.6703 O   0  0  0  0  0  0
  -24.6170  -31.8590   23.2007 C   0  0  0  0  0  0
  -25.9040  -32.4760   23.8316 C   0  0  1  0  0  0
  -27.2289  -27.3606   20.1039 C   0  0  0  0  0  0
  -25.5831  -33.8569   24.2213 N   0  0  0  0  0  0
  -23.4085  -30.4809   21.5417 C   0  0  2  0  0  0
  -24.8547  -28.9334   20.1121 C   0  0  0  0  0  0
  -22.7418  -29.4619   22.4949 C   0  0  0  0  0  0
  -18.0267  -28.1417   22.8476 C   0  0  0  0  0  0
  -24.1475  -36.7350   23.2632 C   0  0  0  0  0  0
  -25.9423  -30.8061   21.3574 C   0  0  0  0  0  0
  -26.0172  -29.4319   20.7097 C   0  0  0  0  0  0
  -27.2028  -28.6519   20.7022 C   0  0  0  0  0  0
  -26.0431  -26.8892   19.5003 C   0  0  0  0  0  0
  -24.8659  -27.6657   19.5038 C   0  0  0  0  0  0
  -23.6181  -29.8070   20.1592 C   0  0  0  0  0  0
  -25.4097  -36.3084   24.0303 C   0  0  1  0  0  0
  -20.5863  -28.3699   23.1340 C   0  0  2  0  0  0
  -20.6786  -26.9427   22.5460 C   0  0  0  0  0  0
  -19.5772  -26.6409   21.5243 C   0  0  0  0  0  0
  -18.1930  -26.7954   22.1625 C   0  0  0  0  0  0
  -19.1523  -28.8873   23.2897 C   0  0  0  0  0  0
  -18.9456  -30.1476   23.8909 C   0  0  0  0  0  0
  -17.6467  -30.6616   24.0586 C   0  0  0  0  0  0
  -25.9041  -34.9444   23.5085 C   0  0  0  0  0  0
  -16.5356  -29.9137   23.6344 C   0  0  0  0  0  0
  -16.7261  -28.6569   23.0327 C   0  0  0  0  0  0
  -26.4426  -31.6563   25.0688 C   0  0  0  0  0  0
  -25.3684  -31.3727   26.1446 C   0  0  0  0  0  0
  -27.0202  -30.2962   24.6112 C   0  0  0  0  0  0
  -27.5971  -32.4300   25.7497 C   0  0  0  0  0  0
  -27.5563  -37.1807   24.8434 C   0  0  0  0  0  0
  -21.4148  -29.3043   22.3713 N   0  0  0  0  0  0
  -26.4266  -37.3778   23.9398 N   0  0  0  0  0  0
  -24.6752  -31.0653   22.0914 N   0  0  0  0  0  0
  -23.4170  -28.8174   23.3017 O   0  0  0  0  0  0
  -28.4023  -26.6126   20.1496 O   0  0  0  0  0  0
  -26.5661  -34.8919   22.4687 O   0  0  0  0  0  0
  -23.5366  -32.1355   23.7390 O   0  0  0  0  0  0
  -28.4266  -22.1287   18.0343 C   0  0  0  0  0  0
  -28.6828  -21.7020   19.3659 C   0  0  0  0  0  0
  -28.1973  -21.0458   17.2469 C   0  0  0  0  0  0
  -28.6836  -20.3016   19.3412 C   0  0  0  0  0  0
  -27.9072  -20.9941   15.7782 C   0  0  0  0  0  0
  -26.0272  -16.9405   17.0727 C   0  0  0  0  0  0
  -28.9292  -22.7091   20.5044 C   0  0  0  0  0  0
  -28.9442  -19.2150   20.4065 C   0  0  0  0  0  0
  -26.4013  -18.3237   17.6208 C   0  0  0  0  0  0
  -28.0907  -24.0597   20.5294 C   0  0  0  0  0  0
  -30.1335  -18.1906   20.1854 C   0  0  0  0  0  0
  -27.9181  -18.5754   17.5862 C   0  0  0  0  0  0
  -30.3129  -17.0350   21.2460 C   0  0  0  0  0  0
  -28.5158  -25.2604   19.6059 C   0  0  0  0  0  0
  -28.2624  -19.9214   18.0559 N   0  0  0  0  0  0
  -29.8887  -15.6475   20.8911 N   0  0  0  0  0  0
  -31.4733  -12.4917   19.1203 H   0  0  0  0  0  0
  -30.3654  -11.3724   19.8667 H   0  0  0  0  0  0
  -29.7486  -11.7427   17.4610 H   0  0  0  0  0  0
  -29.6478  -13.4658   17.7262 H   0  0  0  0  0  0
  -27.8455  -11.2963   18.8495 H   0  0  0  0  0  0
  -27.3655  -12.5930   17.7878 H   0  0  0  0  0  0
  -27.6740  -14.2541   19.5245 H   0  0  0  0  0  0
  -28.7074  -12.0359   21.3611 H   0  0  0  0  0  0
  -28.4603  -13.6923   21.8377 H   0  0  0  0  0  0
  -25.2765   -9.5681   22.4749 H   0  0  0  0  0  0
  -24.0000   -7.4637   22.7479 H   0  0  0  0  0  0
  -21.0842   -8.8763   19.8955 H   0  0  0  0  0  0
  -22.3697  -10.9659   19.6155 H   0  0  0  0  0  0
  -21.1998   -7.6143   23.9709 H   0  0  0  0  0  0
  -21.1478   -6.0519   25.9068 H   0  0  0  0  0  0
  -22.0603   -2.7607   23.2846 H   0  0  0  0  0  0
  -22.4128  -11.9852   22.4757 H   0  0  0  0  0  0
  -21.1122  -13.1206   22.2618 H   0  0  0  0  0  0
  -24.6609  -15.8427   20.5314 H   0  0  0  0  0  0
  -26.2798  -15.6331   20.0973 H   0  0  0  0  0  0
  -26.7103  -32.5436   23.1070 H   0  0  0  0  0  0
  -24.9768  -33.9685   25.0208 H   0  0  0  0  0  0
  -22.7017  -31.3009   21.3976 H   0  0  0  0  0  0
  -23.3686  -35.9722   23.3270 H   0  0  0  0  0  0
  -24.3570  -36.9050   22.2055 H   0  0  0  0  0  0
  -23.7294  -37.6563   23.6708 H   0  0  0  0  0  0
  -26.0535  -31.5626   20.5789 H   0  0  0  0  0  0
  -26.8304  -30.8676   21.9746 H   0  0  0  0  0  0
  -28.1027  -29.0280   21.1692 H   0  0  0  0  0  0
  -26.0032  -25.9163   19.0330 H   0  0  0  0  0  0
  -23.9668  -27.2785   19.0452 H   0  0  0  0  0  0
  -23.7238  -30.5792   19.3961 H   0  0  0  0  0  0
  -22.7386  -29.2284   19.8641 H   0  0  0  0  0  0
  -25.1270  -36.1917   25.0785 H   0  0  0  0  0  0
  -20.9932  -28.3302   24.1474 H   0  0  0  0  0  0
  -20.5775  -26.2276   23.3641 H   0  0  0  0  0  0
  -21.6654  -26.7539   22.1208 H   0  0  0  0  0  0
  -19.6976  -25.6329   21.1268 H   0  0  0  0  0  0
  -19.6760  -27.3237   20.6790 H   0  0  0  0  0  0
  -17.4218  -26.6686   21.4011 H   0  0  0  0  0  0
  -18.0331  -26.0103   22.9033 H   0  0  0  0  0  0
  -19.7937  -30.7277   24.2278 H   0  0  0  0  0  0
  -17.5036  -31.6292   24.5195 H   0  0  0  0  0  0
  -15.5369  -30.3055   23.7680 H   0  0  0  0  0  0
  -15.8647  -28.0941   22.7001 H   0  0  0  0  0  0
  -24.5922  -30.6960   25.7875 H   0  0  0  0  0  0
  -24.8776  -32.2879   26.4758 H   0  0  0  0  0  0
  -25.8047  -30.9079   27.0297 H   0  0  0  0  0  0
  -26.2742  -29.6806   24.1068 H   0  0  0  0  0  0
  -27.3785  -29.7138   25.4613 H   0  0  0  0  0  0
  -27.8664  -30.4188   23.9352 H   0  0  0  0  0  0
  -27.2522  -33.3591   26.2050 H   0  0  0  0  0  0
  -28.3802  -32.6884   25.0359 H   0  0  0  0  0  0
  -28.0563  -31.8427   26.5458 H   0  0  0  0  0  0
  -28.2540  -38.0128   24.7473 H   0  0  0  0  0  0
  -28.1090  -36.2666   24.6235 H   0  0  0  0  0  0
  -27.2298  -37.1456   25.8837 H   0  0  0  0  0  0
  -20.9307  -29.8718   21.6896 H   0  0  0  0  0  0
  -26.0141  -38.2847   24.1417 H   0  0  0  0  0  0
  -28.4014  -23.1481   17.6785 H   0  0  0  0  0  0
  -27.7516  -21.9967   15.3786 H   0  0  0  0  0  0
  -27.0136  -20.4134   15.5523 H   0  0  0  0  0  0
  -28.7445  -20.5528   15.2353 H   0  0  0  0  0  0
  -24.9477  -16.7876   17.0980 H   0  0  0  0  0  0
  -26.4869  -16.1428   17.6569 H   0  0  0  0  0  0
  -26.3526  -16.8267   16.0375 H   0  0  0  0  0  0
  -29.9942  -22.9422   20.5197 H   0  0  0  0  0  0
  -28.7326  -22.1780   21.4351 H   0  0  0  0  0  0
  -28.0261  -18.6453   20.5485 H   0  0  0  0  0  0
  -29.1104  -19.7096   21.3639 H   0  0  0  0  0  0
  -26.0396  -18.4180   18.6457 H   0  0  0  0  0  0
  -25.8789  -19.0875   17.0455 H   0  0  0  0  0  0
  -28.1688  -24.4379   21.5493 H   0  0  0  0  0  0
  -27.0293  -23.8466   20.3980 H   0  0  0  0  0  0
  -31.0444  -18.7906   20.2126 H   0  0  0  0  0  0
  -30.1599  -17.7569   19.1912 H   0  0  0  0  0  0
  -28.3087  -18.4425   16.5761 H   0  0  0  0  0  0
  -28.3931  -17.8136   18.1892 H   0  0  0  0  0  0
  -29.7872  -17.3160   22.1587 H   0  0  0  0  0  0
  -31.3643  -16.9969   21.5360 H   0  0  0  0  0  0
  -28.0360  -25.1920   18.6306 H   0  0  0  0  0  0
  -29.5797  -25.1420   19.3961 H   0  0  0  0  0  0
  -28.9260  -15.4193   21.0871 H   0  0  0  0  0  0
  1 25  1  0  0  0
  1 30  2  0  0  0
  1 86  1  0  0  0
  2  3  1  0  0  0
  2 25  1  0  0  0
  2 87  1  0  0  0
  2 88  1  0  0  0
  3  4  1  0  0  0
  3 89  1  0  0  0
  3 90  1  0  0  0
  4  5  1  0  0  0
  4 91  1  0  0  0
  4 92  1  0  0  0
  5  6  1  0  0  0
  5 26  1  0  0  0
  5 93  1  0  0  0
  6 25  1  0  0  0
  6 94  1  0  0  0
  6 95  1  0  0  0
  7  8  2  0  0  0
  7 26  1  0  0  0
  7 29  1  0  0  0
  8  9  1  0  0  0
  8 22  1  0  0  0
  9 10  1  0  0  0
  9 27  2  0  0  0
 10 11  2  0  0  0
 10 15  1  0  0  0
 11 12  1  0  0  0
 11 96  1  0  0  0
 12 13  2  0  0  0
 12 97  1  0  0  0
 13 14  1  0  0  0
 13 31  1  0  0  0
 14 15  2  0  0  0
 14 98  1  0  0  0
 15 99  1  0  0  0
 16 17  2  0  0  0
 16 21  1  0  0  0
 16 31  1  0  0  0
 17 18  1  0  0  0
 17100  1  0  0  0
 18 19  2  0  0  0
 18101  1  0  0  0
 19 20  1  0  0  0
 19 24  1  0  0  0
 20 21  2  0  0  0
 20102  1  0  0  0
 21 23  1  0  0  0
 22 28  1  0  0  0
 22 32  2  0  0  0
 26 27  1  0  0  0
 28103  1  0  0  0
 28104  1  0  0  0
 29105  1  0  0  0
 29106  1  0  0  0
 33 34  1  0  0  0
 33 66  1  0  0  0
 33 70  2  0  0  0
 34 36  1  0  0  0
 34 59  1  0  0  0
 34107  1  0  0  0
 35 44  2  0  0  0
 35 45  1  0  0  0
 35 68  1  0  0  0
 36 56  1  0  0  0
 36108  1  0  0  0
 37 39  1  0  0  0
 37 47  1  0  0  0
 37 66  1  0  0  0
 37109  1  0  0  0
 38 43  2  0  0  0
 38 46  1  0  0  0
 38 47  1  0  0  0
 39 64  1  0  0  0
 39 67  2  0  0  0
 40 52  1  0  0  0
 40 53  2  0  0  0
 40 58  1  0  0  0
 41110  1  0  0  0
 41111  1  0  0  0
 41112  1  0  0  0
 41 48  1  0  0  0
 42 43  1  0  0  0
 42 66  1  0  0  0
 42113  1  0  0  0
 42114  1  0  0  0
 43 44  1  0  0  0
 44115  1  0  0  0
 45 46  2  0  0  0
 45116  1  0  0  0
 46117  1  0  0  0
 47118  1  0  0  0
 47119  1  0  0  0
 48 56  1  0  0  0
 48 65  1  0  0  0
 48120  1  0  0  0
 49 50  1  0  0  0
 49 53  1  0  0  0
 49 64  1  0  0  0
 49121  1  0  0  0
 50 51  1  0  0  0
 50122  1  0  0  0
 50123  1  0  0  0
 51 52  1  0  0  0
 51124  1  0  0  0
 51125  1  0  0  0
 52126  1  0  0  0
 52127  1  0  0  0
 53 54  1  0  0  0
 54 55  2  0  0  0
 54128  1  0  0  0
 55 57  1  0  0  0
 55129  1  0  0  0
 56 69  2  0  0  0
 57 58  2  0  0  0
 57130  1  0  0  0
 58131  1  0  0  0
 59 60  1  0  0  0
 59 61  1  0  0  0
 59 62  1  0  0  0
 60132  1  0  0  0
 60133  1  0  0  0
 60134  1  0  0  0
 61135  1  0  0  0
 61136  1  0  0  0
 61137  1  0  0  0
 62138  1  0  0  0
 62139  1  0  0  0
 62140  1  0  0  0
 63 65  1  0  0  0
 63141  1  0  0  0
 63142  1  0  0  0
 63143  1  0  0  0
 64144  1  0  0  0
 65145  1  0  0  0
 68 84  1  0  0  0
 71 72  1  0  0  0
 71 73  2  0  0  0
 71146  1  0  0  0
 72 74  2  0  0  0
 72 77  1  0  0  0
 73 75  1  0  0  0
 73 85  1  0  0  0
 74 78  1  0  0  0
 74 85  1  0  0  0
 75147  1  0  0  0
 75148  1  0  0  0
 75149  1  0  0  0
 76 79  1  0  0  0
 76150  1  0  0  0
 76151  1  0  0  0
 76152  1  0  0  0
 77 80  1  0  0  0
 77153  1  0  0  0
 77154  1  0  0  0
 78 81  1  0  0  0
 78155  1  0  0  0
 78156  1  0  0  0
 79 82  1  0  0  0
 79157  1  0  0  0
 79158  1  0  0  0
 80 84  1  0  0  0
 80159  1  0  0  0
 80160  1  0  0  0
 81 83  1  0  0  0
 81161  1  0  0  0
 81162  1  0  0  0
 82 85  1  0  0  0
 82163  1  0  0  0
 82164  1  0  0  0
 83 86  1  0  0  0
 83165  1  0  0  0
 83166  1  0  0  0
 84167  1  0  0  0
 84168  1  0  0  0
 86169  1  0  0  0
M  ISO  4   1 100  68 101  84 101  86 100
M  END
> <chiral flag>
0

> <version>
0

> <s_m_source_file>
/data/baiqing/PycharmProjects/Reinvent-master-3.2/result/LINK_invent/BTK/process_docking_weight1_custom_sum_contain_oxygen_bond_distance_aromatic_linkinvent_7_9_3/rearranged_h_0092.sdf

> <i_m_source_file_index>
74

> <r_mmod_Potential_Energy-OPLS-2005>
-12.4407072067261

> <r_mmod_Stretch_Energy-OPLS-2005>
64.3075180053711

> <r_mmod_Bend_Energy-OPLS-2005>
146.14631652832

> <r_mmod_Torsional_Energy-OPLS-2005>
233.043319702148

> <r_mmod_Improper_Torsional_Energy-OPLS-2005>
3.8514883518219

> <r_mmod_Van_der_Waal_Energy-OPLS-2005>
112.272010803223

> <r_mmod_Electrostatic_Energy-OPLS-2005>
-395.299896240234

> <r_mmod_Solvation_Energy-OPLS-2005>
-208.786605834961

> <b_mmod_Minimization_Converged-OPLS-2005>
0

> <r_mmod_RMS_Derivative-OPLS-2005>
2.62041139602661

$$$$
76
                    3D
 Structure written by MMmdl.
163171  0  0  1  0            999 V2000
  -30.6940  -14.4814   20.6450 C   0  0  0  0  0  0
  -30.4266  -12.3336   19.4407 C   0  0  0  0  0  0
  -29.4959  -12.5294   18.2247 C   0  0  0  0  0  0
  -28.0151  -12.3812   18.6308 C   0  0  0  0  0  0
  -27.6598  -13.2091   19.8907 C   0  0  2  0  0  0
  -28.6910  -12.9581   21.0078 C   0  0  0  0  0  0
  -25.2549  -13.8181   20.5715 C   0  0  0  0  0  0
  -24.1799  -13.0437   20.9211 C   0  0  0  0  0  0
  -24.6378  -11.6915   20.8791 C   0  0  0  0  0  0
  -23.9056  -10.4300   21.0453 C   0  0  0  0  0  0
  -24.3611   -9.4221   21.9220 C   0  0  0  0  0  0
  -23.6295   -8.2246   22.0768 C   0  0  0  0  0  0
  -22.4277   -8.0290   21.3548 C   0  0  0  0  0  0
  -21.9916   -9.0272   20.4656 C   0  0  0  0  0  0
  -22.7245  -10.2149   20.3090 C   0  0  0  0  0  0
  -21.6844   -6.0740   22.5289 C   0  0  0  0  0  0
  -21.4019   -6.5637   23.8233 C   0  0  0  0  0  0
  -21.3666   -5.6786   24.9182 C   0  0  0  0  0  0
  -21.6038   -4.3052   24.7227 C   0  0  0  0  0  0
  -21.8823   -3.8151   23.4352 C   0  0  0  0  0  0
  -21.9192   -4.6968   22.3405 C   0  0  0  0  0  0
  -22.7835  -13.5264   21.1866 C   0  0  0  0  0  0
  -22.1661   -4.2167   21.0984 F   0  0  0  0  0  0
  -21.5627   -3.4535   25.7736 F   0  0  0  0  0  0
  -30.0246  -13.3000   20.4802 N   0  0  0  0  0  0
  -26.2985  -12.9347   20.3428 N   0  0  0  0  0  0
  -25.9297  -11.6503   20.5818 N   0  0  0  0  0  0
  -22.0457  -12.8248   22.0427 N   0  0  0  0  0  0
  -25.4269  -15.1891   20.4143 N   0  0  0  0  0  0
  -31.7683  -14.6989   20.0709 O   0  0  0  0  0  0
  -21.6630   -6.8885   21.4247 O   0  0  0  0  0  0
  -22.3552  -14.5585   20.6740 O   0  0  0  0  0  0
  -24.6197  -31.8652   23.2005 C   0  0  0  0  0  0
  -25.9079  -32.4792   23.8333 C   0  0  1  0  0  0
  -27.2380  -27.3953   20.1005 C   0  0  0  0  0  0
  -25.5940  -33.8595   24.2300 N   0  0  0  0  0  0
  -23.4087  -30.4854   21.5423 C   0  0  2  0  0  0
  -24.8559  -28.9327   20.1190 C   0  0  0  0  0  0
  -22.7447  -29.4684   22.4963 C   0  0  0  0  0  0
  -18.0326  -28.1391   22.8472 C   0  0  0  0  0  0
  -24.1514  -36.7296   23.2640 C   0  0  0  0  0  0
  -25.9424  -30.8155   21.3594 C   0  0  0  0  0  0
  -26.0181  -29.4449   20.7105 C   0  0  0  0  0  0
  -27.2120  -28.6841   20.6948 C   0  0  0  0  0  0
  -26.0616  -26.9017   19.5018 C   0  0  0  0  0  0
  -24.8727  -27.6609   19.5144 C   0  0  0  0  0  0
  -23.6193  -29.8043   20.1631 C   0  0  0  0  0  0
  -25.4134  -36.3110   24.0352 C   0  0  1  0  0  0
  -20.5924  -28.3696   23.1311 C   0  0  2  0  0  0
  -20.6862  -26.9442   22.5418 C   0  0  0  0  0  0
  -19.5835  -26.6393   21.5230 C   0  0  0  0  0  0
  -18.1997  -26.7932   22.1608 C   0  0  0  0  0  0
  -19.1573  -28.8853   23.2876 C   0  0  0  0  0  0
  -18.9506  -30.1462   23.8881 C   0  0  0  0  0  0
  -17.6513  -30.6589   24.0571 C   0  0  0  0  0  0
  -25.9064  -34.9479   23.5127 C   0  0  0  0  0  0
  -16.5402  -29.9096   23.6335 C   0  0  0  0  0  0
  -16.7311  -28.6519   23.0325 C   0  0  0  0  0  0
  -26.4486  -31.6566   25.0672 C   0  0  0  0  0  0
  -25.3715  -31.3705   26.1385 C   0  0  0  0  0  0
  -27.0335  -30.3013   24.6049 C   0  0  0  0  0  0
  -27.6063  -32.4282   25.7429 C   0  0  0  0  0  0
  -27.5611  -37.1808   24.8477 C   0  0  0  0  0  0
  -21.4182  -29.3038   22.3685 N   0  0  0  0  0  0
  -26.4320  -37.3785   23.9422 N   0  0  0  0  0  0
  -24.6753  -31.0732   22.0909 N   0  0  0  0  0  0
  -23.4216  -28.8271   23.3054 O   0  0  0  0  0  0
  -28.4082  -26.6528   20.0584 O   0  0  0  0  0  0
  -26.5622  -34.8928   22.4682 O   0  0  0  0  0  0
  -23.5383  -32.1440   23.7392 O   0  0  0  0  0  0
  -29.0978  -19.6246   19.2369 C   0  0  0  0  0  0
  -29.1283  -20.4678   21.2887 C   0  0  0  0  0  0
  -29.0890  -19.2698   20.6170 C   0  0  0  0  0  0
  -29.1684  -20.9896   19.1145 C   0  0  0  0  0  0
  -29.2227  -21.8186   17.8734 C   0  0  0  0  0  0
  -27.5861  -25.3881   22.0658 C   0  0  0  0  0  0
  -29.8332  -15.4015   22.7374 C   0  0  0  0  0  0
  -29.0185  -17.8622   21.2213 C   0  0  0  0  0  0
  -28.5736  -24.0857   20.0674 C   0  0  0  0  0  0
  -29.3696  -22.9495   20.8055 C   0  0  0  0  0  0
  -30.1718  -16.8968   20.8042 C   0  0  0  0  0  0
  -28.5437  -25.4407   20.8553 C   0  0  1  0  0  0
  -29.1886  -21.5371   20.3944 N   0  0  0  0  0  0
  -30.0346  -15.4933   21.2844 N   0  0  0  0  0  0
  -31.4691  -12.4501   19.1393 H   0  0  0  0  0  0
  -30.3464  -11.3169   19.8293 H   0  0  0  0  0  0
  -29.7419  -11.8138   17.4382 H   0  0  0  0  0  0
  -29.6558  -13.5226   17.7996 H   0  0  0  0  0  0
  -27.8269  -11.3243   18.8196 H   0  0  0  0  0  0
  -27.3630  -12.6628   17.8039 H   0  0  0  0  0  0
  -27.7145  -14.2635   19.6195 H   0  0  0  0  0  0
  -28.6755  -11.9086   21.3057 H   0  0  0  0  0  0
  -28.4099  -13.5042   21.9040 H   0  0  0  0  0  0
  -25.2739   -9.5684   22.4812 H   0  0  0  0  0  0
  -23.9994   -7.4630   22.7487 H   0  0  0  0  0  0
  -21.0849   -8.8812   19.8964 H   0  0  0  0  0  0
  -22.3723  -10.9701   19.6219 H   0  0  0  0  0  0
  -21.2020   -7.6150   23.9744 H   0  0  0  0  0  0
  -21.1480   -6.0511   25.9091 H   0  0  0  0  0  0
  -22.0595   -2.7619   23.2842 H   0  0  0  0  0  0
  -22.3992  -11.9845   22.4748 H   0  0  0  0  0  0
  -21.1144  -13.1385   22.2728 H   0  0  0  0  0  0
  -24.6646  -15.8468   20.5382 H   0  0  0  0  0  0
  -26.2843  -15.6278   20.1002 H   0  0  0  0  0  0
  -26.7146  -32.5476   23.1086 H   0  0  0  0  0  0
  -25.0128  -33.9725   25.0474 H   0  0  0  0  0  0
  -22.6997  -31.3024   21.3951 H   0  0  0  0  0  0
  -23.3787  -35.9614   23.3309 H   0  0  0  0  0  0
  -24.3620  -36.8890   22.2049 H   0  0  0  0  0  0
  -23.7231  -37.6496   23.6627 H   0  0  0  0  0  0
  -26.0621  -31.5770   20.5884 H   0  0  0  0  0  0
  -26.8305  -30.8706   21.9782 H   0  0  0  0  0  0
  -28.1135  -29.0773   21.1430 H   0  0  0  0  0  0
  -26.0690  -25.9289   19.0300 H   0  0  0  0  0  0
  -23.9774  -27.2627   19.0596 H   0  0  0  0  0  0
  -23.7322  -30.5720   19.3981 H   0  0  0  0  0  0
  -22.7445  -29.2240   19.8622 H   0  0  0  0  0  0
  -25.1302  -36.1980   25.0843 H   0  0  0  0  0  0
  -21.0011  -28.3301   24.1432 H   0  0  0  0  0  0
  -20.5918  -26.2290   23.3594 H   0  0  0  0  0  0
  -21.6721  -26.7580   22.1143 H   0  0  0  0  0  0
  -19.7055  -25.6311   21.1242 H   0  0  0  0  0  0
  -19.6799  -27.3219   20.6778 H   0  0  0  0  0  0
  -17.4309  -26.6700   21.3968 H   0  0  0  0  0  0
  -18.0386  -26.0051   22.8976 H   0  0  0  0  0  0
  -19.7996  -30.7276   24.2238 H   0  0  0  0  0  0
  -17.5083  -31.6255   24.5192 H   0  0  0  0  0  0
  -15.5411  -30.3011   23.7652 H   0  0  0  0  0  0
  -15.8711  -28.0845   22.7037 H   0  0  0  0  0  0
  -24.5894  -30.7054   25.7706 H   0  0  0  0  0  0
  -24.8883  -32.2869   26.4773 H   0  0  0  0  0  0
  -25.8018  -30.8896   27.0166 H   0  0  0  0  0  0
  -26.2886  -29.6737   24.1133 H   0  0  0  0  0  0
  -27.4173  -29.7271   25.4490 H   0  0  0  0  0  0
  -27.8685  -30.4356   23.9166 H   0  0  0  0  0  0
  -27.2703  -33.3592   26.2003 H   0  0  0  0  0  0
  -28.3864  -32.6815   25.0241 H   0  0  0  0  0  0
  -28.0720  -31.8386   26.5327 H   0  0  0  0  0  0
  -28.2634  -38.0112   24.7557 H   0  0  0  0  0  0
  -28.1124  -36.2644   24.6284 H   0  0  0  0  0  0
  -27.2339  -37.1427   25.8886 H   0  0  0  0  0  0
  -20.9414  -29.8581   21.6713 H   0  0  0  0  0  0
  -26.0237  -38.2885   24.1374 H   0  0  0  0  0  0
  -29.0663  -18.9386   18.4000 H   0  0  0  0  0  0
  -29.1377  -20.6530   22.3555 H   0  0  0  0  0  0
  -28.3242  -22.4284   17.7824 H   0  0  0  0  0  0
  -29.2771  -21.1901   16.9849 H   0  0  0  0  0  0
  -30.0923  -22.4773   17.8643 H   0  0  0  0  0  0
  -27.7997  -24.5415   22.7157 H   0  0  0  0  0  0
  -26.5508  -25.2879   21.7449 H   0  0  0  0  0  0
  -27.6650  -26.2901   22.6734 H   0  0  0  0  0  0
  -28.7814  -15.5683   22.9772 H   0  0  0  0  0  0
  -30.4231  -16.1478   23.2701 H   0  0  0  0  0  0
  -30.1156  -14.4270   23.1439 H   0  0  0  0  0  0
  -28.0518  -17.4235   20.9700 H   0  0  0  0  0  0
  -29.0160  -17.9813   22.3063 H   0  0  0  0  0  0
  -29.0461  -24.2691   19.1032 H   0  0  0  0  0  0
  -27.5559  -23.7635   19.8536 H   0  0  0  0  0  0
  -29.1436  -22.9935   21.8696 H   0  0  0  0  0  0
  -30.4371  -23.1600   20.7397 H   0  0  0  0  0  0
  -31.1260  -17.2975   21.1510 H   0  0  0  0  0  0
  -30.2264  -16.8854   19.7150 H   0  0  0  0  0  0
  -29.5445  -25.5499   21.2771 H   0  0  0  0  0  0
  1 25  1  0  0  0
  1 30  2  0  0  0
  1 84  1  0  0  0
  2  3  1  0  0  0
  2 25  1  0  0  0
  2 85  1  0  0  0
  2 86  1  0  0  0
  3  4  1  0  0  0
  3 87  1  0  0  0
  3 88  1  0  0  0
  4  5  1  0  0  0
  4 89  1  0  0  0
  4 90  1  0  0  0
  5  6  1  0  0  0
  5 26  1  0  0  0
  5 91  1  0  0  0
  6 25  1  0  0  0
  6 92  1  0  0  0
  6 93  1  0  0  0
  7  8  2  0  0  0
  7 26  1  0  0  0
  7 29  1  0  0  0
  8  9  1  0  0  0
  8 22  1  0  0  0
  9 10  1  0  0  0
  9 27  2  0  0  0
 10 11  2  0  0  0
 10 15  1  0  0  0
 11 12  1  0  0  0
 11 94  1  0  0  0
 12 13  2  0  0  0
 12 95  1  0  0  0
 13 14  1  0  0  0
 13 31  1  0  0  0
 14 15  2  0  0  0
 14 96  1  0  0  0
 15 97  1  0  0  0
 16 17  2  0  0  0
 16 21  1  0  0  0
 16 31  1  0  0  0
 17 18  1  0  0  0
 17 98  1  0  0  0
 18 19  2  0  0  0
 18 99  1  0  0  0
 19 20  1  0  0  0
 19 24  1  0  0  0
 20 21  2  0  0  0
 20100  1  0  0  0
 21 23  1  0  0  0
 22 28  1  0  0  0
 22 32  2  0  0  0
 26 27  1  0  0  0
 28101  1  0  0  0
 28102  1  0  0  0
 29103  1  0  0  0
 29104  1  0  0  0
 33 34  1  0  0  0
 33 66  1  0  0  0
 33 70  2  0  0  0
 34 36  1  0  0  0
 34 59  1  0  0  0
 34105  1  0  0  0
 35 44  2  0  0  0
 35 45  1  0  0  0
 35 68  1  0  0  0
 36 56  1  0  0  0
 36106  1  0  0  0
 37 39  1  0  0  0
 37 47  1  0  0  0
 37 66  1  0  0  0
 37107  1  0  0  0
 38 43  2  0  0  0
 38 46  1  0  0  0
 38 47  1  0  0  0
 39 64  1  0  0  0
 39 67  2  0  0  0
 40 52  1  0  0  0
 40 53  2  0  0  0
 40 58  1  0  0  0
 41108  1  0  0  0
 41109  1  0  0  0
 41110  1  0  0  0
 41 48  1  0  0  0
 42 43  1  0  0  0
 42 66  1  0  0  0
 42111  1  0  0  0
 42112  1  0  0  0
 43 44  1  0  0  0
 44113  1  0  0  0
 45 46  2  0  0  0
 45114  1  0  0  0
 46115  1  0  0  0
 47116  1  0  0  0
 47117  1  0  0  0
 48 56  1  0  0  0
 48 65  1  0  0  0
 48118  1  0  0  0
 49 50  1  0  0  0
 49 53  1  0  0  0
 49 64  1  0  0  0
 49119  1  0  0  0
 50 51  1  0  0  0
 50120  1  0  0  0
 50121  1  0  0  0
 51 52  1  0  0  0
 51122  1  0  0  0
 51123  1  0  0  0
 52124  1  0  0  0
 52125  1  0  0  0
 53 54  1  0  0  0
 54 55  2  0  0  0
 54126  1  0  0  0
 55 57  1  0  0  0
 55127  1  0  0  0
 56 69  2  0  0  0
 57 58  2  0  0  0
 57128  1  0  0  0
 58129  1  0  0  0
 59 60  1  0  0  0
 59 61  1  0  0  0
 59 62  1  0  0  0
 60130  1  0  0  0
 60131  1  0  0  0
 60132  1  0  0  0
 61133  1  0  0  0
 61134  1  0  0  0
 61135  1  0  0  0
 62136  1  0  0  0
 62137  1  0  0  0
 62138  1  0  0  0
 63 65  1  0  0  0
 63139  1  0  0  0
 63140  1  0  0  0
 63141  1  0  0  0
 64142  1  0  0  0
 65143  1  0  0  0
 68 82  1  0  0  0
 71 73  1  0  0  0
 71 74  2  0  0  0
 71144  1  0  0  0
 72 73  2  0  0  0
 72 83  1  0  0  0
 72145  1  0  0  0
 73 78  1  0  0  0
 74 75  1  0  0  0
 74 83  1  0  0  0
 75146  1  0  0  0
 75147  1  0  0  0
 75148  1  0  0  0
 76149  1  0  0  0
 76150  1  0  0  0
 76151  1  0  0  0
 76 82  1  0  0  0
 77 84  1  0  0  0
 77152  1  0  0  0
 77153  1  0  0  0
 77154  1  0  0  0
 78 81  1  0  0  0
 78155  1  0  0  0
 78156  1  0  0  0
 79 80  1  0  0  0
 79 82  1  0  0  0
 79157  1  0  0  0
 79158  1  0  0  0
 80 83  1  0  0  0
 80159  1  0  0  0
 80160  1  0  0  0
 81 84  1  0  0  0
 81161  1  0  0  0
 81162  1  0  0  0
 82163  1  0  0  0
M  ISO  4   1 100  68 101  82 101  84 100
M  END
> <chiral flag>
0

> <version>
0

> <s_m_source_file>
/data/baiqing/PycharmProjects/Reinvent-master-3.2/result/LINK_invent/BTK/process_docking_weight1_custom_sum_contain_oxygen_bond_distance_aromatic_linkinvent_7_9_3/rearranged_h_0092.sdf

> <i_m_source_file_index>
75

> <r_mmod_Potential_Energy-OPLS-2005>
105.819717407227

> <r_mmod_Stretch_Energy-OPLS-2005>
49.3600311279297

> <r_mmod_Bend_Energy-OPLS-2005>
121.49683380127

> <r_mmod_Torsional_Energy-OPLS-2005>
307.395812988281

> <r_mmod_Improper_Torsional_Energy-OPLS-2005>
7.70826148986816

> <r_mmod_Van_der_Waal_Energy-OPLS-2005>
128.841537475586

> <r_mmod_Electrostatic_Energy-OPLS-2005>
-329.189697265625

> <r_mmod_Solvation_Energy-OPLS-2005>
-194.480590820312

> <b_mmod_Minimization_Converged-OPLS-2005>
0

> <r_mmod_RMS_Derivative-OPLS-2005>
3.6827335357666

$$$$
77
                    3D
 Structure written by MMmdl.
181189  0  0  1  0            999 V2000
  -30.6772  -14.6254   20.3824 C   0  0  0  0  0  0
  -30.4492  -12.3562   19.4253 C   0  0  0  0  0  0
  -29.5053  -12.3713   18.2045 C   0  0  0  0  0  0
  -28.0198  -12.2970   18.6223 C   0  0  0  0  0  0
  -27.6517  -13.1935   19.8408 C   0  0  2  0  0  0
  -28.7216  -13.1193   20.9539 C   0  0  0  0  0  0
  -25.2670  -13.8099   20.5715 C   0  0  0  0  0  0
  -24.1886  -13.0388   20.9147 C   0  0  0  0  0  0
  -24.6443  -11.6877   20.8717 C   0  0  0  0  0  0
  -23.9081  -10.4288   21.0392 C   0  0  0  0  0  0
  -24.3639   -9.4217   21.9176 C   0  0  0  0  0  0
  -23.6335   -8.2246   22.0759 C   0  0  0  0  0  0
  -22.4306   -8.0292   21.3547 C   0  0  0  0  0  0
  -21.9927   -9.0265   20.4645 C   0  0  0  0  0  0
  -22.7240  -10.2156   20.3059 C   0  0  0  0  0  0
  -21.6895   -6.0791   22.5298 C   0  0  0  0  0  0
  -21.4030   -6.5705   23.8231 C   0  0  0  0  0  0
  -21.3644   -5.6841   24.9182 C   0  0  0  0  0  0
  -21.6041   -4.3093   24.7227 C   0  0  0  0  0  0
  -21.8818   -3.8207   23.4349 C   0  0  0  0  0  0
  -21.9184   -4.7017   22.3407 C   0  0  0  0  0  0
  -22.7928  -13.5219   21.1816 C   0  0  0  0  0  0
  -22.1633   -4.2219   21.0968 F   0  0  0  0  0  0
  -21.5640   -3.4539   25.7721 F   0  0  0  0  0  0
  -30.0183  -13.4275   20.3390 N   0  0  0  0  0  0
  -26.3044  -12.9217   20.3316 N   0  0  0  0  0  0
  -25.9356  -11.6398   20.5756 N   0  0  0  0  0  0
  -22.0592  -12.8202   22.0386 N   0  0  0  0  0  0
  -25.4465  -15.1815   20.4203 N   0  0  0  0  0  0
  -31.8995  -14.6961   20.2372 O   0  0  0  0  0  0
  -21.6671   -6.8891   21.4250 O   0  0  0  0  0  0
  -22.3586  -14.5501   20.6678 O   0  0  0  0  0  0
  -24.6243  -31.8665   23.2059 C   0  0  0  0  0  0
  -25.9111  -32.4842   23.8349 C   0  0  1  0  0  0
  -27.2301  -27.3718   20.1086 C   0  0  0  0  0  0
  -25.5942  -33.8635   24.2296 N   0  0  0  0  0  0
  -23.4157  -30.4954   21.5469 C   0  0  2  0  0  0
  -24.8616  -28.9588   20.1069 C   0  0  0  0  0  0
  -22.7460  -29.4698   22.4936 C   0  0  0  0  0  0
  -18.0291  -28.1427   22.8474 C   0  0  0  0  0  0
  -24.1504  -36.7319   23.2634 C   0  0  0  0  0  0
  -25.9518  -30.8153   21.3692 C   0  0  0  0  0  0
  -26.0250  -29.4458   20.7125 C   0  0  0  0  0  0
  -27.2078  -28.6573   20.7135 C   0  0  0  0  0  0
  -26.0463  -26.9281   19.4728 C   0  0  0  0  0  0
  -24.8726  -27.7037   19.4784 C   0  0  0  0  0  0
  -23.6267  -29.8306   20.1618 C   0  0  0  0  0  0
  -25.4139  -36.3111   24.0322 C   0  0  1  0  0  0
  -20.5900  -28.3724   23.1313 C   0  0  2  0  0  0
  -20.6813  -26.9455   22.5429 C   0  0  0  0  0  0
  -19.5771  -26.6411   21.5254 C   0  0  0  0  0  0
  -18.1948  -26.7980   22.1621 C   0  0  0  0  0  0
  -19.1549  -28.8887   23.2906 C   0  0  0  0  0  0
  -18.9449  -30.1475   23.8920 C   0  0  0  0  0  0
  -17.6463  -30.6607   24.0571 C   0  0  0  0  0  0
  -25.9060  -34.9484   23.5109 C   0  0  0  0  0  0
  -16.5358  -29.9093   23.6330 C   0  0  0  0  0  0
  -16.7302  -28.6526   23.0353 C   0  0  0  0  0  0
  -26.4497  -31.6633   25.0696 C   0  0  0  0  0  0
  -25.3714  -31.3739   26.1400 C   0  0  0  0  0  0
  -27.0354  -30.3077   24.6101 C   0  0  0  0  0  0
  -27.6074  -32.4348   25.7472 C   0  0  0  0  0  0
  -27.5596  -37.1803   24.8457 C   0  0  0  0  0  0
  -21.4184  -29.3079   22.3692 N   0  0  0  0  0  0
  -26.4315  -37.3799   23.9414 N   0  0  0  0  0  0
  -24.6816  -31.0740   22.0972 N   0  0  0  0  0  0
  -23.4212  -28.8212   23.2992 O   0  0  0  0  0  0
  -28.3724  -26.5727   20.1634 O   0  0  0  0  0  0
  -26.5591  -34.8928   22.4643 O   0  0  0  0  0  0
  -23.5392  -32.1444   23.7380 O   0  0  0  0  0  0
  -31.5933  -21.4152   22.0021 C   0  0  0  0  0  0
  -32.7099  -20.5331   22.0522 C   0  0  0  0  0  0
  -30.5765  -20.8383   21.2919 C   0  0  0  0  0  0
  -32.3653  -19.4368   21.3007 C   0  0  0  0  0  0
  -35.1610  -17.5700   19.2895 C   0  0  0  0  0  0
  -33.6653  -19.2559   24.7185 C   0  0  0  0  0  0
  -35.4732  -21.0056   24.8378 C   0  0  0  0  0  0
  -29.3830  -16.0573   18.9245 C   0  0  0  0  0  0
  -34.0434  -20.8312   22.7353 C   0  0  0  0  0  0
  -29.2271  -21.4878   20.9844 C   0  0  0  0  0  0
  -33.2461  -18.2972   20.8350 C   0  0  0  0  0  0
  -34.3833  -18.7445   19.8933 C   0  0  0  0  0  0
  -29.1646  -22.6700   19.9415 C   0  0  0  0  0  0
  -29.3629  -24.1747   20.3825 C   0  0  0  0  0  0
  -30.2459  -18.4279   20.2983 C   0  0  0  0  0  0
  -30.1915  -17.0181   21.0535 C   0  0  0  0  0  0
  -28.2085  -25.1395   19.9238 C   0  0  0  0  0  0
  -34.0768  -20.6685   24.2747 C   0  0  0  0  0  0
  -31.0011  -19.5211   20.9754 N   0  0  0  0  0  0
  -29.9185  -15.7662   20.2638 N   0  0  0  0  0  0
  -31.4824  -12.4901   19.0942 H   0  0  0  0  0  0
  -30.4127  -11.3945   19.9335 H   0  0  0  0  0  0
  -29.7312  -11.5125   17.5688 H   0  0  0  0  0  0
  -29.6937  -13.2452   17.5845 H   0  0  0  0  0  0
  -27.8207  -11.2525   18.8655 H   0  0  0  0  0  0
  -27.3803  -12.5269   17.7707 H   0  0  0  0  0  0
  -27.6229  -14.2096   19.4677 H   0  0  0  0  0  0
  -28.7509  -12.1268   21.4092 H   0  0  0  0  0  0
  -28.4995  -13.8220   21.7586 H   0  0  0  0  0  0
  -25.2790   -9.5745   22.4720 H   0  0  0  0  0  0
  -24.0084   -7.4665   22.7482 H   0  0  0  0  0  0
  -21.0860   -8.8783   19.8953 H   0  0  0  0  0  0
  -22.3699  -10.9703   19.6166 H   0  0  0  0  0  0
  -21.2060   -7.6222   23.9745 H   0  0  0  0  0  0
  -21.1434   -6.0582   25.9077 H   0  0  0  0  0  0
  -22.0607   -2.7686   23.2844 H   0  0  0  0  0  0
  -22.4109  -11.9742   22.4632 H   0  0  0  0  0  0
  -21.1247  -13.1290   22.2596 H   0  0  0  0  0  0
  -24.6928  -15.8476   20.5409 H   0  0  0  0  0  0
  -26.3382  -15.6226   20.2197 H   0  0  0  0  0  0
  -26.7184  -32.5539   23.1097 H   0  0  0  0  0  0
  -25.0225  -33.9824   25.0526 H   0  0  0  0  0  0
  -22.7078  -31.3172   21.4041 H   0  0  0  0  0  0
  -23.3773  -35.9641   23.3290 H   0  0  0  0  0  0
  -24.3572  -36.8976   22.2049 H   0  0  0  0  0  0
  -23.7265  -37.6505   23.6687 H   0  0  0  0  0  0
  -26.0873  -31.5783   20.6010 H   0  0  0  0  0  0
  -26.8305  -30.8587   22.0013 H   0  0  0  0  0  0
  -28.0989  -29.0221   21.2045 H   0  0  0  0  0  0
  -26.0045  -25.9738   18.9718 H   0  0  0  0  0  0
  -23.9809  -27.3260   18.9956 H   0  0  0  0  0  0
  -23.7338  -30.6108   19.4075 H   0  0  0  0  0  0
  -22.7479  -29.2593   19.8571 H   0  0  0  0  0  0
  -25.1315  -36.1953   25.0812 H   0  0  0  0  0  0
  -21.0009  -28.3325   24.1428 H   0  0  0  0  0  0
  -20.5875  -26.2307   23.3630 H   0  0  0  0  0  0
  -21.6665  -26.7610   22.1113 H   0  0  0  0  0  0
  -19.6988  -25.6332   21.1275 H   0  0  0  0  0  0
  -19.6734  -27.3226   20.6805 H   0  0  0  0  0  0
  -17.4260  -26.6781   21.3985 H   0  0  0  0  0  0
  -18.0266  -26.0123   22.9000 H   0  0  0  0  0  0
  -19.7939  -30.7294   24.2302 H   0  0  0  0  0  0
  -17.5014  -31.6284   24.5174 H   0  0  0  0  0  0
  -15.5351  -30.3000   23.7667 H   0  0  0  0  0  0
  -15.8702  -28.0864   22.7049 H   0  0  0  0  0  0
  -24.5922  -30.7071   25.7701 H   0  0  0  0  0  0
  -24.8830  -32.2870   26.4793 H   0  0  0  0  0  0
  -25.7970  -30.8921   27.0213 H   0  0  0  0  0  0
  -26.2899  -29.6807   24.1176 H   0  0  0  0  0  0
  -27.4194  -29.7346   25.4558 H   0  0  0  0  0  0
  -27.8704  -30.4437   23.9219 H   0  0  0  0  0  0
  -27.2753  -33.3742   26.1906 H   0  0  0  0  0  0
  -28.3925  -32.6767   25.0301 H   0  0  0  0  0  0
  -28.0663  -31.8540   26.5480 H   0  0  0  0  0  0
  -28.2570  -38.0135   24.7526 H   0  0  0  0  0  0
  -28.1105  -36.2650   24.6222 H   0  0  0  0  0  0
  -27.2283  -37.1394   25.8844 H   0  0  0  0  0  0
  -20.9363  -29.8726   21.6831 H   0  0  0  0  0  0
  -26.0184  -38.2889   24.1349 H   0  0  0  0  0  0
  -31.5427  -22.4032   22.4373 H   0  0  0  0  0  0
  -35.7901  -17.9157   18.4709 H   0  0  0  0  0  0
  -34.4892  -16.8066   18.8950 H   0  0  0  0  0  0
  -35.8081  -17.1030   20.0328 H   0  0  0  0  0  0
  -33.7741  -19.1330   25.7971 H   0  0  0  0  0  0
  -34.2827  -18.4951   24.2430 H   0  0  0  0  0  0
  -32.6244  -19.0452   24.4661 H   0  0  0  0  0  0
  -35.5236  -20.8463   25.9177 H   0  0  0  0  0  0
  -35.7396  -22.0493   24.6592 H   0  0  0  0  0  0
  -36.2492  -20.3888   24.3843 H   0  0  0  0  0  0
  -28.4617  -16.6357   18.9950 H   0  0  0  0  0  0
  -29.1533  -15.1730   18.3376 H   0  0  0  0  0  0
  -30.1062  -16.5976   18.3162 H   0  0  0  0  0  0
  -34.3435  -21.8468   22.4690 H   0  0  0  0  0  0
  -34.8143  -20.1798   22.3292 H   0  0  0  0  0  0
  -28.7700  -21.8172   21.9197 H   0  0  0  0  0  0
  -28.5526  -20.7189   20.6186 H   0  0  0  0  0  0
  -32.6744  -17.5662   20.2679 H   0  0  0  0  0  0
  -33.6481  -17.7564   21.6938 H   0  0  0  0  0  0
  -33.9611  -19.3325   19.0815 H   0  0  0  0  0  0
  -35.0912  -19.3968   20.4015 H   0  0  0  0  0  0
  -28.1586  -22.6181   19.5216 H   0  0  0  0  0  0
  -29.8063  -22.4360   19.0908 H   0  0  0  0  0  0
  -30.2983  -24.5219   19.9407 H   0  0  0  0  0  0
  -29.4913  -24.2529   21.4651 H   0  0  0  0  0  0
  -29.2255  -18.7505   20.1061 H   0  0  0  0  0  0
  -30.7000  -18.3478   19.3134 H   0  0  0  0  0  0
  -29.3969  -17.0782   21.7975 H   0  0  0  0  0  0
  -31.0907  -16.8650   21.6433 H   0  0  0  0  0  0
  -27.3052  -24.7910   20.4275 H   0  0  0  0  0  0
  -28.0434  -25.0022   18.8521 H   0  0  0  0  0  0
  -33.3749  -21.3789   24.7149 H   0  0  0  0  0  0
  1 25  1  0  0  0
  1 30  2  0  0  0
  1 90  1  0  0  0
  2  3  1  0  0  0
  2 25  1  0  0  0
  2 91  1  0  0  0
  2 92  1  0  0  0
  3  4  1  0  0  0
  3 93  1  0  0  0
  3 94  1  0  0  0
  4  5  1  0  0  0
  4 95  1  0  0  0
  4 96  1  0  0  0
  5  6  1  0  0  0
  5 26  1  0  0  0
  5 97  1  0  0  0
  6 25  1  0  0  0
  6 98  1  0  0  0
  6 99  1  0  0  0
  7  8  2  0  0  0
  7 26  1  0  0  0
  7 29  1  0  0  0
  8  9  1  0  0  0
  8 22  1  0  0  0
  9 10  1  0  0  0
  9 27  2  0  0  0
 10 11  2  0  0  0
 10 15  1  0  0  0
 11 12  1  0  0  0
 11100  1  0  0  0
 12 13  2  0  0  0
 12101  1  0  0  0
 13 14  1  0  0  0
 13 31  1  0  0  0
 14 15  2  0  0  0
 14102  1  0  0  0
 15103  1  0  0  0
 16 17  2  0  0  0
 16 21  1  0  0  0
 16 31  1  0  0  0
 17 18  1  0  0  0
 17104  1  0  0  0
 18 19  2  0  0  0
 18105  1  0  0  0
 19 20  1  0  0  0
 19 24  1  0  0  0
 20 21  2  0  0  0
 20106  1  0  0  0
 21 23  1  0  0  0
 22 28  1  0  0  0
 22 32  2  0  0  0
 26 27  1  0  0  0
 28107  1  0  0  0
 28108  1  0  0  0
 29109  1  0  0  0
 29110  1  0  0  0
 33 34  1  0  0  0
 33 66  1  0  0  0
 33 70  2  0  0  0
 34 36  1  0  0  0
 34 59  1  0  0  0
 34111  1  0  0  0
 35 44  2  0  0  0
 35 45  1  0  0  0
 35 68  1  0  0  0
 36 56  1  0  0  0
 36112  1  0  0  0
 37 39  1  0  0  0
 37 47  1  0  0  0
 37 66  1  0  0  0
 37113  1  0  0  0
 38 43  2  0  0  0
 38 46  1  0  0  0
 38 47  1  0  0  0
 39 64  1  0  0  0
 39 67  2  0  0  0
 40 52  1  0  0  0
 40 53  2  0  0  0
 40 58  1  0  0  0
 41114  1  0  0  0
 41115  1  0  0  0
 41116  1  0  0  0
 41 48  1  0  0  0
 42 43  1  0  0  0
 42 66  1  0  0  0
 42117  1  0  0  0
 42118  1  0  0  0
 43 44  1  0  0  0
 44119  1  0  0  0
 45 46  2  0  0  0
 45120  1  0  0  0
 46121  1  0  0  0
 47122  1  0  0  0
 47123  1  0  0  0
 48 56  1  0  0  0
 48 65  1  0  0  0
 48124  1  0  0  0
 49 50  1  0  0  0
 49 53  1  0  0  0
 49 64  1  0  0  0
 49125  1  0  0  0
 50 51  1  0  0  0
 50126  1  0  0  0
 50127  1  0  0  0
 51 52  1  0  0  0
 51128  1  0  0  0
 51129  1  0  0  0
 52130  1  0  0  0
 52131  1  0  0  0
 53 54  1  0  0  0
 54 55  2  0  0  0
 54132  1  0  0  0
 55 57  1  0  0  0
 55133  1  0  0  0
 56 69  2  0  0  0
 57 58  2  0  0  0
 57134  1  0  0  0
 58135  1  0  0  0
 59 60  1  0  0  0
 59 61  1  0  0  0
 59 62  1  0  0  0
 60136  1  0  0  0
 60137  1  0  0  0
 60138  1  0  0  0
 61139  1  0  0  0
 61140  1  0  0  0
 61141  1  0  0  0
 62142  1  0  0  0
 62143  1  0  0  0
 62144  1  0  0  0
 63 65  1  0  0  0
 63145  1  0  0  0
 63146  1  0  0  0
 63147  1  0  0  0
 64148  1  0  0  0
 65149  1  0  0  0
 68 87  1  0  0  0
 71 72  1  0  0  0
 71 73  2  0  0  0
 71150  1  0  0  0
 72 74  2  0  0  0
 72 79  1  0  0  0
 73 80  1  0  0  0
 73 89  1  0  0  0
 74 81  1  0  0  0
 74 89  1  0  0  0
 75 82  1  0  0  0
 75151  1  0  0  0
 75152  1  0  0  0
 75153  1  0  0  0
 76154  1  0  0  0
 76155  1  0  0  0
 76156  1  0  0  0
 76 88  1  0  0  0
 77 88  1  0  0  0
 77157  1  0  0  0
 77158  1  0  0  0
 77159  1  0  0  0
 78 90  1  0  0  0
 78160  1  0  0  0
 78161  1  0  0  0
 78162  1  0  0  0
 79 88  1  0  0  0
 79163  1  0  0  0
 79164  1  0  0  0
 80 83  1  0  0  0
 80165  1  0  0  0
 80166  1  0  0  0
 81 82  1  0  0  0
 81167  1  0  0  0
 81168  1  0  0  0
 82169  1  0  0  0
 82170  1  0  0  0
 83 84  1  0  0  0
 83171  1  0  0  0
 83172  1  0  0  0
 84 87  1  0  0  0
 84173  1  0  0  0
 84174  1  0  0  0
 85 86  1  0  0  0
 85 89  1  0  0  0
 85175  1  0  0  0
 85176  1  0  0  0
 86 90  1  0  0  0
 86177  1  0  0  0
 86178  1  0  0  0
 87179  1  0  0  0
 87180  1  0  0  0
 88181  1  0  0  0
M  ISO  4   1 100  68 101  87 101  90 100
M  END
> <chiral flag>
0

> <version>
0

> <s_m_source_file>
/data/baiqing/PycharmProjects/Reinvent-master-3.2/result/LINK_invent/BTK/process_docking_weight1_custom_sum_contain_oxygen_bond_distance_aromatic_linkinvent_7_9_3/rearranged_h_0092.sdf

> <i_m_source_file_index>
76

> <r_mmod_Potential_Energy-OPLS-2005>
249.559494018555

> <r_mmod_Stretch_Energy-OPLS-2005>
70.3215484619141

> <r_mmod_Bend_Energy-OPLS-2005>
146.846008300781

> <r_mmod_Torsional_Energy-OPLS-2005>
352.960357666016

> <r_mmod_Improper_Torsional_Energy-OPLS-2005>
10.9673204421997

> <r_mmod_Van_der_Waal_Energy-OPLS-2005>
131.057205200195

> <r_mmod_Electrostatic_Energy-OPLS-2005>
-324.529266357422

> <r_mmod_Solvation_Energy-OPLS-2005>
-189.304901123047

> <b_mmod_Minimization_Converged-OPLS-2005>
0

> <r_mmod_RMS_Derivative-OPLS-2005>
6.37080574035645

$$$$
78
                    3D
 Structure written by MMmdl.
155163  0  0  1  0            999 V2000
  -30.5405  -14.9783   20.4045 C   0  0  0  0  0  0
  -30.4393  -12.6121   19.4858 C   0  0  0  0  0  0
  -29.5189  -12.5302   18.2477 C   0  0  0  0  0  0
  -28.0532  -12.3154   18.6708 C   0  0  0  0  0  0
  -27.6255  -13.2528   19.8305 C   0  0  2  0  0  0
  -28.6717  -13.3044   20.9625 C   0  0  0  0  0  0
  -25.2459  -13.8226   20.5734 C   0  0  0  0  0  0
  -24.1777  -13.0438   20.9247 C   0  0  0  0  0  0
  -24.6399  -11.6929   20.8760 C   0  0  0  0  0  0
  -23.9079  -10.4293   21.0401 C   0  0  0  0  0  0
  -24.3626   -9.4211   21.9178 C   0  0  0  0  0  0
  -23.6303   -8.2245   22.0748 C   0  0  0  0  0  0
  -22.4288   -8.0279   21.3534 C   0  0  0  0  0  0
  -21.9921   -9.0254   20.4643 C   0  0  0  0  0  0
  -22.7247  -10.2134   20.3057 C   0  0  0  0  0  0
  -21.6852   -6.0738   22.5275 C   0  0  0  0  0  0
  -21.4008   -6.5642   23.8207 C   0  0  0  0  0  0
  -21.3658   -5.6796   24.9169 C   0  0  0  0  0  0
  -21.6044   -4.3059   24.7221 C   0  0  0  0  0  0
  -21.8821   -3.8151   23.4341 C   0  0  0  0  0  0
  -21.9198   -4.6969   22.3398 C   0  0  0  0  0  0
  -22.7800  -13.5204   21.1897 C   0  0  0  0  0  0
  -22.1667   -4.2150   21.0975 F   0  0  0  0  0  0
  -21.5632   -3.4545   25.7735 F   0  0  0  0  0  0
  -29.9371  -13.7217   20.3465 N   0  0  0  0  0  0
  -26.2875  -12.9463   20.3229 N   0  0  0  0  0  0
  -25.9328  -11.6588   20.5724 N   0  0  0  0  0  0
  -22.0454  -12.8181   22.0449 N   0  0  0  0  0  0
  -25.4110  -15.1954   20.4167 N   0  0  0  0  0  0
  -31.7580  -15.0208   20.2026 O   0  0  0  0  0  0
  -21.6646   -6.8880   21.4233 O   0  0  0  0  0  0
  -22.3474  -14.5502   20.6746 O   0  0  0  0  0  0
  -24.6484  -31.8413   23.1881 C   0  0  0  0  0  0
  -25.9236  -32.4693   23.8268 C   0  0  1  0  0  0
  -27.2058  -27.1021   20.1532 C   0  0  0  0  0  0
  -25.5963  -33.8497   24.2165 N   0  0  0  0  0  0
  -23.4524  -30.4630   21.5362 C   0  0  2  0  0  0
  -24.8979  -28.8871   20.1135 C   0  0  0  0  0  0
  -22.7601  -29.4531   22.4871 C   0  0  0  0  0  0
  -18.0289  -28.1358   22.8473 C   0  0  0  0  0  0
  -24.1476  -36.7272   23.2645 C   0  0  0  0  0  0
  -26.0124  -30.7056   21.3895 C   0  0  0  0  0  0
  -26.0808  -29.3144   20.7312 C   0  0  0  0  0  0
  -27.2371  -28.4402   20.7301 C   0  0  0  0  0  0
  -25.9945  -26.7858   19.4971 C   0  0  0  0  0  0
  -24.8699  -27.6360   19.4824 C   0  0  0  0  0  0
  -23.6782  -29.7957   20.1548 C   0  0  0  0  0  0
  -25.4114  -36.3032   24.0307 C   0  0  1  0  0  0
  -20.5914  -28.3702   23.1220 C   0  0  2  0  0  0
  -20.6781  -26.9400   22.5399 C   0  0  0  0  0  0
  -19.5747  -26.6350   21.5212 C   0  0  0  0  0  0
  -18.1919  -26.7892   22.1618 C   0  0  0  0  0  0
  -19.1555  -28.8850   23.2823 C   0  0  0  0  0  0
  -18.9475  -30.1444   23.8847 C   0  0  0  0  0  0
  -17.6473  -30.6562   24.0547 C   0  0  0  0  0  0
  -25.9079  -34.9412   23.5049 C   0  0  0  0  0  0
  -16.5357  -29.9063   23.6335 C   0  0  0  0  0  0
  -16.7274  -28.6478   23.0363 C   0  0  0  0  0  0
  -26.4516  -31.6585   25.0734 C   0  0  0  0  0  0
  -25.3664  -31.3814   26.1416 C   0  0  0  0  0  0
  -27.0400  -30.2971   24.6359 C   0  0  0  0  0  0
  -27.6018  -32.4395   25.7515 C   0  0  0  0  0  0
  -27.5564  -37.1797   24.8453 C   0  0  0  0  0  0
  -21.4290  -29.3036   22.3622 N   0  0  0  0  0  0
  -26.4270  -37.3756   23.9405 N   0  0  0  0  0  0
  -24.7255  -31.0242   22.0927 N   0  0  0  0  0  0
  -23.4232  -28.8080   23.3032 O   0  0  0  0  0  0
  -28.2396  -26.0862   20.2177 O   0  0  0  0  0  0
  -26.5678  -34.8918   22.4637 O   0  0  0  0  0  0
  -23.5603  -32.1294   23.7090 O   0  0  0  0  0  0
  -27.8262  -19.4197   21.8212 C   0  0  0  0  0  0
  -27.4687  -22.0899   22.1039 C   0  0  0  0  0  0
  -28.6020  -20.2172   20.9490 C   0  0  0  0  0  0
  -28.3440  -21.7265   21.0470 C   0  0  0  0  0  0
  -26.9493  -19.9541   22.7635 C   0  0  0  0  0  0
  -26.1286  -19.0502   23.6607 C   0  0  0  0  0  0
  -29.5057  -19.1634   20.0781 C   0  0  0  0  0  0
  -28.8558  -23.1342   20.3312 C   0  0  0  0  0  0
  -30.1740  -17.7100   20.7009 C   0  0  0  0  0  0
  -27.8934  -24.5530   20.1697 C   0  0  0  0  0  0
  -26.7952  -21.2688   22.9260 N   0  0  0  0  0  0
  -29.7734  -16.1837   20.4834 N   0  0  0  0  0  0
  -31.4700  -12.7764   19.1690 H   0  0  0  0  0  0
  -30.4403  -11.6686   20.0333 H   0  0  0  0  0  0
  -29.8402  -11.7236   17.5883 H   0  0  0  0  0  0
  -29.6025  -13.4497   17.6672 H   0  0  0  0  0  0
  -27.9540  -11.2748   18.9830 H   0  0  0  0  0  0
  -27.3878  -12.4411   17.8152 H   0  0  0  0  0  0
  -27.5797  -14.2500   19.3927 H   0  0  0  0  0  0
  -28.7718  -12.3385   21.4603 H   0  0  0  0  0  0
  -28.3711  -14.0217   21.7282 H   0  0  0  0  0  0
  -25.2764   -9.5693   22.4755 H   0  0  0  0  0  0
  -24.0014   -7.4639   22.7469 H   0  0  0  0  0  0
  -21.0852   -8.8769   19.8952 H   0  0  0  0  0  0
  -22.3691  -10.9675   19.6177 H   0  0  0  0  0  0
  -21.1988   -7.6147   23.9705 H   0  0  0  0  0  0
  -21.1478   -6.0527   25.9069 H   0  0  0  0  0  0
  -22.0602   -2.7611   23.2842 H   0  0  0  0  0  0
  -22.4094  -11.9843   22.4816 H   0  0  0  0  0  0
  -21.1065  -13.1180   22.2664 H   0  0  0  0  0  0
  -24.6391  -15.8437   20.5312 H   0  0  0  0  0  0
  -26.2424  -15.6346   20.0440 H   0  0  0  0  0  0
  -26.7322  -32.5272   23.1015 H   0  0  0  0  0  0
  -25.0064  -33.9597   25.0279 H   0  0  0  0  0  0
  -22.7563  -31.2900   21.3857 H   0  0  0  0  0  0
  -23.3743  -35.9592   23.3281 H   0  0  0  0  0  0
  -24.3553  -36.8947   22.2068 H   0  0  0  0  0  0
  -23.7257  -37.6468   23.6707 H   0  0  0  0  0  0
  -26.1704  -31.4570   20.6148 H   0  0  0  0  0  0
  -26.8838  -30.7588   22.0315 H   0  0  0  0  0  0
  -28.1416  -28.7611   21.2285 H   0  0  0  0  0  0
  -25.8725  -25.8333   19.0050 H   0  0  0  0  0  0
  -23.9655  -27.3033   18.9910 H   0  0  0  0  0  0
  -23.8174  -30.5703   19.3997 H   0  0  0  0  0  0
  -22.7900  -29.2418   19.8438 H   0  0  0  0  0  0
  -25.1311  -36.1858   25.0803 H   0  0  0  0  0  0
  -20.9966  -28.3278   24.1359 H   0  0  0  0  0  0
  -20.5664  -26.2311   23.3622 H   0  0  0  0  0  0
  -21.6646  -26.7389   22.1212 H   0  0  0  0  0  0
  -19.6909  -25.6261   21.1252 H   0  0  0  0  0  0
  -19.6673  -27.3145   20.6731 H   0  0  0  0  0  0
  -17.4201  -26.6629   21.4005 H   0  0  0  0  0  0
  -18.0305  -26.0010   22.8994 H   0  0  0  0  0  0
  -19.7958  -30.7258   24.2191 H   0  0  0  0  0  0
  -17.5038  -31.6243   24.5154 H   0  0  0  0  0  0
  -15.5362  -30.2964   23.7684 H   0  0  0  0  0  0
  -15.8662  -28.0794   22.7113 H   0  0  0  0  0  0
  -24.5819  -30.7184   25.7758 H   0  0  0  0  0  0
  -24.8864  -32.3009   26.4776 H   0  0  0  0  0  0
  -25.7903  -30.9041   27.0260 H   0  0  0  0  0  0
  -26.3045  -29.6696   24.1313 H   0  0  0  0  0  0
  -27.3944  -29.7281   25.4968 H   0  0  0  0  0  0
  -27.8966  -30.4209   23.9726 H   0  0  0  0  0  0
  -27.2572  -33.3726   26.1986 H   0  0  0  0  0  0
  -28.3858  -32.6942   25.0369 H   0  0  0  0  0  0
  -28.0633  -31.8614   26.5532 H   0  0  0  0  0  0
  -28.2585  -38.0096   24.7536 H   0  0  0  0  0  0
  -28.1066  -36.2646   24.6237 H   0  0  0  0  0  0
  -27.2280  -37.1411   25.8853 H   0  0  0  0  0  0
  -20.9515  -29.8783   21.6829 H   0  0  0  0  0  0
  -26.0130  -38.2812   24.1437 H   0  0  0  0  0  0
  -27.8888  -18.3415   21.7720 H   0  0  0  0  0  0
  -27.2954  -23.1225   22.3541 H   0  0  0  0  0  0
  -26.7308  -18.6940   24.4967 H   0  0  0  0  0  0
  -25.7717  -18.1821   23.1043 H   0  0  0  0  0  0
  -25.2575  -19.5719   24.0611 H   0  0  0  0  0  0
  -30.3440  -19.7577   19.7129 H   0  0  0  0  0  0
  -28.9415  -18.9214   19.1767 H   0  0  0  0  0  0
  -29.2595  -22.8793   19.3517 H   0  0  0  0  0  0
  -29.7283  -23.4338   20.9119 H   0  0  0  0  0  0
  -30.2807  -17.8449   21.7778 H   0  0  0  0  0  0
  -31.2066  -17.7328   20.3489 H   0  0  0  0  0  0
  -27.0571  -24.4867   20.8610 H   0  0  0  0  0  0
  -27.4220  -24.3992   19.2003 H   0  0  0  0  0  0
  -28.7799  -16.0136   20.5128 H   0  0  0  0  0  0
  1 25  1  0  0  0
  1 30  2  0  0  0
  1 82  1  0  0  0
  2  3  1  0  0  0
  2 25  1  0  0  0
  2 83  1  0  0  0
  2 84  1  0  0  0
  3  4  1  0  0  0
  3 85  1  0  0  0
  3 86  1  0  0  0
  4  5  1  0  0  0
  4 87  1  0  0  0
  4 88  1  0  0  0
  5  6  1  0  0  0
  5 26  1  0  0  0
  5 89  1  0  0  0
  6 25  1  0  0  0
  6 90  1  0  0  0
  6 91  1  0  0  0
  7  8  2  0  0  0
  7 26  1  0  0  0
  7 29  1  0  0  0
  8  9  1  0  0  0
  8 22  1  0  0  0
  9 10  1  0  0  0
  9 27  2  0  0  0
 10 11  2  0  0  0
 10 15  1  0  0  0
 11 12  1  0  0  0
 11 92  1  0  0  0
 12 13  2  0  0  0
 12 93  1  0  0  0
 13 14  1  0  0  0
 13 31  1  0  0  0
 14 15  2  0  0  0
 14 94  1  0  0  0
 15 95  1  0  0  0
 16 17  2  0  0  0
 16 21  1  0  0  0
 16 31  1  0  0  0
 17 18  1  0  0  0
 17 96  1  0  0  0
 18 19  2  0  0  0
 18 97  1  0  0  0
 19 20  1  0  0  0
 19 24  1  0  0  0
 20 21  2  0  0  0
 20 98  1  0  0  0
 21 23  1  0  0  0
 22 28  1  0  0  0
 22 32  2  0  0  0
 26 27  1  0  0  0
 28 99  1  0  0  0
 28100  1  0  0  0
 29101  1  0  0  0
 29102  1  0  0  0
 33 34  1  0  0  0
 33 66  1  0  0  0
 33 70  2  0  0  0
 34 36  1  0  0  0
 34 59  1  0  0  0
 34103  1  0  0  0
 35 44  2  0  0  0
 35 45  1  0  0  0
 35 68  1  0  0  0
 36 56  1  0  0  0
 36104  1  0  0  0
 37 39  1  0  0  0
 37 47  1  0  0  0
 37 66  1  0  0  0
 37105  1  0  0  0
 38 43  2  0  0  0
 38 46  1  0  0  0
 38 47  1  0  0  0
 39 64  1  0  0  0
 39 67  2  0  0  0
 40 52  1  0  0  0
 40 53  2  0  0  0
 40 58  1  0  0  0
 41106  1  0  0  0
 41107  1  0  0  0
 41108  1  0  0  0
 41 48  1  0  0  0
 42 43  1  0  0  0
 42 66  1  0  0  0
 42109  1  0  0  0
 42110  1  0  0  0
 43 44  1  0  0  0
 44111  1  0  0  0
 45 46  2  0  0  0
 45112  1  0  0  0
 46113  1  0  0  0
 47114  1  0  0  0
 47115  1  0  0  0
 48 56  1  0  0  0
 48 65  1  0  0  0
 48116  1  0  0  0
 49 50  1  0  0  0
 49 53  1  0  0  0
 49 64  1  0  0  0
 49117  1  0  0  0
 50 51  1  0  0  0
 50118  1  0  0  0
 50119  1  0  0  0
 51 52  1  0  0  0
 51120  1  0  0  0
 51121  1  0  0  0
 52122  1  0  0  0
 52123  1  0  0  0
 53 54  1  0  0  0
 54 55  2  0  0  0
 54124  1  0  0  0
 55 57  1  0  0  0
 55125  1  0  0  0
 56 69  2  0  0  0
 57 58  2  0  0  0
 57126  1  0  0  0
 58127  1  0  0  0
 59 60  1  0  0  0
 59 61  1  0  0  0
 59 62  1  0  0  0
 60128  1  0  0  0
 60129  1  0  0  0
 60130  1  0  0  0
 61131  1  0  0  0
 61132  1  0  0  0
 61133  1  0  0  0
 62134  1  0  0  0
 62135  1  0  0  0
 62136  1  0  0  0
 63 65  1  0  0  0
 63137  1  0  0  0
 63138  1  0  0  0
 63139  1  0  0  0
 64140  1  0  0  0
 65141  1  0  0  0
 68 80  1  0  0  0
 71 73  2  0  0  0
 71 75  1  0  0  0
 71142  1  0  0  0
 72 74  2  0  0  0
 72 81  1  0  0  0
 72143  1  0  0  0
 73 74  1  0  0  0
 73 77  1  0  0  0
 74 78  1  0  0  0
 75 76  1  0  0  0
 75 81  2  0  0  0
 76144  1  0  0  0
 76145  1  0  0  0
 76146  1  0  0  0
 77 79  1  0  0  0
 77147  1  0  0  0
 77148  1  0  0  0
 78 80  1  0  0  0
 78149  1  0  0  0
 78150  1  0  0  0
 79 82  1  0  0  0
 79151  1  0  0  0
 79152  1  0  0  0
 80153  1  0  0  0
 80154  1  0  0  0
 82155  1  0  0  0
M  ISO  4   1 100  68 101  80 101  82 100
M  END
> <chiral flag>
0

> <version>
0

> <s_m_source_file>
/data/baiqing/PycharmProjects/Reinvent-master-3.2/result/LINK_invent/BTK/process_docking_weight1_custom_sum_contain_oxygen_bond_distance_aromatic_linkinvent_7_9_3/rearranged_h_0092.sdf

> <i_m_source_file_index>
77

> <r_mmod_Potential_Energy-OPLS-2005>
544.687194824219

> <r_mmod_Stretch_Energy-OPLS-2005>
319.584625244141

> <r_mmod_Bend_Energy-OPLS-2005>
360.318328857422

> <r_mmod_Torsional_Energy-OPLS-2005>
236.344528198242

> <r_mmod_Improper_Torsional_Energy-OPLS-2005>
4.65405893325806

> <r_mmod_Van_der_Waal_Energy-OPLS-2005>
141.474105834961

> <r_mmod_Electrostatic_Energy-OPLS-2005>
-507.562683105469

> <r_mmod_Solvation_Energy-OPLS-2005>
-232.540283203125

> <b_mmod_Minimization_Converged-OPLS-2005>
0

> <r_mmod_RMS_Derivative-OPLS-2005>
1.80603241920471

$$$$
79
                    3D
 Structure written by MMmdl.
162170  0  0  1  0            999 V2000
  -30.7080  -14.4941   20.6076 C   0  0  0  0  0  0
  -30.4258  -12.3345   19.4345 C   0  0  0  0  0  0
  -29.4991  -12.5086   18.2122 C   0  0  0  0  0  0
  -28.0187  -12.3602   18.6191 C   0  0  0  0  0  0
  -27.6553  -13.2141   19.8632 C   0  0  2  0  0  0
  -28.6906  -13.0170   20.9908 C   0  0  0  0  0  0
  -25.2547  -13.8197   20.5628 C   0  0  0  0  0  0
  -24.1818  -13.0459   20.9171 C   0  0  0  0  0  0
  -24.6387  -11.6919   20.8726 C   0  0  0  0  0  0
  -23.9067  -10.4292   21.0399 C   0  0  0  0  0  0
  -24.3629   -9.4207   21.9165 C   0  0  0  0  0  0
  -23.6301   -8.2243   22.0745 C   0  0  0  0  0  0
  -22.4273   -8.0284   21.3548 C   0  0  0  0  0  0
  -21.9917   -9.0256   20.4639 C   0  0  0  0  0  0
  -22.7256  -10.2130   20.3039 C   0  0  0  0  0  0
  -21.6852   -6.0737   22.5282 C   0  0  0  0  0  0
  -21.4022   -6.5636   23.8216 C   0  0  0  0  0  0
  -21.3659   -5.6791   24.9170 C   0  0  0  0  0  0
  -21.6035   -4.3053   24.7221 C   0  0  0  0  0  0
  -21.8824   -3.8152   23.4344 C   0  0  0  0  0  0
  -21.9192   -4.6967   22.3404 C   0  0  0  0  0  0
  -22.7832  -13.5236   21.1839 C   0  0  0  0  0  0
  -22.1658   -4.2153   21.0982 F   0  0  0  0  0  0
  -21.5621   -3.4537   25.7733 F   0  0  0  0  0  0
  -30.0227  -13.3262   20.4443 N   0  0  0  0  0  0
  -26.2977  -12.9357   20.3269 N   0  0  0  0  0  0
  -25.9307  -11.6510   20.5722 N   0  0  0  0  0  0
  -22.0479  -12.8222   22.0391 N   0  0  0  0  0  0
  -25.4290  -15.1902   20.3998 N   0  0  0  0  0  0
  -31.8470  -14.6439   20.1685 O   0  0  0  0  0  0
  -21.6639   -6.8884   21.4240 O   0  0  0  0  0  0
  -22.3496  -14.5528   20.6671 O   0  0  0  0  0  0
  -24.6191  -31.8678   23.2037 C   0  0  0  0  0  0
  -25.9058  -32.4813   23.8328 C   0  0  1  0  0  0
  -27.2316  -27.3893   20.0805 C   0  0  0  0  0  0
  -25.5911  -33.8608   24.2293 N   0  0  0  0  0  0
  -23.4076  -30.4940   21.5474 C   0  0  2  0  0  0
  -24.8531  -28.9536   20.1167 C   0  0  0  0  0  0
  -22.7411  -29.4690   22.4940 C   0  0  0  0  0  0
  -18.0309  -28.1372   22.8459 C   0  0  0  0  0  0
  -24.1487  -36.7338   23.2638 C   0  0  0  0  0  0
  -25.9450  -30.8103   21.3704 C   0  0  0  0  0  0
  -26.0190  -29.4449   20.7118 C   0  0  0  0  0  0
  -27.2108  -28.6746   20.6905 C   0  0  0  0  0  0
  -26.0434  -26.9385   19.4593 C   0  0  0  0  0  0
  -24.8609  -27.6988   19.4904 C   0  0  0  0  0  0
  -23.6169  -29.8268   20.1645 C   0  0  0  0  0  0
  -25.4107  -36.3129   24.0331 C   0  0  1  0  0  0
  -20.5892  -28.3693   23.1287 C   0  0  2  0  0  0
  -20.6814  -26.9423   22.5424 C   0  0  0  0  0  0
  -19.5794  -26.6386   21.5229 C   0  0  0  0  0  0
  -18.1952  -26.7934   22.1597 C   0  0  0  0  0  0
  -19.1548  -28.8840   23.2878 C   0  0  0  0  0  0
  -18.9467  -30.1436   23.8897 C   0  0  0  0  0  0
  -17.6476  -30.6563   24.0566 C   0  0  0  0  0  0
  -25.9039  -34.9492   23.5126 C   0  0  0  0  0  0
  -16.5359  -29.9064   23.6330 C   0  0  0  0  0  0
  -16.7298  -28.6494   23.0328 C   0  0  0  0  0  0
  -26.4446  -31.6589   25.0668 C   0  0  0  0  0  0
  -25.3650  -31.3717   26.1374 C   0  0  0  0  0  0
  -27.0285  -30.3018   24.6095 C   0  0  0  0  0  0
  -27.6046  -32.4307   25.7394 C   0  0  0  0  0  0
  -27.5586  -37.1803   24.8447 C   0  0  0  0  0  0
  -21.4144  -29.3040   22.3644 N   0  0  0  0  0  0
  -26.4303  -37.3816   23.9390 N   0  0  0  0  0  0
  -24.6766  -31.0705   22.0984 N   0  0  0  0  0  0
  -23.4159  -28.8244   23.3038 O   0  0  0  0  0  0
  -28.3865  -26.6087   20.0894 O   0  0  0  0  0  0
  -26.5636  -34.8939   22.4704 O   0  0  0  0  0  0
  -23.5370  -32.1506   23.7373 O   0  0  0  0  0  0
  -30.5369  -19.9496   21.8972 C   0  0  0  0  0  0
  -30.4121  -19.3787   20.6516 C   0  0  0  0  0  0
  -30.0188  -20.3754   19.6740 C   0  0  0  0  0  0
  -29.7510  -21.6245   20.2165 C   0  0  0  0  0  0
  -29.8972  -20.0986   18.1990 C   0  0  0  0  0  0
  -32.1835  -17.8309   19.8835 C   0  0  0  0  0  0
  -27.8538  -24.9573   21.7776 C   0  0  0  0  0  0
  -29.0981  -22.8193   19.5273 C   0  0  0  0  0  0
  -29.4653  -24.2956   19.9264 C   0  0  0  0  0  0
  -30.4016  -16.9009   21.5196 C   0  0  0  0  0  0
  -30.7166  -17.9010   20.3472 C   0  0  1  0  0  0
  -28.2266  -25.1741   20.3024 C   0  0  2  0  0  0
  -30.0161  -15.5038   21.1770 N   0  0  0  0  0  0
  -30.0999  -21.6375   21.9209 S   0  0  0  0  0  0
  -31.4692  -12.4439   19.1336 H   0  0  0  0  0  0
  -30.3416  -11.3302   19.8502 H   0  0  0  0  0  0
  -29.7524  -11.7762   17.4442 H   0  0  0  0  0  0
  -29.6593  -13.4904   17.7623 H   0  0  0  0  0  0
  -27.8357  -11.3059   18.8262 H   0  0  0  0  0  0
  -27.3711  -12.6191   17.7803 H   0  0  0  0  0  0
  -27.6929  -14.2579   19.5505 H   0  0  0  0  0  0
  -28.6672  -11.9851   21.3430 H   0  0  0  0  0  0
  -28.4352  -13.6266   21.8594 H   0  0  0  0  0  0
  -25.2786   -9.5652   22.4716 H   0  0  0  0  0  0
  -24.0009   -7.4622   22.7452 H   0  0  0  0  0  0
  -21.0859   -8.8782   19.8937 H   0  0  0  0  0  0
  -22.3746  -10.9654   19.6126 H   0  0  0  0  0  0
  -21.2030   -7.6147   23.9724 H   0  0  0  0  0  0
  -21.1462   -6.0512   25.9073 H   0  0  0  0  0  0
  -22.0604   -2.7611   23.2845 H   0  0  0  0  0  0
  -22.4122  -11.9915   22.4818 H   0  0  0  0  0  0
  -21.1065  -13.1179   22.2544 H   0  0  0  0  0  0
  -24.6672  -15.8534   20.4931 H   0  0  0  0  0  0
  -26.2824  -15.6148   20.0588 H   0  0  0  0  0  0
  -26.7076  -32.5499   23.1012 H   0  0  0  0  0  0
  -25.0007  -33.9760   25.0400 H   0  0  0  0  0  0
  -22.7019  -31.3165   21.4002 H   0  0  0  0  0  0
  -23.3745  -35.9671   23.3305 H   0  0  0  0  0  0
  -24.3608  -36.8965   22.2062 H   0  0  0  0  0  0
  -23.7236  -37.6532   23.6646 H   0  0  0  0  0  0
  -26.0863  -31.5785   20.6089 H   0  0  0  0  0  0
  -26.8252  -30.8455   22.0028 H   0  0  0  0  0  0
  -28.1086  -29.0524   21.1576 H   0  0  0  0  0  0
  -25.9959  -26.0063   18.9199 H   0  0  0  0  0  0
  -23.9662  -27.3178   19.0194 H   0  0  0  0  0  0
  -23.7279  -30.6002   19.4054 H   0  0  0  0  0  0
  -22.7364  -29.2519   19.8709 H   0  0  0  0  0  0
  -25.1275  -36.2011   25.0831 H   0  0  0  0  0  0
  -20.9990  -28.3306   24.1408 H   0  0  0  0  0  0
  -20.5811  -26.2293   23.3614 H   0  0  0  0  0  0
  -21.6670  -26.7535   22.1142 H   0  0  0  0  0  0
  -19.7012  -25.6334   21.1218 H   0  0  0  0  0  0
  -19.6738  -27.3231   20.6794 H   0  0  0  0  0  0
  -17.4256  -26.6705   21.3970 H   0  0  0  0  0  0
  -18.0291  -26.0069   22.8977 H   0  0  0  0  0  0
  -19.7952  -30.7241   24.2247 H   0  0  0  0  0  0
  -17.5042  -31.6256   24.5170 H   0  0  0  0  0  0
  -15.5362  -30.2963   23.7660 H   0  0  0  0  0  0
  -15.8707  -28.0829   22.7014 H   0  0  0  0  0  0
  -24.5898  -30.6985   25.7687 H   0  0  0  0  0  0
  -24.8708  -32.2845   26.4707 H   0  0  0  0  0  0
  -25.7941  -30.8970   27.0209 H   0  0  0  0  0  0
  -26.2846  -29.6749   24.1169 H   0  0  0  0  0  0
  -27.4054  -29.7296   25.4576 H   0  0  0  0  0  0
  -27.8662  -30.4297   23.9247 H   0  0  0  0  0  0
  -27.2742  -33.3681   26.1856 H   0  0  0  0  0  0
  -28.3856  -32.6754   25.0198 H   0  0  0  0  0  0
  -28.0651  -31.8474   26.5366 H   0  0  0  0  0  0
  -28.2589  -38.0126   24.7594 H   0  0  0  0  0  0
  -28.1103  -36.2673   24.6153 H   0  0  0  0  0  0
  -27.2318  -37.1348   25.8856 H   0  0  0  0  0  0
  -20.9323  -29.8713   21.6808 H   0  0  0  0  0  0
  -26.0202  -38.2896   24.1413 H   0  0  0  0  0  0
  -30.8606  -19.4884   22.8231 H   0  0  0  0  0  0
  -29.9660  -19.0428   17.9465 H   0  0  0  0  0  0
  -30.6934  -20.5990   17.6490 H   0  0  0  0  0  0
  -28.9511  -20.4541   17.7946 H   0  0  0  0  0  0
  -32.3209  -18.3426   18.9324 H   0  0  0  0  0  0
  -32.5612  -16.8253   19.7477 H   0  0  0  0  0  0
  -32.8378  -18.3144   20.6084 H   0  0  0  0  0  0
  -27.7929  -23.8945   22.0156 H   0  0  0  0  0  0
  -26.8919  -25.4092   22.0231 H   0  0  0  0  0  0
  -28.6073  -25.3976   22.4322 H   0  0  0  0  0  0
  -28.0236  -22.6750   19.6336 H   0  0  0  0  0  0
  -29.2605  -22.7331   18.4542 H   0  0  0  0  0  0
  -29.9527  -24.7514   19.0619 H   0  0  0  0  0  0
  -30.2087  -24.3238   20.7236 H   0  0  0  0  0  0
  -29.5215  -17.2842   22.0368 H   0  0  0  0  0  0
  -31.1968  -16.9022   22.2660 H   0  0  0  0  0  0
  -30.0828  -17.5774   19.5234 H   0  0  0  0  0  0
  -27.4220  -24.7939   19.6776 H   0  0  0  0  0  0
  -29.0946  -15.2328   21.4884 H   0  0  0  0  0  0
  1 25  1  0  0  0
  1 30  2  0  0  0
  1 83  1  0  0  0
  2  3  1  0  0  0
  2 25  1  0  0  0
  2 85  1  0  0  0
  2 86  1  0  0  0
  3  4  1  0  0  0
  3 87  1  0  0  0
  3 88  1  0  0  0
  4  5  1  0  0  0
  4 89  1  0  0  0
  4 90  1  0  0  0
  5  6  1  0  0  0
  5 26  1  0  0  0
  5 91  1  0  0  0
  6 25  1  0  0  0
  6 92  1  0  0  0
  6 93  1  0  0  0
  7  8  2  0  0  0
  7 26  1  0  0  0
  7 29  1  0  0  0
  8  9  1  0  0  0
  8 22  1  0  0  0
  9 10  1  0  0  0
  9 27  2  0  0  0
 10 11  2  0  0  0
 10 15  1  0  0  0
 11 12  1  0  0  0
 11 94  1  0  0  0
 12 13  2  0  0  0
 12 95  1  0  0  0
 13 14  1  0  0  0
 13 31  1  0  0  0
 14 15  2  0  0  0
 14 96  1  0  0  0
 15 97  1  0  0  0
 16 17  2  0  0  0
 16 21  1  0  0  0
 16 31  1  0  0  0
 17 18  1  0  0  0
 17 98  1  0  0  0
 18 19  2  0  0  0
 18 99  1  0  0  0
 19 20  1  0  0  0
 19 24  1  0  0  0
 20 21  2  0  0  0
 20100  1  0  0  0
 21 23  1  0  0  0
 22 28  1  0  0  0
 22 32  2  0  0  0
 26 27  1  0  0  0
 28101  1  0  0  0
 28102  1  0  0  0
 29103  1  0  0  0
 29104  1  0  0  0
 33 34  1  0  0  0
 33 66  1  0  0  0
 33 70  2  0  0  0
 34 36  1  0  0  0
 34 59  1  0  0  0
 34105  1  0  0  0
 35 44  2  0  0  0
 35 45  1  0  0  0
 35 68  1  0  0  0
 36 56  1  0  0  0
 36106  1  0  0  0
 37 39  1  0  0  0
 37 47  1  0  0  0
 37 66  1  0  0  0
 37107  1  0  0  0
 38 43  2  0  0  0
 38 46  1  0  0  0
 38 47  1  0  0  0
 39 64  1  0  0  0
 39 67  2  0  0  0
 40 52  1  0  0  0
 40 53  2  0  0  0
 40 58  1  0  0  0
 41108  1  0  0  0
 41109  1  0  0  0
 41110  1  0  0  0
 41 48  1  0  0  0
 42 43  1  0  0  0
 42 66  1  0  0  0
 42111  1  0  0  0
 42112  1  0  0  0
 43 44  1  0  0  0
 44113  1  0  0  0
 45 46  2  0  0  0
 45114  1  0  0  0
 46115  1  0  0  0
 47116  1  0  0  0
 47117  1  0  0  0
 48 56  1  0  0  0
 48 65  1  0  0  0
 48118  1  0  0  0
 49 50  1  0  0  0
 49 53  1  0  0  0
 49 64  1  0  0  0
 49119  1  0  0  0
 50 51  1  0  0  0
 50120  1  0  0  0
 50121  1  0  0  0
 51 52  1  0  0  0
 51122  1  0  0  0
 51123  1  0  0  0
 52124  1  0  0  0
 52125  1  0  0  0
 53 54  1  0  0  0
 54 55  2  0  0  0
 54126  1  0  0  0
 55 57  1  0  0  0
 55127  1  0  0  0
 56 69  2  0  0  0
 57 58  2  0  0  0
 57128  1  0  0  0
 58129  1  0  0  0
 59 60  1  0  0  0
 59 61  1  0  0  0
 59 62  1  0  0  0
 60130  1  0  0  0
 60131  1  0  0  0
 60132  1  0  0  0
 61133  1  0  0  0
 61134  1  0  0  0
 61135  1  0  0  0
 62136  1  0  0  0
 62137  1  0  0  0
 62138  1  0  0  0
 63 65  1  0  0  0
 63139  1  0  0  0
 63140  1  0  0  0
 63141  1  0  0  0
 64142  1  0  0  0
 65143  1  0  0  0
 68 82  1  0  0  0
 71 72  2  0  0  0
 71 84  1  0  0  0
 71144  1  0  0  0
 72 73  1  0  0  0
 72 81  1  0  0  0
 73 74  2  0  0  0
 73 75  1  0  0  0
 74 78  1  0  0  0
 74 84  1  0  0  0
 75145  1  0  0  0
 75146  1  0  0  0
 75147  1  0  0  0
 76148  1  0  0  0
 76149  1  0  0  0
 76150  1  0  0  0
 76 81  1  0  0  0
 77151  1  0  0  0
 77152  1  0  0  0
 77153  1  0  0  0
 77 82  1  0  0  0
 78 79  1  0  0  0
 78154  1  0  0  0
 78155  1  0  0  0
 79 82  1  0  0  0
 79156  1  0  0  0
 79157  1  0  0  0
 80 81  1  0  0  0
 80 83  1  0  0  0
 80158  1  0  0  0
 80159  1  0  0  0
 81160  1  0  0  0
 82161  1  0  0  0
 83162  1  0  0  0
M  ISO  4   1 100  68 101  82 101  83 100
M  END
> <chiral flag>
0

> <version>
0

> <s_m_source_file>
/data/baiqing/PycharmProjects/Reinvent-master-3.2/result/LINK_invent/BTK/process_docking_weight1_custom_sum_contain_oxygen_bond_distance_aromatic_linkinvent_7_9_3/rearranged_h_0092.sdf

> <i_m_source_file_index>
78

> <r_mmod_Potential_Energy-OPLS-2005>
-80.3769073486328

> <r_mmod_Stretch_Energy-OPLS-2005>
50.5402908325195

> <r_mmod_Bend_Energy-OPLS-2005>
127.329177856445

> <r_mmod_Torsional_Energy-OPLS-2005>
220.107437133789

> <r_mmod_Improper_Torsional_Energy-OPLS-2005>
3.13944172859192

> <r_mmod_Van_der_Waal_Energy-OPLS-2005>
134.759185791016

> <r_mmod_Electrostatic_Energy-OPLS-2005>
-432.932983398438

> <r_mmod_Solvation_Energy-OPLS-2005>
-203.135589599609

> <b_mmod_Minimization_Converged-OPLS-2005>
0

> <r_mmod_RMS_Derivative-OPLS-2005>
4.39541912078857

$$$$
80
                    3D
 Structure written by MMmdl.
160168  0  0  1  0            999 V2000
  -30.6791  -14.5597   20.5175 C   0  0  0  0  0  0
  -30.4367  -12.3504   19.4570 C   0  0  0  0  0  0
  -29.5213  -12.5144   18.2236 C   0  0  0  0  0  0
  -28.0352  -12.3667   18.6160 C   0  0  0  0  0  0
  -27.6598  -13.2257   19.8626 C   0  0  2  0  0  0
  -28.6982  -13.0595   20.9951 C   0  0  0  0  0  0
  -25.2570  -13.8184   20.5698 C   0  0  0  0  0  0
  -24.1841  -13.0435   20.9174 C   0  0  0  0  0  0
  -24.6392  -11.6931   20.8616 C   0  0  0  0  0  0
  -23.9063  -10.4295   21.0280 C   0  0  0  0  0  0
  -24.3623   -9.4233   21.9059 C   0  0  0  0  0  0
  -23.6310   -8.2260   22.0696 C   0  0  0  0  0  0
  -22.4280   -8.0276   21.3539 C   0  0  0  0  0  0
  -21.9894   -9.0233   20.4623 C   0  0  0  0  0  0
  -22.7209  -10.2114   20.2965 C   0  0  0  0  0  0
  -21.6891   -6.0733   22.5263 C   0  0  0  0  0  0
  -21.4029   -6.5630   23.8193 C   0  0  0  0  0  0
  -21.3684   -5.6751   24.9142 C   0  0  0  0  0  0
  -21.6061   -4.3033   24.7182 C   0  0  0  0  0  0
  -21.8832   -3.8127   23.4305 C   0  0  0  0  0  0
  -21.9206   -4.6964   22.3361 C   0  0  0  0  0  0
  -22.7783  -13.5277   21.1762 C   0  0  0  0  0  0
  -22.1651   -4.2151   21.0933 F   0  0  0  0  0  0
  -21.5630   -3.4523   25.7702 F   0  0  0  0  0  0
  -30.0330  -13.3606   20.4494 N   0  0  0  0  0  0
  -26.3013  -12.9394   20.3238 N   0  0  0  0  0  0
  -25.9341  -11.6550   20.5613 N   0  0  0  0  0  0
  -22.0441  -12.8335   22.0361 N   0  0  0  0  0  0
  -25.4265  -15.1879   20.4036 N   0  0  0  0  0  0
  -31.8193  -14.7205   20.0738 O   0  0  0  0  0  0
  -21.6661   -6.8876   21.4228 O   0  0  0  0  0  0
  -22.3518  -14.5584   20.6597 O   0  0  0  0  0  0
  -24.6142  -31.8644   23.2048 C   0  0  0  0  0  0
  -25.9017  -32.4807   23.8378 C   0  0  1  0  0  0
  -27.2509  -27.3979   20.1597 C   0  0  0  0  0  0
  -25.5854  -33.8611   24.2290 N   0  0  0  0  0  0
  -23.4107  -30.4842   21.5344 C   0  0  2  0  0  0
  -24.8714  -28.9355   20.1259 C   0  0  0  0  0  0
  -22.7421  -29.4658   22.4851 C   0  0  0  0  0  0
  -18.0285  -28.1417   22.8470 C   0  0  0  0  0  0
  -24.1472  -36.7312   23.2635 C   0  0  0  0  0  0
  -25.9403  -30.8243   21.3627 C   0  0  0  0  0  0
  -26.0232  -29.4465   20.7327 C   0  0  0  0  0  0
  -27.2187  -28.6860   20.7474 C   0  0  0  0  0  0
  -26.0880  -26.9056   19.5377 C   0  0  0  0  0  0
  -24.8976  -27.6649   19.5208 C   0  0  0  0  0  0
  -23.6330  -29.8069   20.1541 C   0  0  0  0  0  0
  -25.4079  -36.3087   24.0327 C   0  0  1  0  0  0
  -20.5887  -28.3710   23.1265 C   0  0  2  0  0  0
  -20.6754  -26.9425   22.5403 C   0  0  0  0  0  0
  -19.5743  -26.6415   21.5191 C   0  0  0  0  0  0
  -18.1933  -26.7966   22.1605 C   0  0  0  0  0  0
  -19.1539  -28.8872   23.2900 C   0  0  0  0  0  0
  -18.9469  -30.1469   23.8908 C   0  0  0  0  0  0
  -17.6482  -30.6626   24.0565 C   0  0  0  0  0  0
  -25.9010  -34.9462   23.5109 C   0  0  0  0  0  0
  -16.5362  -29.9121   23.6347 C   0  0  0  0  0  0
  -16.7279  -28.6545   23.0349 C   0  0  0  0  0  0
  -26.4497  -31.6609   25.0713 C   0  0  0  0  0  0
  -25.3837  -31.3746   26.1515 C   0  0  0  0  0  0
  -27.0263  -30.3006   24.6106 C   0  0  0  0  0  0
  -27.6016  -32.4392   25.7496 C   0  0  0  0  0  0
  -27.5576  -37.1787   24.8448 C   0  0  0  0  0  0
  -21.4148  -29.3080   22.3629 N   0  0  0  0  0  0
  -26.4247  -37.3776   23.9449 N   0  0  0  0  0  0
  -24.6726  -31.0741   22.0914 N   0  0  0  0  0  0
  -23.4160  -28.8208   23.2928 O   0  0  0  0  0  0
  -28.4109  -26.6534   20.0830 O   0  0  0  0  0  0
  -26.5587  -34.8907   22.4681 O   0  0  0  0  0  0
  -23.5335  -32.1389   23.7434 O   0  0  0  0  0  0
  -31.1899  -18.9798   20.8673 C   0  0  0  0  0  0
  -28.9837  -19.1816   20.7817 C   0  0  0  0  0  0
  -29.9864  -18.2638   20.5850 C   0  0  0  0  0  0
  -30.8915  -20.2996   21.1340 C   0  0  0  0  0  0
  -31.8687  -21.3974   21.4190 C   0  0  0  0  0  0
  -26.7747  -24.1415   21.7697 C   0  0  0  0  0  0
  -29.8243  -16.8365   20.0166 C   0  0  0  0  0  0
  -29.1634  -23.1109   21.3037 C   0  0  0  0  0  0
  -28.5990  -21.6509   21.1451 C   0  0  0  0  0  0
  -28.7072  -25.7050   21.1380 C   0  0  0  0  0  0
  -28.1124  -24.2601   20.9751 C   0  0  2  0  0  0
  -29.5002  -20.4568   21.0360 N   0  0  0  0  0  0
  -29.9211  -15.6251   20.8687 N   0  0  0  0  0  0
  -31.4842  -12.4519   19.1611 H   0  0  0  0  0  0
  -30.3411  -11.3509   19.8859 H   0  0  0  0  0  0
  -29.7884  -11.7801   17.4610 H   0  0  0  0  0  0
  -29.6761  -13.5004   17.7749 H   0  0  0  0  0  0
  -27.8452  -11.3099   18.8130 H   0  0  0  0  0  0
  -27.3998  -12.6323   17.7723 H   0  0  0  0  0  0
  -27.6902  -14.2678   19.5475 H   0  0  0  0  0  0
  -28.6719  -12.0465   21.3982 H   0  0  0  0  0  0
  -28.4471  -13.7097   21.8350 H   0  0  0  0  0  0
  -25.2735   -9.5809   22.4622 H   0  0  0  0  0  0
  -24.0069   -7.4711   22.7427 H   0  0  0  0  0  0
  -21.0846   -8.8765   19.8949 H   0  0  0  0  0  0
  -22.3618  -10.9655   19.6114 H   0  0  0  0  0  0
  -21.2014   -7.6132   23.9751 H   0  0  0  0  0  0
  -21.1490   -6.0431   25.9082 H   0  0  0  0  0  0
  -22.0594   -2.7620   23.2761 H   0  0  0  0  0  0
  -22.4126  -12.0132   22.4934 H   0  0  0  0  0  0
  -21.1021  -13.1343   22.2471 H   0  0  0  0  0  0
  -24.6449  -15.8276   20.5066 H   0  0  0  0  0  0
  -26.2683  -15.6437   20.0732 H   0  0  0  0  0  0
  -26.7089  -32.5541   23.1149 H   0  0  0  0  0  0
  -24.9994  -33.9783   25.0422 H   0  0  0  0  0  0
  -22.7017  -31.3003   21.3849 H   0  0  0  0  0  0
  -23.3724  -35.9660   23.3283 H   0  0  0  0  0  0
  -24.3561  -36.8957   22.2057 H   0  0  0  0  0  0
  -23.7254  -37.6508   23.6686 H   0  0  0  0  0  0
  -26.0539  -31.5778   20.5812 H   0  0  0  0  0  0
  -26.8236  -30.8878   21.9847 H   0  0  0  0  0  0
  -28.1129  -29.0867   21.2032 H   0  0  0  0  0  0
  -26.1108  -25.9344   19.0633 H   0  0  0  0  0  0
  -24.0159  -27.2608   19.0466 H   0  0  0  0  0  0
  -23.7548  -30.5749   19.3889 H   0  0  0  0  0  0
  -22.7613  -29.2247   19.8543 H   0  0  0  0  0  0
  -25.1278  -36.1903   25.0811 H   0  0  0  0  0  0
  -21.0043  -28.3315   24.1362 H   0  0  0  0  0  0
  -20.5611  -26.2346   23.3619 H   0  0  0  0  0  0
  -21.6620  -26.7422   22.1251 H   0  0  0  0  0  0
  -19.6890  -25.6336   21.1224 H   0  0  0  0  0  0
  -19.6693  -27.3206   20.6707 H   0  0  0  0  0  0
  -17.4206  -26.6742   21.3998 H   0  0  0  0  0  0
  -18.0304  -26.0104   22.9005 H   0  0  0  0  0  0
  -19.7947  -30.7270   24.2270 H   0  0  0  0  0  0
  -17.5044  -31.6274   24.5221 H   0  0  0  0  0  0
  -15.5379  -30.3030   23.7645 H   0  0  0  0  0  0
  -15.8681  -28.0863   22.7045 H   0  0  0  0  0  0
  -24.5954  -30.7110   25.7960 H   0  0  0  0  0  0
  -24.9102  -32.2911   26.5027 H   0  0  0  0  0  0
  -25.8269  -30.8934   27.0236 H   0  0  0  0  0  0
  -26.2736  -29.6805   24.1194 H   0  0  0  0  0  0
  -27.4000  -29.7220   25.4573 H   0  0  0  0  0  0
  -27.8634  -30.4245   23.9223 H   0  0  0  0  0  0
  -27.2509  -33.3627   26.2115 H   0  0  0  0  0  0
  -28.3791  -32.7090   25.0348 H   0  0  0  0  0  0
  -28.0721  -31.8537   26.5402 H   0  0  0  0  0  0
  -28.2560  -38.0120   24.7517 H   0  0  0  0  0  0
  -28.1102  -36.2645   24.6214 H   0  0  0  0  0  0
  -27.2319  -37.1377   25.8854 H   0  0  0  0  0  0
  -20.9278  -29.8810   21.6872 H   0  0  0  0  0  0
  -26.0126  -38.2834   24.1501 H   0  0  0  0  0  0
  -32.1984  -18.5950   20.8118 H   0  0  0  0  0  0
  -27.9118  -19.0526   20.6776 H   0  0  0  0  0  0
  -32.8727  -20.9940   21.5822 H   0  0  0  0  0  0
  -31.5906  -21.9448   22.3189 H   0  0  0  0  0  0
  -31.9502  -22.0875   20.5779 H   0  0  0  0  0  0
  -26.2434  -23.2084   21.5735 H   0  0  0  0  0  0
  -26.0761  -24.9400   21.5034 H   0  0  0  0  0  0
  -26.9176  -24.2094   22.8523 H   0  0  0  0  0  0
  -30.4722  -16.7512   19.1412 H   0  0  0  0  0  0
  -28.8232  -16.7923   19.5909 H   0  0  0  0  0  0
  -30.0181  -23.2668   20.6401 H   0  0  0  0  0  0
  -29.5642  -23.2308   22.3176 H   0  0  0  0  0  0
  -27.9531  -21.6369   20.2591 H   0  0  0  0  0  0
  -27.9323  -21.4634   21.9887 H   0  0  0  0  0  0
  -29.7938  -25.6290   21.1260 H   0  0  0  0  0  0
  -28.4743  -26.1209   22.1222 H   0  0  0  0  0  0
  -27.8756  -24.1436   19.9116 H   0  0  0  0  0  0
  -29.0712  -15.3710   21.3501 H   0  0  0  0  0  0
  1 25  1  0  0  0
  1 30  2  0  0  0
  1 83  1  0  0  0
  2  3  1  0  0  0
  2 25  1  0  0  0
  2 84  1  0  0  0
  2 85  1  0  0  0
  3  4  1  0  0  0
  3 86  1  0  0  0
  3 87  1  0  0  0
  4  5  1  0  0  0
  4 88  1  0  0  0
  4 89  1  0  0  0
  5  6  1  0  0  0
  5 26  1  0  0  0
  5 90  1  0  0  0
  6 25  1  0  0  0
  6 91  1  0  0  0
  6 92  1  0  0  0
  7  8  2  0  0  0
  7 26  1  0  0  0
  7 29  1  0  0  0
  8  9  1  0  0  0
  8 22  1  0  0  0
  9 10  1  0  0  0
  9 27  2  0  0  0
 10 11  2  0  0  0
 10 15  1  0  0  0
 11 12  1  0  0  0
 11 93  1  0  0  0
 12 13  2  0  0  0
 12 94  1  0  0  0
 13 14  1  0  0  0
 13 31  1  0  0  0
 14 15  2  0  0  0
 14 95  1  0  0  0
 15 96  1  0  0  0
 16 17  2  0  0  0
 16 21  1  0  0  0
 16 31  1  0  0  0
 17 18  1  0  0  0
 17 97  1  0  0  0
 18 19  2  0  0  0
 18 98  1  0  0  0
 19 20  1  0  0  0
 19 24  1  0  0  0
 20 21  2  0  0  0
 20 99  1  0  0  0
 21 23  1  0  0  0
 22 28  1  0  0  0
 22 32  2  0  0  0
 26 27  1  0  0  0
 28100  1  0  0  0
 28101  1  0  0  0
 29102  1  0  0  0
 29103  1  0  0  0
 33 34  1  0  0  0
 33 66  1  0  0  0
 33 70  2  0  0  0
 34 36  1  0  0  0
 34 59  1  0  0  0
 34104  1  0  0  0
 35 44  2  0  0  0
 35 45  1  0  0  0
 35 68  1  0  0  0
 36 56  1  0  0  0
 36105  1  0  0  0
 37 39  1  0  0  0
 37 47  1  0  0  0
 37 66  1  0  0  0
 37106  1  0  0  0
 38 43  2  0  0  0
 38 46  1  0  0  0
 38 47  1  0  0  0
 39 64  1  0  0  0
 39 67  2  0  0  0
 40 52  1  0  0  0
 40 53  2  0  0  0
 40 58  1  0  0  0
 41107  1  0  0  0
 41108  1  0  0  0
 41109  1  0  0  0
 41 48  1  0  0  0
 42 43  1  0  0  0
 42 66  1  0  0  0
 42110  1  0  0  0
 42111  1  0  0  0
 43 44  1  0  0  0
 44112  1  0  0  0
 45 46  2  0  0  0
 45113  1  0  0  0
 46114  1  0  0  0
 47115  1  0  0  0
 47116  1  0  0  0
 48 56  1  0  0  0
 48 65  1  0  0  0
 48117  1  0  0  0
 49 50  1  0  0  0
 49 53  1  0  0  0
 49 64  1  0  0  0
 49118  1  0  0  0
 50 51  1  0  0  0
 50119  1  0  0  0
 50120  1  0  0  0
 51 52  1  0  0  0
 51121  1  0  0  0
 51122  1  0  0  0
 52123  1  0  0  0
 52124  1  0  0  0
 53 54  1  0  0  0
 54 55  2  0  0  0
 54125  1  0  0  0
 55 57  1  0  0  0
 55126  1  0  0  0
 56 69  2  0  0  0
 57 58  2  0  0  0
 57127  1  0  0  0
 58128  1  0  0  0
 59 60  1  0  0  0
 59 61  1  0  0  0
 59 62  1  0  0  0
 60129  1  0  0  0
 60130  1  0  0  0
 60131  1  0  0  0
 61132  1  0  0  0
 61133  1  0  0  0
 61134  1  0  0  0
 62135  1  0  0  0
 62136  1  0  0  0
 62137  1  0  0  0
 63 65  1  0  0  0
 63138  1  0  0  0
 63139  1  0  0  0
 63140  1  0  0  0
 64141  1  0  0  0
 65142  1  0  0  0
 68 80  1  0  0  0
 71 73  1  0  0  0
 71 74  2  0  0  0
 71143  1  0  0  0
 72 73  2  0  0  0
 72 82  1  0  0  0
 72144  1  0  0  0
 73 77  1  0  0  0
 74 75  1  0  0  0
 74 82  1  0  0  0
 75145  1  0  0  0
 75146  1  0  0  0
 75147  1  0  0  0
 76148  1  0  0  0
 76149  1  0  0  0
 76150  1  0  0  0
 76 81  1  0  0  0
 77 83  1  0  0  0
 77151  1  0  0  0
 77152  1  0  0  0
 78 79  1  0  0  0
 78 81  1  0  0  0
 78153  1  0  0  0
 78154  1  0  0  0
 79 82  1  0  0  0
 79155  1  0  0  0
 79156  1  0  0  0
 80 81  1  0  0  0
 80157  1  0  0  0
 80158  1  0  0  0
 81159  1  0  0  0
 83160  1  0  0  0
M  ISO  4   1 100  68 101  80 101  83 100
M  END
> <chiral flag>
0

> <version>
0

> <s_m_source_file>
/data/baiqing/PycharmProjects/Reinvent-master-3.2/result/LINK_invent/BTK/process_docking_weight1_custom_sum_contain_oxygen_bond_distance_aromatic_linkinvent_7_9_3/rearranged_h_0092.sdf

> <i_m_source_file_index>
79

> <r_mmod_Potential_Energy-OPLS-2005>
-6.18160438537598

> <r_mmod_Stretch_Energy-OPLS-2005>
55.5709266662598

> <r_mmod_Bend_Energy-OPLS-2005>
138.617797851562

> <r_mmod_Torsional_Energy-OPLS-2005>
280.150451660156

> <r_mmod_Improper_Torsional_Energy-OPLS-2005>
9.98408794403076

> <r_mmod_Van_der_Waal_Energy-OPLS-2005>
113.650848388672

> <r_mmod_Electrostatic_Energy-OPLS-2005>
-411.805969238281

> <r_mmod_Solvation_Energy-OPLS-2005>
-215.776962280273

> <b_mmod_Minimization_Converged-OPLS-2005>
0

> <r_mmod_RMS_Derivative-OPLS-2005>
10.2370586395264

$$$$
81
                    3D
 Structure written by MMmdl.
182190  0  0  1  0            999 V2000
  -30.5904  -14.7710   20.5229 C   0  0  0  0  0  0
  -30.4463  -12.4979   19.4542 C   0  0  0  0  0  0
  -29.5067  -12.5410   18.2252 C   0  0  0  0  0  0
  -28.0296  -12.3604   18.6345 C   0  0  0  0  0  0
  -27.6468  -13.2202   19.8663 C   0  0  2  0  0  0
  -28.7000  -13.0548   20.9822 C   0  0  0  0  0  0
  -25.2488  -13.8153   20.5640 C   0  0  0  0  0  0
  -24.1787  -13.0409   20.9189 C   0  0  0  0  0  0
  -24.6387  -11.6895   20.8759 C   0  0  0  0  0  0
  -23.9069  -10.4281   21.0417 C   0  0  0  0  0  0
  -24.3621   -9.4201   21.9194 C   0  0  0  0  0  0
  -23.6296   -8.2238   22.0761 C   0  0  0  0  0  0
  -22.4275   -8.0285   21.3550 C   0  0  0  0  0  0
  -21.9913   -9.0256   20.4649 C   0  0  0  0  0  0
  -22.7245  -10.2131   20.3061 C   0  0  0  0  0  0
  -21.6852   -6.0741   22.5280 C   0  0  0  0  0  0
  -21.4015   -6.5645   23.8213 C   0  0  0  0  0  0
  -21.3655   -5.6795   24.9175 C   0  0  0  0  0  0
  -21.6043   -4.3059   24.7222 C   0  0  0  0  0  0
  -21.8820   -3.8152   23.4344 C   0  0  0  0  0  0
  -21.9191   -4.6971   22.3399 C   0  0  0  0  0  0
  -22.7814  -13.5208   21.1850 C   0  0  0  0  0  0
  -22.1655   -4.2157   21.0975 F   0  0  0  0  0  0
  -21.5625   -3.4540   25.7732 F   0  0  0  0  0  0
  -29.9801  -13.5245   20.4254 N   0  0  0  0  0  0
  -26.2950  -12.9350   20.3347 N   0  0  0  0  0  0
  -25.9320  -11.6503   20.5789 N   0  0  0  0  0  0
  -22.0474  -12.8198   22.0418 N   0  0  0  0  0  0
  -25.4084  -15.1867   20.3935 N   0  0  0  0  0  0
  -31.7546  -14.8681   20.1173 O   0  0  0  0  0  0
  -21.6637   -6.8886   21.4244 O   0  0  0  0  0  0
  -22.3493  -14.5514   20.6705 O   0  0  0  0  0  0
  -24.6306  -31.8537   23.1953 C   0  0  0  0  0  0
  -25.9128  -32.4746   23.8310 C   0  0  1  0  0  0
  -27.2292  -27.2600   20.1443 C   0  0  0  0  0  0
  -25.5926  -33.8552   24.2243 N   0  0  0  0  0  0
  -23.4283  -30.4714   21.5399 C   0  0  2  0  0  0
  -24.8774  -28.9046   20.1232 C   0  0  0  0  0  0
  -22.7493  -29.4585   22.4932 C   0  0  0  0  0  0
  -18.0286  -28.1374   22.8485 C   0  0  0  0  0  0
  -24.1492  -36.7275   23.2641 C   0  0  0  0  0  0
  -25.9724  -30.7665   21.3730 C   0  0  0  0  0  0
  -26.0479  -29.3834   20.7264 C   0  0  0  0  0  0
  -27.2295  -28.5758   20.7182 C   0  0  0  0  0  0
  -26.0353  -26.8331   19.5314 C   0  0  0  0  0  0
  -24.8750  -27.6368   19.5155 C   0  0  0  0  0  0
  -23.6486  -29.7944   20.1608 C   0  0  0  0  0  0
  -25.4122  -36.3067   24.0325 C   0  0  1  0  0  0
  -20.5886  -28.3685   23.1276 C   0  0  2  0  0  0
  -20.6769  -26.9407   22.5408 C   0  0  0  0  0  0
  -19.5751  -26.6377   21.5207 C   0  0  0  0  0  0
  -18.1930  -26.7919   22.1619 C   0  0  0  0  0  0
  -19.1537  -28.8850   23.2873 C   0  0  0  0  0  0
  -18.9461  -30.1449   23.8896 C   0  0  0  0  0  0
  -17.6461  -30.6582   24.0558 C   0  0  0  0  0  0
  -25.9062  -34.9438   23.5090 C   0  0  0  0  0  0
  -16.5353  -29.9079   23.6329 C   0  0  0  0  0  0
  -16.7272  -28.6491   23.0361 C   0  0  0  0  0  0
  -26.4505  -31.6566   25.0695 C   0  0  0  0  0  0
  -25.3725  -31.3695   26.1407 C   0  0  0  0  0  0
  -27.0363  -30.2994   24.6157 C   0  0  0  0  0  0
  -27.6060  -32.4305   25.7469 C   0  0  0  0  0  0
  -27.5583  -37.1791   24.8467 C   0  0  0  0  0  0
  -21.4201  -29.3032   22.3669 N   0  0  0  0  0  0
  -26.4294  -37.3768   23.9412 N   0  0  0  0  0  0
  -24.6961  -31.0492   22.0927 N   0  0  0  0  0  0
  -23.4190  -28.8136   23.3041 O   0  0  0  0  0  0
  -28.3576  -26.4195   20.0687 O   0  0  0  0  0  0
  -26.5638  -34.8915   22.4661 O   0  0  0  0  0  0
  -23.5457  -32.1363   23.7245 O   0  0  0  0  0  0
  -30.5146  -20.1521   22.7623 C   0  0  0  0  0  0
  -29.9661  -21.2774   22.1180 C   0  0  0  0  0  0
  -30.6004  -18.8980   22.1252 C   0  0  0  0  0  0
  -29.4949  -21.1496   20.7917 C   0  0  0  0  0  0
  -30.0039  -18.7298   20.8474 C   0  0  0  0  0  0
  -32.8300  -17.6811   22.2423 C   0  0  0  0  0  0
  -29.1147  -17.3273   18.8508 C   0  0  0  0  0  0
  -32.6655  -26.7222   24.1932 C   0  0  0  0  0  0
  -32.1634  -26.3967   21.7449 C   0  0  0  0  0  0
  -28.7888  -16.0041   21.7843 C   0  0  0  0  0  0
  -31.4237  -17.8246   22.8362 C   0  0  0  0  0  0
  -29.9807  -22.5991   22.8754 C   0  0  0  0  0  0
  -29.2152  -22.4590   19.9060 C   0  0  0  0  0  0
  -31.2528  -23.4295   22.6264 C   0  0  0  0  0  0
  -28.1100  -23.6265   20.1899 C   0  0  0  0  0  0
  -31.2872  -24.7218   23.4633 C   0  0  0  0  0  0
  -28.4387  -25.1046   20.7850 C   0  0  0  0  0  0
  -30.0575  -17.3107   20.0703 C   0  0  2  0  0  0
  -32.4306  -25.6857   23.0833 C   0  0  0  0  0  0
  -29.5058  -19.8768   20.2104 N   0  0  0  0  0  0
  -29.8358  -15.9403   20.7536 N   0  0  0  0  0  0
  -31.4751  -12.6638   19.1299 H   0  0  0  0  0  0
  -30.4463  -11.5056   19.9075 H   0  0  0  0  0  0
  -29.7901  -11.7736   17.5034 H   0  0  0  0  0  0
  -29.6257  -13.4969   17.7131 H   0  0  0  0  0  0
  -27.8739  -11.3047   18.8584 H   0  0  0  0  0  0
  -27.3732  -12.5924   17.7952 H   0  0  0  0  0  0
  -27.6622  -14.2576   19.5327 H   0  0  0  0  0  0
  -28.7721  -12.0028   21.2634 H   0  0  0  0  0  0
  -28.4133  -13.5389   21.9095 H   0  0  0  0  0  0
  -25.2767   -9.5679   22.4765 H   0  0  0  0  0  0
  -24.0018   -7.4626   22.7471 H   0  0  0  0  0  0
  -21.0853   -8.8772   19.8942 H   0  0  0  0  0  0
  -22.3713  -10.9673   19.6169 H   0  0  0  0  0  0
  -21.2006   -7.6152   23.9717 H   0  0  0  0  0  0
  -21.1477   -6.0528   25.9078 H   0  0  0  0  0  0
  -22.0602   -2.7619   23.2840 H   0  0  0  0  0  0
  -22.4112  -11.9863   22.4791 H   0  0  0  0  0  0
  -21.1094  -13.1217   22.2631 H   0  0  0  0  0  0
  -24.6343  -15.8343   20.4923 H   0  0  0  0  0  0
  -26.2521  -15.6287   20.0529 H   0  0  0  0  0  0
  -26.7190  -32.5400   23.1049 H   0  0  0  0  0  0
  -25.0065  -33.9693   25.0382 H   0  0  0  0  0  0
  -22.7250  -31.2927   21.3878 H   0  0  0  0  0  0
  -23.3767  -35.9594   23.3292 H   0  0  0  0  0  0
  -24.3584  -36.8913   22.2058 H   0  0  0  0  0  0
  -23.7234  -37.6464   23.6677 H   0  0  0  0  0  0
  -26.1045  -31.5212   20.5966 H   0  0  0  0  0  0
  -26.8525  -30.8241   22.0020 H   0  0  0  0  0  0
  -28.1363  -28.9483   21.1742 H   0  0  0  0  0  0
  -26.0032  -25.8627   19.0564 H   0  0  0  0  0  0
  -23.9789  -27.2637   19.0385 H   0  0  0  0  0  0
  -23.7751  -30.5645   19.3990 H   0  0  0  0  0  0
  -22.7678  -29.2251   19.8579 H   0  0  0  0  0  0
  -25.1307  -36.1906   25.0817 H   0  0  0  0  0  0
  -20.9974  -28.3253   24.1399 H   0  0  0  0  0  0
  -20.5657  -26.2297   23.3606 H   0  0  0  0  0  0
  -21.6638  -26.7419   22.1214 H   0  0  0  0  0  0
  -19.6912  -25.6288   21.1239 H   0  0  0  0  0  0
  -19.6687  -27.3183   20.6734 H   0  0  0  0  0  0
  -17.4196  -26.6664   21.4024 H   0  0  0  0  0  0
  -18.0334  -26.0060   22.9015 H   0  0  0  0  0  0
  -19.7938  -30.7259   24.2274 H   0  0  0  0  0  0
  -17.5017  -31.6270   24.5145 H   0  0  0  0  0  0
  -15.5353  -30.2983   23.7651 H   0  0  0  0  0  0
  -15.8669  -28.0803   22.7093 H   0  0  0  0  0  0
  -24.5928  -30.7018   25.7720 H   0  0  0  0  0  0
  -24.8880  -32.2848   26.4810 H   0  0  0  0  0  0
  -25.8043  -30.8887   27.0193 H   0  0  0  0  0  0
  -26.2940  -29.6728   24.1196 H   0  0  0  0  0  0
  -27.4088  -29.7261   25.4655 H   0  0  0  0  0  0
  -27.8793  -30.4295   23.9367 H   0  0  0  0  0  0
  -27.2684  -33.3623   26.2015 H   0  0  0  0  0  0
  -28.3882  -32.6828   25.0297 H   0  0  0  0  0  0
  -28.0709  -31.8440   26.5402 H   0  0  0  0  0  0
  -28.2586  -38.0102   24.7535 H   0  0  0  0  0  0
  -28.1094  -36.2633   24.6271 H   0  0  0  0  0  0
  -27.2300  -37.1410   25.8868 H   0  0  0  0  0  0
  -20.9386  -29.8757   21.6875 H   0  0  0  0  0  0
  -26.0168  -38.2837   24.1428 H   0  0  0  0  0  0
  -30.9423  -20.2741   23.7473 H   0  0  0  0  0  0
  -33.4063  -16.9305   22.7839 H   0  0  0  0  0  0
  -33.3774  -18.6218   22.3008 H   0  0  0  0  0  0
  -32.8043  -17.3773   21.1968 H   0  0  0  0  0  0
  -29.3607  -18.1408   18.1681 H   0  0  0  0  0  0
  -28.0772  -17.4557   19.1592 H   0  0  0  0  0  0
  -29.1792  -16.4014   18.2792 H   0  0  0  0  0  0
  -33.4747  -27.4047   23.9306 H   0  0  0  0  0  0
  -32.9410  -26.2412   25.1325 H   0  0  0  0  0  0
  -31.7730  -27.3222   24.3761 H   0  0  0  0  0  0
  -32.9838  -27.0667   21.4858 H   0  0  0  0  0  0
  -31.2516  -26.9941   21.7868 H   0  0  0  0  0  0
  -32.0577  -25.6923   20.9204 H   0  0  0  0  0  0
  -28.5749  -17.0151   22.1221 H   0  0  0  0  0  0
  -29.0741  -15.4473   22.6773 H   0  0  0  0  0  0
  -27.8456  -15.6206   21.4086 H   0  0  0  0  0  0
  -30.9299  -16.8619   22.8615 H   0  0  0  0  0  0
  -31.5242  -18.0922   23.8892 H   0  0  0  0  0  0
  -29.8994  -22.3857   23.9425 H   0  0  0  0  0  0
  -29.0851  -23.1685   22.6403 H   0  0  0  0  0  0
  -28.9662  -22.0633   18.9210 H   0  0  0  0  0  0
  -30.1759  -22.9444   19.7421 H   0  0  0  0  0  0
  -31.3315  -23.6640   21.5673 H   0  0  0  0  0  0
  -32.1342  -22.8323   22.8650 H   0  0  0  0  0  0
  -27.3132  -23.1796   20.7855 H   0  0  0  0  0  0
  -27.6295  -23.8188   19.2304 H   0  0  0  0  0  0
  -31.3837  -24.4390   24.5126 H   0  0  0  0  0  0
  -30.3336  -25.2463   23.3872 H   0  0  0  0  0  0
  -29.4691  -25.0668   21.1304 H   0  0  0  0  0  0
  -27.8602  -25.2182   21.7030 H   0  0  0  0  0  0
  -31.0681  -17.2840   19.6622 H   0  0  0  0  0  0
  -33.3501  -25.1061   22.9834 H   0  0  0  0  0  0
  1 25  1  0  0  0
  1 30  2  0  0  0
  1 91  1  0  0  0
  2  3  1  0  0  0
  2 25  1  0  0  0
  2 92  1  0  0  0
  2 93  1  0  0  0
  3  4  1  0  0  0
  3 94  1  0  0  0
  3 95  1  0  0  0
  4  5  1  0  0  0
  4 96  1  0  0  0
  4 97  1  0  0  0
  5  6  1  0  0  0
  5 26  1  0  0  0
  5 98  1  0  0  0
  6 25  1  0  0  0
  6 99  1  0  0  0
  6100  1  0  0  0
  7  8  2  0  0  0
  7 26  1  0  0  0
  7 29  1  0  0  0
  8  9  1  0  0  0
  8 22  1  0  0  0
  9 10  1  0  0  0
  9 27  2  0  0  0
 10 11  2  0  0  0
 10 15  1  0  0  0
 11 12  1  0  0  0
 11101  1  0  0  0
 12 13  2  0  0  0
 12102  1  0  0  0
 13 14  1  0  0  0
 13 31  1  0  0  0
 14 15  2  0  0  0
 14103  1  0  0  0
 15104  1  0  0  0
 16 17  2  0  0  0
 16 21  1  0  0  0
 16 31  1  0  0  0
 17 18  1  0  0  0
 17105  1  0  0  0
 18 19  2  0  0  0
 18106  1  0  0  0
 19 20  1  0  0  0
 19 24  1  0  0  0
 20 21  2  0  0  0
 20107  1  0  0  0
 21 23  1  0  0  0
 22 28  1  0  0  0
 22 32  2  0  0  0
 26 27  1  0  0  0
 28108  1  0  0  0
 28109  1  0  0  0
 29110  1  0  0  0
 29111  1  0  0  0
 33 34  1  0  0  0
 33 66  1  0  0  0
 33 70  2  0  0  0
 34 36  1  0  0  0
 34 59  1  0  0  0
 34112  1  0  0  0
 35 44  2  0  0  0
 35 45  1  0  0  0
 35 68  1  0  0  0
 36 56  1  0  0  0
 36113  1  0  0  0
 37 39  1  0  0  0
 37 47  1  0  0  0
 37 66  1  0  0  0
 37114  1  0  0  0
 38 43  2  0  0  0
 38 46  1  0  0  0
 38 47  1  0  0  0
 39 64  1  0  0  0
 39 67  2  0  0  0
 40 52  1  0  0  0
 40 53  2  0  0  0
 40 58  1  0  0  0
 41115  1  0  0  0
 41116  1  0  0  0
 41117  1  0  0  0
 41 48  1  0  0  0
 42 43  1  0  0  0
 42 66  1  0  0  0
 42118  1  0  0  0
 42119  1  0  0  0
 43 44  1  0  0  0
 44120  1  0  0  0
 45 46  2  0  0  0
 45121  1  0  0  0
 46122  1  0  0  0
 47123  1  0  0  0
 47124  1  0  0  0
 48 56  1  0  0  0
 48 65  1  0  0  0
 48125  1  0  0  0
 49 50  1  0  0  0
 49 53  1  0  0  0
 49 64  1  0  0  0
 49126  1  0  0  0
 50 51  1  0  0  0
 50127  1  0  0  0
 50128  1  0  0  0
 51 52  1  0  0  0
 51129  1  0  0  0
 51130  1  0  0  0
 52131  1  0  0  0
 52132  1  0  0  0
 53 54  1  0  0  0
 54 55  2  0  0  0
 54133  1  0  0  0
 55 57  1  0  0  0
 55134  1  0  0  0
 56 69  2  0  0  0
 57 58  2  0  0  0
 57135  1  0  0  0
 58136  1  0  0  0
 59 60  1  0  0  0
 59 61  1  0  0  0
 59 62  1  0  0  0
 60137  1  0  0  0
 60138  1  0  0  0
 60139  1  0  0  0
 61140  1  0  0  0
 61141  1  0  0  0
 61142  1  0  0  0
 62143  1  0  0  0
 62144  1  0  0  0
 62145  1  0  0  0
 63 65  1  0  0  0
 63146  1  0  0  0
 63147  1  0  0  0
 63148  1  0  0  0
 64149  1  0  0  0
 65150  1  0  0  0
 68 87  1  0  0  0
 71 72  2  0  0  0
 71 73  1  0  0  0
 71151  1  0  0  0
 72 74  1  0  0  0
 72 82  1  0  0  0
 73 75  2  0  0  0
 73 81  1  0  0  0
 74 83  1  0  0  0
 74 90  2  0  0  0
 75 88  1  0  0  0
 75 90  1  0  0  0
 76 81  1  0  0  0
 76152  1  0  0  0
 76153  1  0  0  0
 76154  1  0  0  0
 77155  1  0  0  0
 77156  1  0  0  0
 77157  1  0  0  0
 77 88  1  0  0  0
 78158  1  0  0  0
 78159  1  0  0  0
 78160  1  0  0  0
 78 89  1  0  0  0
 79 89  1  0  0  0
 79161  1  0  0  0
 79162  1  0  0  0
 79163  1  0  0  0
 80 91  1  0  0  0
 80164  1  0  0  0
 80165  1  0  0  0
 80166  1  0  0  0
 81167  1  0  0  0
 81168  1  0  0  0
 82 84  1  0  0  0
 82169  1  0  0  0
 82170  1  0  0  0
 83 85  1  0  0  0
 83171  1  0  0  0
 83172  1  0  0  0
 84 86  1  0  0  0
 84173  1  0  0  0
 84174  1  0  0  0
 85 87  1  0  0  0
 85175  1  0  0  0
 85176  1  0  0  0
 86 89  1  0  0  0
 86177  1  0  0  0
 86178  1  0  0  0
 87179  1  0  0  0
 87180  1  0  0  0
 88 91  1  0  0  0
 88181  1  0  0  0
 89182  1  0  0  0
M  ISO  4   1 100  68 101  87 101  91 100
M  END
> <chiral flag>
0

> <version>
0

> <s_m_source_file>
/data/baiqing/PycharmProjects/Reinvent-master-3.2/result/LINK_invent/BTK/process_docking_weight1_custom_sum_contain_oxygen_bond_distance_aromatic_linkinvent_7_9_3/rearranged_h_0092.sdf

> <i_m_source_file_index>
80

> <r_mmod_Potential_Energy-OPLS-2005>
202.283126831055

> <r_mmod_Stretch_Energy-OPLS-2005>
151.616821289062

> <r_mmod_Bend_Energy-OPLS-2005>
233.365371704102

> <r_mmod_Torsional_Energy-OPLS-2005>
315.322662353516

> <r_mmod_Improper_Torsional_Energy-OPLS-2005>
10.57080078125

> <r_mmod_Van_der_Waal_Energy-OPLS-2005>
135.986053466797

> <r_mmod_Electrostatic_Energy-OPLS-2005>
-529.29052734375

> <r_mmod_Solvation_Energy-OPLS-2005>
-194.007568359375

> <b_mmod_Minimization_Converged-OPLS-2005>
0

> <r_mmod_RMS_Derivative-OPLS-2005>
1.01054167747498

$$$$
82
                    3D
 Structure written by MMmdl.
173181  0  0  1  0            999 V2000
  -30.6696  -14.5641   20.4649 C   0  0  0  0  0  0
  -30.4258  -12.3302   19.4516 C   0  0  0  0  0  0
  -29.5055  -12.4807   18.2198 C   0  0  0  0  0  0
  -28.0230  -12.3533   18.6240 C   0  0  0  0  0  0
  -27.6574  -13.2158   19.8633 C   0  0  2  0  0  0
  -28.7031  -13.0596   20.9940 C   0  0  0  0  0  0
  -25.2571  -13.8179   20.5663 C   0  0  0  0  0  0
  -24.1841  -13.0439   20.9185 C   0  0  0  0  0  0
  -24.6403  -11.6913   20.8735 C   0  0  0  0  0  0
  -23.9068  -10.4297   21.0406 C   0  0  0  0  0  0
  -24.3620   -9.4215   21.9178 C   0  0  0  0  0  0
  -23.6303   -8.2241   22.0742 C   0  0  0  0  0  0
  -22.4274   -8.0275   21.3549 C   0  0  0  0  0  0
  -21.9922   -9.0248   20.4631 C   0  0  0  0  0  0
  -22.7248  -10.2133   20.3047 C   0  0  0  0  0  0
  -21.6861   -6.0743   22.5275 C   0  0  0  0  0  0
  -21.4012   -6.5644   23.8207 C   0  0  0  0  0  0
  -21.3658   -5.6799   24.9171 C   0  0  0  0  0  0
  -21.6041   -4.3056   24.7231 C   0  0  0  0  0  0
  -21.8824   -3.8151   23.4347 C   0  0  0  0  0  0
  -21.9194   -4.6969   22.3401 C   0  0  0  0  0  0
  -22.7855  -13.5226   21.1855 C   0  0  0  0  0  0
  -22.1664   -4.2149   21.0980 F   0  0  0  0  0  0
  -21.5629   -3.4533   25.7744 F   0  0  0  0  0  0
  -30.0307  -13.3567   20.4326 N   0  0  0  0  0  0
  -26.3016  -12.9356   20.3319 N   0  0  0  0  0  0
  -25.9337  -11.6520   20.5762 N   0  0  0  0  0  0
  -22.0494  -12.8211   22.0392 N   0  0  0  0  0  0
  -25.4282  -15.1892   20.4041 N   0  0  0  0  0  0
  -31.8257  -14.7090   20.0638 O   0  0  0  0  0  0
  -21.6639   -6.8879   21.4232 O   0  0  0  0  0  0
  -22.3524  -14.5529   20.6698 O   0  0  0  0  0  0
  -24.6168  -31.8643   23.2061 C   0  0  0  0  0  0
  -25.9036  -32.4796   23.8365 C   0  0  1  0  0  0
  -27.2272  -27.3850   20.1078 C   0  0  0  0  0  0
  -25.5867  -33.8600   24.2307 N   0  0  0  0  0  0
  -23.4089  -30.4874   21.5454 C   0  0  2  0  0  0
  -24.8559  -28.9477   20.1122 C   0  0  0  0  0  0
  -22.7422  -29.4627   22.4928 C   0  0  0  0  0  0
  -18.0291  -28.1414   22.8504 C   0  0  0  0  0  0
  -24.1472  -36.7295   23.2634 C   0  0  0  0  0  0
  -25.9415  -30.8167   21.3636 C   0  0  0  0  0  0
  -26.0211  -29.4460   20.7120 C   0  0  0  0  0  0
  -27.2139  -28.6760   20.7024 C   0  0  0  0  0  0
  -26.0455  -26.9211   19.4898 C   0  0  0  0  0  0
  -24.8652  -27.6868   19.4941 C   0  0  0  0  0  0
  -23.6208  -29.8196   20.1606 C   0  0  0  0  0  0
  -25.4098  -36.3086   24.0335 C   0  0  1  0  0  0
  -20.5888  -28.3672   23.1311 C   0  0  2  0  0  0
  -20.6791  -26.9403   22.5412 C   0  0  0  0  0  0
  -19.5761  -26.6406   21.5222 C   0  0  0  0  0  0
  -18.1939  -26.7970   22.1631 C   0  0  0  0  0  0
  -19.1550  -28.8872   23.2917 C   0  0  0  0  0  0
  -18.9470  -30.1494   23.8906 C   0  0  0  0  0  0
  -17.6468  -30.6621   24.0584 C   0  0  0  0  0  0
  -25.9043  -34.9455   23.5128 C   0  0  0  0  0  0
  -16.5361  -29.9108   23.6356 C   0  0  0  0  0  0
  -16.7285  -28.6540   23.0352 C   0  0  0  0  0  0
  -26.4468  -31.6588   25.0690 C   0  0  0  0  0  0
  -25.3732  -31.3732   26.1441 C   0  0  0  0  0  0
  -27.0283  -30.3011   24.6069 C   0  0  0  0  0  0
  -27.6039  -32.4297   25.7464 C   0  0  0  0  0  0
  -27.5580  -37.1808   24.8466 C   0  0  0  0  0  0
  -21.4149  -29.3036   22.3693 N   0  0  0  0  0  0
  -26.4285  -37.3764   23.9412 N   0  0  0  0  0  0
  -24.6749  -31.0701   22.0969 N   0  0  0  0  0  0
  -23.4176  -28.8163   23.2980 O   0  0  0  0  0  0
  -28.3508  -26.5693   20.1207 O   0  0  0  0  0  0
  -26.5581  -34.8911   22.4681 O   0  0  0  0  0  0
  -23.5348  -32.1410   23.7438 O   0  0  0  0  0  0
  -28.3333  -20.4818   22.9166 C   0  0  0  0  0  0
  -28.2551  -19.5487   23.9656 C   0  0  0  0  0  0
  -29.0832  -20.1998   21.7457 C   0  0  0  0  0  0
  -28.9281  -18.3242   23.8181 C   0  0  0  0  0  0
  -29.6370  -18.8711   21.6636 C   0  0  0  0  0  0
  -28.9861  -17.2723   24.9110 C   0  0  0  0  0  0
  -24.9723  -17.4269   26.9679 C   0  0  0  0  0  0
  -27.4875  -19.8860   25.2346 C   0  0  0  0  0  0
  -29.2936  -21.3415   20.6992 C   0  0  0  0  0  0
  -30.4410  -18.2623   20.5072 C   0  0  0  0  0  0
  -26.1374  -18.4105   26.8227 C   0  0  0  0  0  0
  -26.2240  -19.0233   25.4165 C   0  0  0  0  0  0
  -28.6262  -22.7330   21.0492 C   0  0  0  0  0  0
  -28.8882  -24.0218   20.1911 C   0  0  0  0  0  0
  -29.9037  -16.9166   19.8809 C   0  0  0  0  0  0
  -28.1704  -25.2856   20.7877 C   0  0  0  0  0  0
  -29.5754  -18.0029   22.6934 N   0  0  0  0  0  0
  -29.8747  -15.6432   20.6696 N   0  0  0  0  0  0
  -31.4724  -12.4188   19.1540 H   0  0  0  0  0  0
  -30.3229  -11.3353   19.8869 H   0  0  0  0  0  0
  -29.7516  -11.7228   17.4751 H   0  0  0  0  0  0
  -29.6784  -13.4459   17.7408 H   0  0  0  0  0  0
  -27.8284  -11.3012   18.8345 H   0  0  0  0  0  0
  -27.3800  -12.6156   17.7822 H   0  0  0  0  0  0
  -27.6806  -14.2527   19.5301 H   0  0  0  0  0  0
  -28.6881  -12.0439   21.3904 H   0  0  0  0  0  0
  -28.4680  -13.7142   21.8344 H   0  0  0  0  0  0
  -25.2776   -9.5686   22.4743 H   0  0  0  0  0  0
  -24.0020   -7.4633   22.7461 H   0  0  0  0  0  0
  -21.0857   -8.8764   19.8934 H   0  0  0  0  0  0
  -22.3713  -10.9663   19.6138 H   0  0  0  0  0  0
  -21.1996   -7.6151   23.9716 H   0  0  0  0  0  0
  -21.1472   -6.0522   25.9080 H   0  0  0  0  0  0
  -22.0602   -2.7608   23.2847 H   0  0  0  0  0  0
  -22.4123  -11.9883   22.4802 H   0  0  0  0  0  0
  -21.1077  -13.1174   22.2550 H   0  0  0  0  0  0
  -24.6610  -15.8453   20.5072 H   0  0  0  0  0  0
  -26.2795  -15.6257   20.0740 H   0  0  0  0  0  0
  -26.7080  -32.5483   23.1112 H   0  0  0  0  0  0
  -25.0058  -33.9778   25.0470 H   0  0  0  0  0  0
  -22.7004  -31.3065   21.4051 H   0  0  0  0  0  0
  -23.3737  -35.9613   23.3294 H   0  0  0  0  0  0
  -24.3595  -36.8912   22.2049 H   0  0  0  0  0  0
  -23.7211  -37.6493   23.6659 H   0  0  0  0  0  0
  -26.0569  -31.5776   20.5901 H   0  0  0  0  0  0
  -26.8311  -30.8754   21.9782 H   0  0  0  0  0  0
  -28.1088  -29.0529   21.1774 H   0  0  0  0  0  0
  -26.0341  -25.9522   19.0098 H   0  0  0  0  0  0
  -23.9709  -27.3056   19.0212 H   0  0  0  0  0  0
  -23.7350  -30.5966   19.4037 H   0  0  0  0  0  0
  -22.7444  -29.2431   19.8602 H   0  0  0  0  0  0
  -25.1290  -36.1940   25.0820 H   0  0  0  0  0  0
  -21.0028  -28.3235   24.1419 H   0  0  0  0  0  0
  -20.5729  -26.2259   23.3590 H   0  0  0  0  0  0
  -21.6657  -26.7475   22.1193 H   0  0  0  0  0  0
  -19.6900  -25.6317   21.1250 H   0  0  0  0  0  0
  -19.6725  -27.3244   20.6782 H   0  0  0  0  0  0
  -17.4219  -26.6753   21.4011 H   0  0  0  0  0  0
  -18.0335  -26.0129   22.9053 H   0  0  0  0  0  0
  -19.7939  -30.7349   24.2235 H   0  0  0  0  0  0
  -17.5016  -31.6287   24.5211 H   0  0  0  0  0  0
  -15.5369  -30.3015   23.7679 H   0  0  0  0  0  0
  -15.8693  -28.0884   22.7002 H   0  0  0  0  0  0
  -24.5865  -30.7122   25.7797 H   0  0  0  0  0  0
  -24.8979  -32.2922   26.4881 H   0  0  0  0  0  0
  -25.8085  -30.8899   27.0193 H   0  0  0  0  0  0
  -26.2831  -29.6782   24.1099 H   0  0  0  0  0  0
  -27.4049  -29.7218   25.4511 H   0  0  0  0  0  0
  -27.8666  -30.4346   23.9218 H   0  0  0  0  0  0
  -27.2673  -33.3612   26.2027 H   0  0  0  0  0  0
  -28.3862  -32.6833   25.0302 H   0  0  0  0  0  0
  -28.0662  -31.8403   26.5391 H   0  0  0  0  0  0
  -28.2594  -38.0108   24.7527 H   0  0  0  0  0  0
  -28.1089  -36.2655   24.6287 H   0  0  0  0  0  0
  -27.2324  -37.1441   25.8872 H   0  0  0  0  0  0
  -20.9290  -29.8693   21.6885 H   0  0  0  0  0  0
  -26.0167  -38.2824   24.1440 H   0  0  0  0  0  0
  -27.8311  -21.4257   23.0551 H   0  0  0  0  0  0
  -29.2688  -17.7132   25.8665 H   0  0  0  0  0  0
  -29.7280  -16.5059   24.6791 H   0  0  0  0  0  0
  -28.0245  -16.7724   25.0250 H   0  0  0  0  0  0
  -24.9605  -16.9808   27.9625 H   0  0  0  0  0  0
  -25.0520  -16.6131   26.2462 H   0  0  0  0  0  0
  -24.0145  -17.9234   26.8121 H   0  0  0  0  0  0
  -27.2155  -20.9423   25.2375 H   0  0  0  0  0  0
  -28.1657  -19.7678   26.0806 H   0  0  0  0  0  0
  -28.9474  -20.9973   19.7241 H   0  0  0  0  0  0
  -30.3693  -21.4959   20.6015 H   0  0  0  0  0  0
  -31.4698  -18.1233   20.8406 H   0  0  0  0  0  0
  -30.4931  -19.0088   19.7147 H   0  0  0  0  0  0
  -27.0653  -17.8851   27.0548 H   0  0  0  0  0  0
  -26.0430  -19.2079   27.5599 H   0  0  0  0  0  0
  -26.2047  -18.2205   24.6782 H   0  0  0  0  0  0
  -25.3363  -19.6229   25.2081 H   0  0  0  0  0  0
  -28.9365  -23.0043   22.0598 H   0  0  0  0  0  0
  -27.5452  -22.5847   21.0859 H   0  0  0  0  0  0
  -28.5463  -23.8598   19.1696 H   0  0  0  0  0  0
  -29.9604  -24.2106   20.1319 H   0  0  0  0  0  0
  -30.4656  -16.7340   18.9635 H   0  0  0  0  0  0
  -28.8819  -17.0994   19.5497 H   0  0  0  0  0  0
  -28.5238  -25.4311   21.8100 H   0  0  0  0  0  0
  -27.1144  -25.0359   20.8978 H   0  0  0  0  0  0
  -28.9886  -15.4349   21.1048 H   0  0  0  0  0  0
  1 25  1  0  0  0
  1 30  2  0  0  0
  1 88  1  0  0  0
  2  3  1  0  0  0
  2 25  1  0  0  0
  2 89  1  0  0  0
  2 90  1  0  0  0
  3  4  1  0  0  0
  3 91  1  0  0  0
  3 92  1  0  0  0
  4  5  1  0  0  0
  4 93  1  0  0  0
  4 94  1  0  0  0
  5  6  1  0  0  0
  5 26  1  0  0  0
  5 95  1  0  0  0
  6 25  1  0  0  0
  6 96  1  0  0  0
  6 97  1  0  0  0
  7  8  2  0  0  0
  7 26  1  0  0  0
  7 29  1  0  0  0
  8  9  1  0  0  0
  8 22  1  0  0  0
  9 10  1  0  0  0
  9 27  2  0  0  0
 10 11  2  0  0  0
 10 15  1  0  0  0
 11 12  1  0  0  0
 11 98  1  0  0  0
 12 13  2  0  0  0
 12 99  1  0  0  0
 13 14  1  0  0  0
 13 31  1  0  0  0
 14 15  2  0  0  0
 14100  1  0  0  0
 15101  1  0  0  0
 16 17  2  0  0  0
 16 21  1  0  0  0
 16 31  1  0  0  0
 17 18  1  0  0  0
 17102  1  0  0  0
 18 19  2  0  0  0
 18103  1  0  0  0
 19 20  1  0  0  0
 19 24  1  0  0  0
 20 21  2  0  0  0
 20104  1  0  0  0
 21 23  1  0  0  0
 22 28  1  0  0  0
 22 32  2  0  0  0
 26 27  1  0  0  0
 28105  1  0  0  0
 28106  1  0  0  0
 29107  1  0  0  0
 29108  1  0  0  0
 33 34  1  0  0  0
 33 66  1  0  0  0
 33 70  2  0  0  0
 34 36  1  0  0  0
 34 59  1  0  0  0
 34109  1  0  0  0
 35 44  2  0  0  0
 35 45  1  0  0  0
 35 68  1  0  0  0
 36 56  1  0  0  0
 36110  1  0  0  0
 37 39  1  0  0  0
 37 47  1  0  0  0
 37 66  1  0  0  0
 37111  1  0  0  0
 38 43  2  0  0  0
 38 46  1  0  0  0
 38 47  1  0  0  0
 39 64  1  0  0  0
 39 67  2  0  0  0
 40 52  1  0  0  0
 40 53  2  0  0  0
 40 58  1  0  0  0
 41112  1  0  0  0
 41113  1  0  0  0
 41114  1  0  0  0
 41 48  1  0  0  0
 42 43  1  0  0  0
 42 66  1  0  0  0
 42115  1  0  0  0
 42116  1  0  0  0
 43 44  1  0  0  0
 44117  1  0  0  0
 45 46  2  0  0  0
 45118  1  0  0  0
 46119  1  0  0  0
 47120  1  0  0  0
 47121  1  0  0  0
 48 56  1  0  0  0
 48 65  1  0  0  0
 48122  1  0  0  0
 49 50  1  0  0  0
 49 53  1  0  0  0
 49 64  1  0  0  0
 49123  1  0  0  0
 50 51  1  0  0  0
 50124  1  0  0  0
 50125  1  0  0  0
 51 52  1  0  0  0
 51126  1  0  0  0
 51127  1  0  0  0
 52128  1  0  0  0
 52129  1  0  0  0
 53 54  1  0  0  0
 54 55  2  0  0  0
 54130  1  0  0  0
 55 57  1  0  0  0
 55131  1  0  0  0
 56 69  2  0  0  0
 57 58  2  0  0  0
 57132  1  0  0  0
 58133  1  0  0  0
 59 60  1  0  0  0
 59 61  1  0  0  0
 59 62  1  0  0  0
 60134  1  0  0  0
 60135  1  0  0  0
 60136  1  0  0  0
 61137  1  0  0  0
 61138  1  0  0  0
 61139  1  0  0  0
 62140  1  0  0  0
 62141  1  0  0  0
 62142  1  0  0  0
 63 65  1  0  0  0
 63143  1  0  0  0
 63144  1  0  0  0
 63145  1  0  0  0
 64146  1  0  0  0
 65147  1  0  0  0
 68 86  1  0  0  0
 71 72  2  0  0  0
 71 73  1  0  0  0
 71148  1  0  0  0
 72 74  1  0  0  0
 72 78  1  0  0  0
 73 75  2  0  0  0
 73 79  1  0  0  0
 74 76  1  0  0  0
 74 87  2  0  0  0
 75 80  1  0  0  0
 75 87  1  0  0  0
 76149  1  0  0  0
 76150  1  0  0  0
 76151  1  0  0  0
 77 81  1  0  0  0
 77152  1  0  0  0
 77153  1  0  0  0
 77154  1  0  0  0
 78 82  1  0  0  0
 78155  1  0  0  0
 78156  1  0  0  0
 79 83  1  0  0  0
 79157  1  0  0  0
 79158  1  0  0  0
 80 85  1  0  0  0
 80159  1  0  0  0
 80160  1  0  0  0
 81 82  1  0  0  0
 81161  1  0  0  0
 81162  1  0  0  0
 82163  1  0  0  0
 82164  1  0  0  0
 83 84  1  0  0  0
 83165  1  0  0  0
 83166  1  0  0  0
 84 86  1  0  0  0
 84167  1  0  0  0
 84168  1  0  0  0
 85 88  1  0  0  0
 85169  1  0  0  0
 85170  1  0  0  0
 86171  1  0  0  0
 86172  1  0  0  0
 88173  1  0  0  0
M  ISO  4   1 100  68 101  86 101  88 100
M  END
> <chiral flag>
0

> <version>
0

> <s_m_source_file>
/data/baiqing/PycharmProjects/Reinvent-master-3.2/result/LINK_invent/BTK/process_docking_weight1_custom_sum_contain_oxygen_bond_distance_aromatic_linkinvent_7_9_3/rearranged_h_0092.sdf

> <i_m_source_file_index>
81

> <r_mmod_Potential_Energy-OPLS-2005>
-83.0408401489258

> <r_mmod_Stretch_Energy-OPLS-2005>
59.4267120361328

> <r_mmod_Bend_Energy-OPLS-2005>
135.103164672852

> <r_mmod_Torsional_Energy-OPLS-2005>
252.525360107422

> <r_mmod_Improper_Torsional_Energy-OPLS-2005>
9.42265033721924

> <r_mmod_Van_der_Waal_Energy-OPLS-2005>
148.744705200195

> <r_mmod_Electrostatic_Energy-OPLS-2005>
-502.645385742188

> <r_mmod_Solvation_Energy-OPLS-2005>
-214.08674621582

> <b_mmod_Minimization_Converged-OPLS-2005>
0

> <r_mmod_RMS_Derivative-OPLS-2005>
3.28663754463196

$$$$
83
                    3D
 Structure written by MMmdl.
171179  0  0  1  0            999 V2000
  -29.6329  -16.2218   20.0413 C   0  0  0  0  0  0
  -30.2722  -13.5528   19.4522 C   0  0  0  0  0  0
  -29.5125  -12.7606   18.3385 C   0  0  0  0  0  0
  -28.1518  -12.2573   18.8399 C   0  0  0  0  0  0
  -27.5119  -13.3105   19.7606 C   0  0  2  0  0  0
  -28.4492  -13.8907   20.8297 C   0  0  0  0  0  0
  -25.2019  -13.8234   20.5778 C   0  0  0  0  0  0
  -24.1511  -13.0370   20.9376 C   0  0  0  0  0  0
  -24.6241  -11.6882   20.8805 C   0  0  0  0  0  0
  -23.9016  -10.4243   21.0447 C   0  0  0  0  0  0
  -24.3613   -9.4175   21.9202 C   0  0  0  0  0  0
  -23.6308   -8.2203   22.0756 C   0  0  0  0  0  0
  -22.4287   -8.0245   21.3532 C   0  0  0  0  0  0
  -21.9905   -9.0216   20.4633 C   0  0  0  0  0  0
  -22.7218  -10.2093   20.3076 C   0  0  0  0  0  0
  -21.6848   -6.0727   22.5277 C   0  0  0  0  0  0
  -21.4008   -6.5633   23.8212 C   0  0  0  0  0  0
  -21.3651   -5.6782   24.9171 C   0  0  0  0  0  0
  -21.6040   -4.3046   24.7212 C   0  0  0  0  0  0
  -21.8832   -3.8141   23.4333 C   0  0  0  0  0  0
  -21.9200   -4.6960   22.3395 C   0  0  0  0  0  0
  -22.7546  -13.5109   21.2025 C   0  0  0  0  0  0
  -22.1673   -4.2151   21.0973 F   0  0  0  0  0  0
  -21.5631   -3.4535   25.7725 F   0  0  0  0  0  0
  -29.4087  -14.7193   20.0598 N   0  0  0  0  0  0
  -26.2332  -12.9497   20.3080 N   0  0  0  0  0  0
  -25.9124  -11.6565   20.5581 N   0  0  0  0  0  0
  -22.0243  -12.8047   22.0575 N   0  0  0  0  0  0
  -25.3557  -15.1967   20.4088 N   0  0  0  0  0  0
  -30.8976  -16.2103   20.0321 O   0  0  0  0  0  0
  -21.6633   -6.8855   21.4237 O   0  0  0  0  0  0
  -22.3223  -14.5411   20.6846 O   0  0  0  0  0  0
  -24.5529  -31.8183   22.7619 C   0  0  0  0  0  0
  -25.8267  -32.4468   23.5647 C   0  0  1  0  0  0
  -28.0351  -27.2959   20.0005 C   0  0  0  0  0  0
  -25.4704  -33.8189   24.0010 N   0  0  0  0  0  0
  -23.3003  -29.7525   21.3596 C   0  0  2  0  0  0
  -25.7050  -27.3114   21.2819 C   0  0  0  0  0  0
  -22.3475  -29.6313   22.5520 C   0  0  0  0  0  0
  -17.9381  -28.1585   22.8556 C   0  0  0  0  0  0
  -24.1350  -36.7470   23.2680 C   0  0  0  0  0  0
  -26.1126  -30.4645   21.0646 C   0  0  0  0  0  0
  -26.7337  -28.7067   21.0530 C   0  0  0  0  0  0
  -27.9605  -28.5141   20.6291 C   0  0  0  0  0  0
  -27.2248  -26.1986   20.1734 C   0  0  0  0  0  0
  -26.1479  -26.1394   21.0389 C   0  0  0  0  0  0
  -23.6467  -27.7761   21.3734 C   0  0  0  0  0  0
  -25.4043  -36.2994   24.0092 C   0  0  1  0  0  0
  -20.4468  -28.3103   23.1678 C   0  0  2  0  0  0
  -20.5095  -26.8633   22.6295 C   0  0  0  0  0  0
  -19.4711  -26.6067   21.5553 C   0  0  0  0  0  0
  -18.0832  -26.8291   22.1398 C   0  0  0  0  0  0
  -19.0585  -28.8697   23.3321 C   0  0  0  0  0  0
  -18.8962  -30.1421   23.9244 C   0  0  0  0  0  0
  -17.6105  -30.6815   24.0827 C   0  0  0  0  0  0
  -25.8972  -34.9518   23.4331 C   0  0  0  0  0  0
  -16.4903  -29.9436   23.6634 C   0  0  0  0  0  0
  -16.6527  -28.6891   23.0496 C   0  0  0  0  0  0
  -26.4101  -31.7393   24.8989 C   0  0  0  0  0  0
  -25.3203  -31.3038   25.9114 C   0  0  0  0  0  0
  -27.3378  -30.5424   24.6102 C   0  0  0  0  0  0
  -27.3578  -32.6918   25.6945 C   0  0  0  0  0  0
  -27.5497  -37.1733   24.8449 C   0  0  0  0  0  0
  -21.1509  -29.1942   22.2552 N   0  0  0  0  0  0
  -26.4177  -37.3812   23.9456 N   0  0  0  0  0  0
  -24.5679  -30.9547   21.5736 N   0  0  0  0  0  0
  -22.7498  -29.5315   23.7089 O   0  0  0  0  0  0
  -28.9460  -27.0964   19.0792 O   0  0  0  0  0  0
  -26.6375  -34.9472   22.4513 O   0  0  0  0  0  0
  -23.4993  -32.1372   23.3332 O   0  0  0  0  0  0
  -23.6190  -28.2350   17.1854 C   0  0  0  0  0  0
  -24.2624  -29.4405   17.5139 C   0  0  0  0  0  0
  -24.0456  -27.0077   17.7509 C   0  0  0  0  0  0
  -25.1730  -29.4685   18.5812 C   0  0  0  0  0  0
  -24.8736  -26.8745   18.9048 C   0  0  0  0  0  0
  -24.8669  -28.5714   19.6656 C   0  0  0  0  0  0
  -25.9871  -28.0384   23.7134 C   0  0  0  0  0  0
  -25.7229  -20.4554   18.8724 C   0  0  0  0  0  0
  -26.6499  -29.7339   18.0799 C   0  0  0  0  0  0
  -25.2840  -24.7379   19.0249 C   0  0  0  0  0  0
  -25.1195  -28.9455   22.6394 C   0  0  0  0  0  0
  -27.4420  -28.5047   17.4753 C   0  0  0  0  0  0
  -26.6767  -22.9913   19.2740 C   0  0  0  0  0  0
  -28.8663  -28.1167   18.0487 C   0  0  0  0  0  0
  -28.2196  -19.5621   19.6798 C   0  0  0  0  0  0
  -28.6053  -17.5987   19.8880 N   0  0  0  0  0  0
  -26.9080  -21.0458   19.5239 N   0  3  2  0  0  0
  -31.1575  -13.9909   18.9838 H   0  0  0  0  0  0
  -30.6574  -12.8859   20.2260 H   0  0  0  0  0  0
  -30.1211  -11.9291   17.9756 H   0  0  0  0  0  0
  -29.3498  -13.4218   17.4854 H   0  0  0  0  0  0
  -28.3050  -11.3356   19.4042 H   0  0  0  0  0  0
  -27.4978  -12.0082   18.0050 H   0  0  0  0  0  0
  -27.2855  -14.1262   19.0742 H   0  0  0  0  0  0
  -28.9019  -13.1376   21.4714 H   0  0  0  0  0  0
  -27.9005  -14.5565   21.4997 H   0  0  0  0  0  0
  -25.2759   -9.5655   22.4778 H   0  0  0  0  0  0
  -24.0022   -7.4581   22.7455 H   0  0  0  0  0  0
  -21.0857   -8.8729   19.8925 H   0  0  0  0  0  0
  -22.3689  -10.9650   19.6205 H   0  0  0  0  0  0
  -21.2000   -7.6146   23.9707 H   0  0  0  0  0  0
  -21.1456   -6.0512   25.9063 H   0  0  0  0  0  0
  -22.0620   -2.7616   23.2828 H   0  0  0  0  0  0
  -22.3889  -11.9736   22.4968 H   0  0  0  0  0  0
  -21.0852  -13.0997   22.2804 H   0  0  0  0  0  0
  -24.5527  -15.8154   20.4653 H   0  0  0  0  0  0
  -26.1274  -15.5952   19.8943 H   0  0  0  0  0  0
  -26.6460  -32.5554   22.8633 H   0  0  0  0  0  0
  -24.7731  -33.8996   24.7223 H   0  0  0  0  0  0
  -22.7174  -30.0487   20.4992 H   0  0  0  0  0  0
  -23.3653  -35.9770   23.3131 H   0  0  0  0  0  0
  -24.3360  -36.9512   22.2166 H   0  0  0  0  0  0
  -23.7115  -37.6487   23.7093 H   0  0  0  0  0  0
  -26.2770  -31.0623   20.1800 H   0  0  0  0  0  0
  -26.8761  -30.9241   21.6677 H   0  0  0  0  0  0
  -28.6723  -29.2996   20.4531 H   0  0  0  0  0  0
  -27.5861  -25.3158   19.6725 H   0  0  0  0  0  0
  -25.5804  -25.2528   21.2910 H   0  0  0  0  0  0
  -23.0381  -27.2773   20.6214 H   0  0  0  0  0  0
  -23.2956  -27.2706   22.2627 H   0  0  0  0  0  0
  -25.1407  -36.1462   25.0564 H   0  0  0  0  0  0
  -20.8815  -28.2785   24.1789 H   0  0  0  0  0  0
  -20.3131  -26.1915   23.4622 H   0  0  0  0  0  0
  -21.4696  -26.5497   22.2574 H   0  0  0  0  0  0
  -19.5581  -25.5883   21.1830 H   0  0  0  0  0  0
  -19.6316  -27.2739   20.7075 H   0  0  0  0  0  0
  -17.3649  -26.7994   21.3236 H   0  0  0  0  0  0
  -17.8209  -26.0281   22.8323 H   0  0  0  0  0  0
  -19.7556  -30.7005   24.2778 H   0  0  0  0  0  0
  -17.4756  -31.6565   24.5357 H   0  0  0  0  0  0
  -15.4970  -30.3539   23.7854 H   0  0  0  0  0  0
  -15.7871  -28.1445   22.7095 H   0  0  0  0  0  0
  -24.6537  -30.5689   25.4587 H   0  0  0  0  0  0
  -24.7064  -32.1400   26.2489 H   0  0  0  0  0  0
  -25.7603  -30.8379   26.7934 H   0  0  0  0  0  0
  -27.1403  -29.7069   25.2693 H   0  0  0  0  0  0
  -28.3807  -30.7644   24.8136 H   0  0  0  0  0  0
  -27.4070  -30.2550   23.5728 H   0  0  0  0  0  0
  -26.8033  -33.5315   26.1259 H   0  0  0  0  0  0
  -28.1228  -33.1297   25.0462 H   0  0  0  0  0  0
  -27.8432  -32.1970   26.5387 H   0  0  0  0  0  0
  -28.2494  -38.0077   24.7672 H   0  0  0  0  0  0
  -28.1003  -36.2623   24.6062 H   0  0  0  0  0  0
  -27.2248  -37.1173   25.8856 H   0  0  0  0  0  0
  -20.8606  -29.2124   21.2871 H   0  0  0  0  0  0
  -26.0012  -38.2798   24.1719 H   0  0  0  0  0  0
  -22.9463  -28.2166   16.3349 H   0  0  0  0  0  0
  -24.2318  -30.2517   16.7990 H   0  0  0  0  0  0
  -23.6658  -26.1219   17.2715 H   0  0  0  0  0  0
  -25.7867  -26.9679   23.7010 H   0  0  0  0  0  0
  -25.8051  -28.2905   24.7614 H   0  0  0  0  0  0
  -27.0692  -28.0881   23.5969 H   0  0  0  0  0  0
  -25.5538  -19.4512   19.2530 H   0  0  0  0  0  0
  -24.8122  -21.0312   19.0647 H   0  0  0  0  0  0
  -25.8677  -20.3995   17.7959 H   0  0  0  0  0  0
  -27.3211  -30.2558   18.7531 H   0  0  0  0  0  0
  -26.5657  -30.4727   17.2790 H   0  0  0  0  0  0
  -24.4798  -24.4603   19.7033 H   0  0  0  0  0  0
  -24.8790  -24.4408   18.0596 H   0  0  0  0  0  0
  -24.4662  -28.4338   23.3161 H   0  0  0  0  0  0
  -25.5835  -29.7396   23.1648 H   0  0  0  0  0  0
  -27.6260  -28.7660   16.4326 H   0  0  0  0  0  0
  -26.7993  -27.6329   17.4151 H   0  0  0  0  0  0
  -27.2905  -23.1094   18.3837 H   0  0  0  0  0  0
  -27.3295  -23.3015   20.0859 H   0  0  0  0  0  0
  -29.4132  -29.0082   18.3589 H   0  0  0  0  0  0
  -29.4594  -27.7154   17.2320 H   0  0  0  0  0  0
  -28.8734  -19.7935   18.8395 H   0  0  0  0  0  0
  -28.7845  -19.9155   20.5393 H   0  0  0  0  0  0
  -27.6900  -17.1802   19.8957 H   0  0  0  0  0  0
  -26.6254  -21.0202   20.4931 H   0  0  0  0  0  0
  1 25  1  0  0  0
  1 30  2  0  0  0
  1 86  1  0  0  0
  2  3  1  0  0  0
  2 25  1  0  0  0
  2 88  1  0  0  0
  2 89  1  0  0  0
  3  4  1  0  0  0
  3 90  1  0  0  0
  3 91  1  0  0  0
  4  5  1  0  0  0
  4 92  1  0  0  0
  4 93  1  0  0  0
  5  6  1  0  0  0
  5 26  1  0  0  0
  5 94  1  0  0  0
  6 25  1  0  0  0
  6 95  1  0  0  0
  6 96  1  0  0  0
  7  8  2  0  0  0
  7 26  1  0  0  0
  7 29  1  0  0  0
  8  9  1  0  0  0
  8 22  1  0  0  0
  9 10  1  0  0  0
  9 27  2  0  0  0
 10 11  2  0  0  0
 10 15  1  0  0  0
 11 12  1  0  0  0
 11 97  1  0  0  0
 12 13  2  0  0  0
 12 98  1  0  0  0
 13 14  1  0  0  0
 13 31  1  0  0  0
 14 15  2  0  0  0
 14 99  1  0  0  0
 15100  1  0  0  0
 16 17  2  0  0  0
 16 21  1  0  0  0
 16 31  1  0  0  0
 17 18  1  0  0  0
 17101  1  0  0  0
 18 19  2  0  0  0
 18102  1  0  0  0
 19 20  1  0  0  0
 19 24  1  0  0  0
 20 21  2  0  0  0
 20103  1  0  0  0
 21 23  1  0  0  0
 22 28  1  0  0  0
 22 32  2  0  0  0
 26 27  1  0  0  0
 28104  1  0  0  0
 28105  1  0  0  0
 29106  1  0  0  0
 29107  1  0  0  0
 33 34  1  0  0  0
 33 66  1  0  0  0
 33 70  2  0  0  0
 34 36  1  0  0  0
 34 59  1  0  0  0
 34108  1  0  0  0
 35 44  2  0  0  0
 35 45  1  0  0  0
 35 68  1  0  0  0
 36 56  1  0  0  0
 36109  1  0  0  0
 37 39  1  0  0  0
 37 47  1  0  0  0
 37 66  1  0  0  0
 37110  1  0  0  0
 38 43  2  0  0  0
 38 46  1  0  0  0
 38 47  1  0  0  0
 39 64  1  0  0  0
 39 67  2  0  0  0
 40 52  1  0  0  0
 40 53  2  0  0  0
 40 58  1  0  0  0
 41111  1  0  0  0
 41112  1  0  0  0
 41113  1  0  0  0
 41 48  1  0  0  0
 42 43  1  0  0  0
 42 66  1  0  0  0
 42114  1  0  0  0
 42115  1  0  0  0
 43 44  1  0  0  0
 44116  1  0  0  0
 45 46  2  0  0  0
 45117  1  0  0  0
 46118  1  0  0  0
 47119  1  0  0  0
 47120  1  0  0  0
 48 56  1  0  0  0
 48 65  1  0  0  0
 48121  1  0  0  0
 49 50  1  0  0  0
 49 53  1  0  0  0
 49 64  1  0  0  0
 49122  1  0  0  0
 50 51  1  0  0  0
 50123  1  0  0  0
 50124  1  0  0  0
 51 52  1  0  0  0
 51125  1  0  0  0
 51126  1  0  0  0
 52127  1  0  0  0
 52128  1  0  0  0
 53 54  1  0  0  0
 54 55  2  0  0  0
 54129  1  0  0  0
 55 57  1  0  0  0
 55130  1  0  0  0
 56 69  2  0  0  0
 57 58  2  0  0  0
 57131  1  0  0  0
 58132  1  0  0  0
 59 60  1  0  0  0
 59 61  1  0  0  0
 59 62  1  0  0  0
 60133  1  0  0  0
 60134  1  0  0  0
 60135  1  0  0  0
 61136  1  0  0  0
 61137  1  0  0  0
 61138  1  0  0  0
 62139  1  0  0  0
 62140  1  0  0  0
 62141  1  0  0  0
 63 65  1  0  0  0
 63142  1  0  0  0
 63143  1  0  0  0
 63144  1  0  0  0
 64145  1  0  0  0
 65146  1  0  0  0
 68 84  1  0  0  0
 71 72  2  0  0  0
 71 73  1  0  0  0
 71147  1  0  0  0
 72 74  1  0  0  0
 72148  1  0  0  0
 73 75  2  0  0  0
 73149  1  0  0  0
 74 76  2  0  0  0
 74 79  1  0  0  0
 75 76  1  0  0  0
 75 80  1  0  0  0
 76 81  1  0  0  0
 77 81  1  0  0  0
 77150  1  0  0  0
 77151  1  0  0  0
 77152  1  0  0  0
 78153  1  0  0  0
 78154  1  0  0  0
 78155  1  0  0  0
 78 87  1  0  0  0
 79 82  1  0  0  0
 79156  1  0  0  0
 79157  1  0  0  0
 80 83  1  0  0  0
 80158  1  0  0  0
 80159  1  0  0  0
 81160  1  0  0  0
 81161  1  0  0  0
 82 84  1  0  0  0
 82162  1  0  0  0
 82163  1  0  0  0
 83 87  1  0  0  0
 83164  1  0  0  0
 83165  1  0  0  0
 84166  1  0  0  0
 84167  1  0  0  0
 85 86  1  0  0  0
 85 87  1  0  0  0
 85168  1  0  0  0
 85169  1  0  0  0
 86170  1  0  0  0
 87171  1  0  0  0
M  CHG  1  87   1
M  ISO  4   1 100  68 101  84 101  86 100
M  END
> <chiral flag>
0

> <version>
0

> <s_m_source_file>
/data/baiqing/PycharmProjects/Reinvent-master-3.2/result/LINK_invent/BTK/process_docking_weight1_custom_sum_contain_oxygen_bond_distance_aromatic_linkinvent_7_9_3/rearranged_h_0092.sdf

> <i_m_source_file_index>
82

> <r_mmod_Potential_Energy-OPLS-2005>
15627.873046875

> <r_mmod_Stretch_Energy-OPLS-2005>
7752.73583984375

> <r_mmod_Bend_Energy-OPLS-2005>
1467.83618164062

> <r_mmod_Torsional_Energy-OPLS-2005>
589.739379882812

> <r_mmod_Improper_Torsional_Energy-OPLS-2005>
49.0412292480469

> <r_mmod_Van_der_Waal_Energy-OPLS-2005>
2479.80859375

> <r_mmod_Electrostatic_Energy-OPLS-2005>
-287.716094970703

> <r_mmod_Solvation_Energy-OPLS-2005>
-487.7197265625

> <b_mmod_Minimization_Converged-OPLS-2005>
0

> <r_mmod_RMS_Derivative-OPLS-2005>
19.8624877929688

$$$$
84
                    3D
 Structure written by MMmdl.
163171  0  0  1  0            999 V2000
  -30.3901  -15.4165   20.3577 C   0  0  0  0  0  0
  -30.4352  -12.9243   19.5157 C   0  0  0  0  0  0
  -29.5362  -12.5908   18.2958 C   0  0  0  0  0  0
  -28.1004  -12.2779   18.7469 C   0  0  0  0  0  0
  -27.6030  -13.2818   19.8133 C   0  0  2  0  0  0
  -28.6339  -13.5375   20.9337 C   0  0  0  0  0  0
  -25.2381  -13.8243   20.5793 C   0  0  0  0  0  0
  -24.1735  -13.0427   20.9283 C   0  0  0  0  0  0
  -24.6401  -11.6929   20.8770 C   0  0  0  0  0  0
  -23.9099  -10.4287   21.0414 C   0  0  0  0  0  0
  -24.3643   -9.4204   21.9195 C   0  0  0  0  0  0
  -23.6314   -8.2238   22.0761 C   0  0  0  0  0  0
  -22.4296   -8.0279   21.3545 C   0  0  0  0  0  0
  -21.9934   -9.0259   20.4651 C   0  0  0  0  0  0
  -22.7269  -10.2132   20.3068 C   0  0  0  0  0  0
  -21.6855   -6.0747   22.5284 C   0  0  0  0  0  0
  -21.4013   -6.5651   23.8216 C   0  0  0  0  0  0
  -21.3652   -5.6804   24.9176 C   0  0  0  0  0  0
  -21.6043   -4.3066   24.7228 C   0  0  0  0  0  0
  -21.8815   -3.8160   23.4349 C   0  0  0  0  0  0
  -21.9193   -4.6974   22.3409 C   0  0  0  0  0  0
  -22.7751  -13.5181   21.1917 C   0  0  0  0  0  0
  -22.1667   -4.2164   21.0984 F   0  0  0  0  0  0
  -21.5622   -3.4545   25.7740 F   0  0  0  0  0  0
  -29.8347  -14.0913   20.2786 N   0  0  0  0  0  0
  -26.2801  -12.9530   20.3232 N   0  0  0  0  0  0
  -25.9333  -11.6631   20.5718 N   0  0  0  0  0  0
  -22.0422  -12.8155   22.0471 N   0  0  0  0  0  0
  -25.4015  -15.1983   20.4274 N   0  0  0  0  0  0
  -31.6255  -15.3774   20.2395 O   0  0  0  0  0  0
  -21.6644   -6.8891   21.4249 O   0  0  0  0  0  0
  -22.3432  -14.5492   20.6769 O   0  0  0  0  0  0
  -24.6720  -31.8165   23.1636 C   0  0  0  0  0  0
  -25.9376  -32.4556   23.8109 C   0  0  1  0  0  0
  -27.2122  -26.8351   20.1960 C   0  0  0  0  0  0
  -25.6025  -33.8364   24.2038 N   0  0  0  0  0  0
  -23.4893  -30.4280   21.5131 C   0  0  2  0  0  0
  -24.9430  -28.7976   20.1152 C   0  0  0  0  0  0
  -22.7723  -29.4423   22.4730 C   0  0  0  0  0  0
  -18.0341  -28.1443   22.8483 C   0  0  0  0  0  0
  -24.1478  -36.7165   23.2653 C   0  0  0  0  0  0
  -26.0648  -30.5958   21.4053 C   0  0  0  0  0  0
  -26.1303  -29.1744   20.7525 C   0  0  0  0  0  0
  -27.2578  -28.2177   20.7637 C   0  0  0  0  0  0
  -25.9925  -26.6407   19.5048 C   0  0  0  0  0  0
  -24.9044  -27.5535   19.4674 C   0  0  0  0  0  0
  -23.7343  -29.7386   20.1420 C   0  0  0  0  0  0
  -25.4129  -36.2924   24.0291 C   0  0  1  0  0  0
  -20.5974  -28.3789   23.1191 C   0  0  2  0  0  0
  -20.6806  -26.9468   22.5415 C   0  0  0  0  0  0
  -19.5763  -26.6418   21.5238 C   0  0  0  0  0  0
  -18.1955  -26.7975   22.1652 C   0  0  0  0  0  0
  -19.1606  -28.8935   23.2819 C   0  0  0  0  0  0
  -18.9512  -30.1523   23.8845 C   0  0  0  0  0  0
  -17.6504  -30.6624   24.0568 C   0  0  0  0  0  0
  -25.9107  -34.9323   23.4987 C   0  0  0  0  0  0
  -16.5396  -29.9104   23.6362 C   0  0  0  0  0  0
  -16.7321  -28.6531   23.0375 C   0  0  0  0  0  0
  -26.4589  -31.6521   25.0663 C   0  0  0  0  0  0
  -25.3701  -31.3844   26.1325 C   0  0  0  0  0  0
  -27.0477  -30.2866   24.6468 C   0  0  0  0  0  0
  -27.6071  -32.4337   25.7472 C   0  0  0  0  0  0
  -27.5547  -37.1739   24.8467 C   0  0  0  0  0  0
  -21.4380  -29.3054   22.3509 N   0  0  0  0  0  0
  -26.4241  -37.3695   23.9436 N   0  0  0  0  0  0
  -24.7637  -30.9761   22.0798 N   0  0  0  0  0  0
  -23.4231  -28.8013   23.3018 O   0  0  0  0  0  0
  -28.1913  -25.6741   20.2524 O   0  0  0  0  0  0
  -26.5707  -34.8877   22.4571 O   0  0  0  0  0  0
  -23.5785  -32.1142   23.6722 O   0  0  0  0  0  0
  -28.4939  -21.1883   20.7251 C   0  0  0  0  0  0
  -29.3464  -20.0635   20.2665 C   0  0  0  0  0  0
  -29.7093  -22.2157   19.2504 C   0  0  0  0  0  0
  -29.8927  -21.2266   14.7188 C   0  0  0  0  0  0
  -31.9652  -22.8541   18.3630 C   0  0  0  0  0  0
  -30.2289  -24.5888   18.4001 C   0  0  0  0  0  0
  -29.9121  -18.3925   20.6722 C   0  0  0  0  0  0
  -30.2781  -21.3418   16.2001 C   0  0  0  0  0  0
  -29.9789  -22.7459   16.7661 C   0  0  0  0  0  0
  -27.7835  -24.0635   20.1941 C   0  0  0  0  0  0
  -30.4416  -23.0756   18.2173 C   0  0  0  0  0  0
  -28.6915  -22.5478   20.1100 N   0  0  0  0  0  0
  -30.0457  -20.8708   19.3688 N   0  3  0  0  0  0
  -29.6376  -16.7313   20.3731 N   0  0  0  0  0  0
  -31.4393  -13.1603   19.1602 H   0  0  0  0  0  0
  -30.5499  -12.0510   20.1606 H   0  0  0  0  0  0
  -29.9453  -11.7466   17.7387 H   0  0  0  0  0  0
  -29.5277  -13.4372   17.6071 H   0  0  0  0  0  0
  -28.1033  -11.2739   19.1734 H   0  0  0  0  0  0
  -27.4216  -12.2464   17.8944 H   0  0  0  0  0  0
  -27.4899  -14.2230   19.2740 H   0  0  0  0  0  0
  -28.8480  -12.6319   21.5031 H   0  0  0  0  0  0
  -28.2438  -14.2664   21.6458 H   0  0  0  0  0  0
  -25.2782   -9.5675   22.4776 H   0  0  0  0  0  0
  -24.0017   -7.4626   22.7480 H   0  0  0  0  0  0
  -21.0859   -8.8782   19.8957 H   0  0  0  0  0  0
  -22.3726  -10.9679   19.6179 H   0  0  0  0  0  0
  -21.2009   -7.6157   23.9720 H   0  0  0  0  0  0
  -21.1472   -6.0534   25.9077 H   0  0  0  0  0  0
  -22.0599   -2.7622   23.2842 H   0  0  0  0  0  0
  -22.4053  -11.9804   22.4825 H   0  0  0  0  0  0
  -21.1041  -13.1159   22.2715 H   0  0  0  0  0  0
  -24.6334  -15.8486   20.5531 H   0  0  0  0  0  0
  -26.2484  -15.6428   20.0994 H   0  0  0  0  0  0
  -26.7449  -32.5061   23.0812 H   0  0  0  0  0  0
  -25.0132  -33.9412   25.0167 H   0  0  0  0  0  0
  -22.8070  -31.2618   21.3382 H   0  0  0  0  0  0
  -23.3759  -35.9467   23.3242 H   0  0  0  0  0  0
  -24.3576  -36.8882   22.2084 H   0  0  0  0  0  0
  -23.7205  -37.6326   23.6742 H   0  0  0  0  0  0
  -26.2545  -31.3309   20.6213 H   0  0  0  0  0  0
  -26.9227  -30.6606   22.0623 H   0  0  0  0  0  0
  -28.1544  -28.5107   21.2886 H   0  0  0  0  0  0
  -25.8301  -25.7042   18.9953 H   0  0  0  0  0  0
  -24.0062  -27.2594   18.9414 H   0  0  0  0  0  0
  -23.9014  -30.5023   19.3817 H   0  0  0  0  0  0
  -22.8394  -29.2020   19.8216 H   0  0  0  0  0  0
  -25.1334  -36.1671   25.0780 H   0  0  0  0  0  0
  -21.0080  -28.3392   24.1306 H   0  0  0  0  0  0
  -20.5721  -26.2412   23.3667 H   0  0  0  0  0  0
  -21.6663  -26.7443   22.1204 H   0  0  0  0  0  0
  -19.6913  -25.6320   21.1295 H   0  0  0  0  0  0
  -19.6688  -27.3190   20.6733 H   0  0  0  0  0  0
  -17.4243  -26.6754   21.4039 H   0  0  0  0  0  0
  -18.0298  -26.0135   22.9059 H   0  0  0  0  0  0
  -19.7985  -30.7374   24.2180 H   0  0  0  0  0  0
  -17.5057  -31.6296   24.5195 H   0  0  0  0  0  0
  -15.5394  -30.3004   23.7718 H   0  0  0  0  0  0
  -15.8719  -28.0846   22.7101 H   0  0  0  0  0  0
  -24.5848  -30.7226   25.7670 H   0  0  0  0  0  0
  -24.8936  -32.3075   26.4622 H   0  0  0  0  0  0
  -25.7924  -30.9101   27.0191 H   0  0  0  0  0  0
  -26.3147  -29.6545   24.1449 H   0  0  0  0  0  0
  -27.3928  -29.7256   25.5166 H   0  0  0  0  0  0
  -27.9131  -30.4022   23.9944 H   0  0  0  0  0  0
  -27.2634  -33.3714   26.1854 H   0  0  0  0  0  0
  -28.3990  -32.6779   25.0373 H   0  0  0  0  0  0
  -28.0590  -31.8576   26.5557 H   0  0  0  0  0  0
  -28.2550  -38.0048   24.7552 H   0  0  0  0  0  0
  -28.1057  -36.2593   24.6234 H   0  0  0  0  0  0
  -27.2293  -37.1324   25.8875 H   0  0  0  0  0  0
  -20.9651  -29.8726   21.6600 H   0  0  0  0  0  0
  -26.0053  -38.2733   24.1488 H   0  0  0  0  0  0
  -27.7379  -21.1090   21.4953 H   0  0  0  0  0  0
  -30.0898  -20.2211   14.3452 H   0  0  0  0  0  0
  -30.4653  -21.9226   14.1025 H   0  0  0  0  0  0
  -28.8336  -21.4384   14.5661 H   0  0  0  0  0  0
  -32.3098  -23.1563   19.3534 H   0  0  0  0  0  0
  -32.5275  -23.4394   17.6345 H   0  0  0  0  0  0
  -32.2653  -21.8158   18.2287 H   0  0  0  0  0  0
  -30.4618  -24.9157   19.4139 H   0  0  0  0  0  0
  -29.2119  -24.8860   18.1497 H   0  0  0  0  0  0
  -30.8731  -25.1601   17.7293 H   0  0  0  0  0  0
  -29.8654  -18.3971   21.7616 H   0  0  0  0  0  0
  -30.9840  -18.4528   20.4860 H   0  0  0  0  0  0
  -31.3396  -21.1098   16.2903 H   0  0  0  0  0  0
  -29.7343  -20.5805   16.7591 H   0  0  0  0  0  0
  -28.9042  -22.9238   16.6897 H   0  0  0  0  0  0
  -30.4415  -23.4654   16.0896 H   0  0  0  0  0  0
  -27.1280  -23.9237   21.0531 H   0  0  0  0  0  0
  -27.1346  -23.9839   19.3230 H   0  0  0  0  0  0
  -30.8126  -20.4927   18.8250 H   0  0  0  0  0  0
  -28.6459  -16.5563   20.3136 H   0  0  0  0  0  0
  1 25  1  0  0  0
  1 30  2  0  0  0
  1 84  1  0  0  0
  2  3  1  0  0  0
  2 25  1  0  0  0
  2 85  1  0  0  0
  2 86  1  0  0  0
  3  4  1  0  0  0
  3 87  1  0  0  0
  3 88  1  0  0  0
  4  5  1  0  0  0
  4 89  1  0  0  0
  4 90  1  0  0  0
  5  6  1  0  0  0
  5 26  1  0  0  0
  5 91  1  0  0  0
  6 25  1  0  0  0
  6 92  1  0  0  0
  6 93  1  0  0  0
  7  8  2  0  0  0
  7 26  1  0  0  0
  7 29  1  0  0  0
  8  9  1  0  0  0
  8 22  1  0  0  0
  9 10  1  0  0  0
  9 27  2  0  0  0
 10 11  2  0  0  0
 10 15  1  0  0  0
 11 12  1  0  0  0
 11 94  1  0  0  0
 12 13  2  0  0  0
 12 95  1  0  0  0
 13 14  1  0  0  0
 13 31  1  0  0  0
 14 15  2  0  0  0
 14 96  1  0  0  0
 15 97  1  0  0  0
 16 17  2  0  0  0
 16 21  1  0  0  0
 16 31  1  0  0  0
 17 18  1  0  0  0
 17 98  1  0  0  0
 18 19  2  0  0  0
 18 99  1  0  0  0
 19 20  1  0  0  0
 19 24  1  0  0  0
 20 21  2  0  0  0
 20100  1  0  0  0
 21 23  1  0  0  0
 22 28  1  0  0  0
 22 32  2  0  0  0
 26 27  1  0  0  0
 28101  1  0  0  0
 28102  1  0  0  0
 29103  1  0  0  0
 29104  1  0  0  0
 33 34  1  0  0  0
 33 66  1  0  0  0
 33 70  2  0  0  0
 34 36  1  0  0  0
 34 59  1  0  0  0
 34105  1  0  0  0
 35 44  2  0  0  0
 35 45  1  0  0  0
 35 68  1  0  0  0
 36 56  1  0  0  0
 36106  1  0  0  0
 37 39  1  0  0  0
 37 47  1  0  0  0
 37 66  1  0  0  0
 37107  1  0  0  0
 38 43  2  0  0  0
 38 46  1  0  0  0
 38 47  1  0  0  0
 39 64  1  0  0  0
 39 67  2  0  0  0
 40 52  1  0  0  0
 40 53  2  0  0  0
 40 58  1  0  0  0
 41108  1  0  0  0
 41109  1  0  0  0
 41110  1  0  0  0
 41 48  1  0  0  0
 42 43  1  0  0  0
 42 66  1  0  0  0
 42111  1  0  0  0
 42112  1  0  0  0
 43 44  1  0  0  0
 44113  1  0  0  0
 45 46  2  0  0  0
 45114  1  0  0  0
 46115  1  0  0  0
 47116  1  0  0  0
 47117  1  0  0  0
 48 56  1  0  0  0
 48 65  1  0  0  0
 48118  1  0  0  0
 49 50  1  0  0  0
 49 53  1  0  0  0
 49 64  1  0  0  0
 49119  1  0  0  0
 50 51  1  0  0  0
 50120  1  0  0  0
 50121  1  0  0  0
 51 52  1  0  0  0
 51122  1  0  0  0
 51123  1  0  0  0
 52124  1  0  0  0
 52125  1  0  0  0
 53 54  1  0  0  0
 54 55  2  0  0  0
 54126  1  0  0  0
 55 57  1  0  0  0
 55127  1  0  0  0
 56 69  2  0  0  0
 57 58  2  0  0  0
 57128  1  0  0  0
 58129  1  0  0  0
 59 60  1  0  0  0
 59 61  1  0  0  0
 59 62  1  0  0  0
 60130  1  0  0  0
 60131  1  0  0  0
 60132  1  0  0  0
 61133  1  0  0  0
 61134  1  0  0  0
 61135  1  0  0  0
 62136  1  0  0  0
 62137  1  0  0  0
 62138  1  0  0  0
 63 65  1  0  0  0
 63139  1  0  0  0
 63140  1  0  0  0
 63141  1  0  0  0
 64142  1  0  0  0
 65143  1  0  0  0
 68 80  1  0  0  0
 71 72  2  0  0  0
 71 82  1  0  0  0
 71144  1  0  0  0
 72 77  1  0  0  0
 72 83  1  0  0  0
 73 81  1  0  0  0
 73 82  1  0  0  0
 73 83  2  0  0  0
 74 78  1  0  0  0
 74145  1  0  0  0
 74146  1  0  0  0
 74147  1  0  0  0
 75148  1  0  0  0
 75149  1  0  0  0
 75150  1  0  0  0
 75 81  1  0  0  0
 76 81  1  0  0  0
 76151  1  0  0  0
 76152  1  0  0  0
 76153  1  0  0  0
 77 84  1  0  0  0
 77154  1  0  0  0
 77155  1  0  0  0
 78 79  1  0  0  0
 78156  1  0  0  0
 78157  1  0  0  0
 79 81  1  0  0  0
 79158  1  0  0  0
 79159  1  0  0  0
 80 82  1  0  0  0
 80160  1  0  0  0
 80161  1  0  0  0
 83162  1  0  0  0
 84163  1  0  0  0
M  CHG  1  83   1
M  ISO  4   1 100  68 101  80 101  84 100
M  END
> <chiral flag>
0

> <version>
0

> <s_m_source_file>
/data/baiqing/PycharmProjects/Reinvent-master-3.2/result/LINK_invent/BTK/process_docking_weight1_custom_sum_contain_oxygen_bond_distance_aromatic_linkinvent_7_9_3/rearranged_h_0092.sdf

> <i_m_source_file_index>
83

> <r_mmod_Potential_Energy-OPLS-2005>
1584.55480957031

> <r_mmod_Stretch_Energy-OPLS-2005>
742.137023925781

> <r_mmod_Bend_Energy-OPLS-2005>
544.358093261719

> <r_mmod_Torsional_Energy-OPLS-2005>
248.373565673828

> <r_mmod_Improper_Torsional_Energy-OPLS-2005>
6.90453386306763

> <r_mmod_Van_der_Waal_Energy-OPLS-2005>
117.021369934082

> <r_mmod_Electrostatic_Energy-OPLS-2005>
-276.751190185547

> <r_mmod_Solvation_Energy-OPLS-2005>
-420.843139648438

> <b_mmod_Minimization_Converged-OPLS-2005>
0

> <r_mmod_RMS_Derivative-OPLS-2005>
2.45404386520386

$$$$
85
                    3D
 Structure written by MMmdl.
164172  0  0  1  0            999 V2000
  -30.6874  -14.7208   20.4887 C   0  0  0  0  0  0
  -30.4076  -12.4519   19.4715 C   0  0  0  0  0  0
  -29.4965  -12.4832   18.2273 C   0  0  0  0  0  0
  -28.0247  -12.3100   18.6491 C   0  0  0  0  0  0
  -27.6328  -13.2262   19.8383 C   0  0  2  0  0  0
  -28.6771  -13.2089   20.9739 C   0  0  0  0  0  0
  -25.2474  -13.8104   20.5735 C   0  0  0  0  0  0
  -24.1767  -13.0344   20.9162 C   0  0  0  0  0  0
  -24.6363  -11.6842   20.8705 C   0  0  0  0  0  0
  -23.9031  -10.4233   21.0401 C   0  0  0  0  0  0
  -24.3587   -9.4156   21.9180 C   0  0  0  0  0  0
  -23.6276   -8.2182   22.0752 C   0  0  0  0  0  0
  -22.4249   -8.0227   21.3551 C   0  0  0  0  0  0
  -21.9882   -9.0172   20.4636 C   0  0  0  0  0  0
  -22.7202  -10.2058   20.3055 C   0  0  0  0  0  0
  -21.6835   -6.0702   22.5275 C   0  0  0  0  0  0
  -21.3985   -6.5627   23.8198 C   0  0  0  0  0  0
  -21.3661   -5.6785   24.9164 C   0  0  0  0  0  0
  -21.6064   -4.3046   24.7222 C   0  0  0  0  0  0
  -21.8820   -3.8134   23.4347 C   0  0  0  0  0  0
  -21.9186   -4.6938   22.3401 C   0  0  0  0  0  0
  -22.7802  -13.5125   21.1839 C   0  0  0  0  0  0
  -22.1669   -4.2135   21.0980 F   0  0  0  0  0  0
  -21.5653   -3.4531   25.7736 F   0  0  0  0  0  0
  -29.9762  -13.5430   20.3825 N   0  0  0  0  0  0
  -26.2883  -12.9341   20.3236 N   0  0  0  0  0  0
  -25.9300  -11.6484   20.5745 N   0  0  0  0  0  0
  -22.0438  -12.8132   22.0407 N   0  0  0  0  0  0
  -25.4246  -15.1775   20.4354 N   0  0  0  0  0  0
  -31.8497  -14.7478   20.0747 O   0  0  0  0  0  0
  -21.6626   -6.8824   21.4230 O   0  0  0  0  0  0
  -22.3502  -14.5418   20.6669 O   0  0  0  0  0  0
  -24.6284  -31.8578   23.2017 C   0  0  0  0  0  0
  -25.9125  -32.4768   23.8334 C   0  0  1  0  0  0
  -27.2179  -27.2886   20.1138 C   0  0  0  0  0  0
  -25.5926  -33.8561   24.2254 N   0  0  0  0  0  0
  -23.4220  -30.4839   21.5461 C   0  0  2  0  0  0
  -24.8676  -28.9382   20.1089 C   0  0  0  0  0  0
  -22.7497  -29.4623   22.4944 C   0  0  0  0  0  0
  -18.0316  -28.1427   22.8518 C   0  0  0  0  0  0
  -24.1499  -36.7281   23.2636 C   0  0  0  0  0  0
  -25.9676  -30.7747   21.3828 C   0  0  0  0  0  0
  -26.0384  -29.4012   20.7207 C   0  0  0  0  0  0
  -27.2145  -28.5896   20.7175 C   0  0  0  0  0  0
  -26.0297  -26.9033   19.4501 C   0  0  0  0  0  0
  -24.8668  -27.6937   19.4641 C   0  0  0  0  0  0
  -23.6363  -29.8195   20.1619 C   0  0  0  0  0  0
  -25.4129  -36.3081   24.0323 C   0  0  1  0  0  0
  -20.5905  -28.3673   23.1257 C   0  0  2  0  0  0
  -20.6770  -26.9422   22.5337 C   0  0  0  0  0  0
  -19.5746  -26.6474   21.5145 C   0  0  0  0  0  0
  -18.1942  -26.7993   22.1599 C   0  0  0  0  0  0
  -19.1581  -28.8844   23.2910 C   0  0  0  0  0  0
  -18.9546  -30.1441   23.8946 C   0  0  0  0  0  0
  -17.6575  -30.6632   24.0606 C   0  0  0  0  0  0
  -25.9057  -34.9443   23.5075 C   0  0  0  0  0  0
  -16.5434  -29.9159   23.6385 C   0  0  0  0  0  0
  -16.7315  -28.6564   23.0412 C   0  0  0  0  0  0
  -26.4493  -31.6598   25.0732 C   0  0  0  0  0  0
  -25.3709  -31.3733   26.1437 C   0  0  0  0  0  0
  -27.0329  -30.3006   24.6239 C   0  0  0  0  0  0
  -27.6028  -32.4356   25.7505 C   0  0  0  0  0  0
  -27.5586  -37.1806   24.8467 C   0  0  0  0  0  0
  -21.4226  -29.3015   22.3643 N   0  0  0  0  0  0
  -26.4305  -37.3785   23.9393 N   0  0  0  0  0  0
  -24.6911  -31.0573   22.0971 N   0  0  0  0  0  0
  -23.4227  -28.8170   23.3029 O   0  0  0  0  0  0
  -28.3210  -26.4074   20.1899 O   0  0  0  0  0  0
  -26.5653  -34.8920   22.4677 O   0  0  0  0  0  0
  -23.5459  -32.1392   23.7362 O   0  0  0  0  0  0
  -29.6929  -18.3740   20.7878 C   0  0  0  0  0  0
  -27.2901  -17.7307   19.7854 C   0  0  0  0  0  0
  -28.7782  -19.4853   20.5839 C   0  0  0  0  0  0
  -27.4612  -19.0650   20.2227 C   0  0  0  0  0  0
  -29.3565  -16.9816   20.5392 C   0  0  0  0  0  0
  -24.5149  -21.5788   19.0306 C   0  0  0  0  0  0
  -26.1051  -20.7909   21.6765 C   0  0  0  0  0  0
  -29.1873  -20.9950   20.9266 C   0  0  0  0  0  0
  -25.4039  -20.3022   19.1767 C   0  0  0  0  0  0
  -28.7680  -22.2687   20.0131 C   0  0  0  0  0  0
  -28.9915  -23.7882   20.5245 C   0  0  0  0  0  0
  -28.1546  -24.9653   19.8241 C   0  0  0  0  0  0
  -26.1351  -19.8158   20.4715 C   0  0  1  0  0  0
  -28.1782  -16.7236   19.9434 N   0  0  0  0  0  0
  -30.1898  -15.8802   21.0509 N   0  0  0  0  0  0
  -31.4516  -12.5404   19.1656 H   0  0  0  0  0  0
  -30.3387  -11.4864   19.9760 H   0  0  0  0  0  0
  -29.7772  -11.6894   17.5324 H   0  0  0  0  0  0
  -29.6178  -13.4271   17.6932 H   0  0  0  0  0  0
  -27.8828  -11.2664   18.9332 H   0  0  0  0  0  0
  -27.3634  -12.4979   17.8028 H   0  0  0  0  0  0
  -27.6054  -14.2315   19.4189 H   0  0  0  0  0  0
  -28.7163  -12.2273   21.4520 H   0  0  0  0  0  0
  -28.4152  -13.9329   21.7454 H   0  0  0  0  0  0
  -25.2732   -9.5643   22.4752 H   0  0  0  0  0  0
  -23.9988   -7.4569   22.7492 H   0  0  0  0  0  0
  -21.0807   -8.8667   19.8931 H   0  0  0  0  0  0
  -22.3656  -10.9584   19.6160 H   0  0  0  0  0  0
  -21.1956   -7.6132   23.9682 H   0  0  0  0  0  0
  -21.1501   -6.0525   25.9061 H   0  0  0  0  0  0
  -22.0613   -2.7602   23.2842 H   0  0  0  0  0  0
  -22.4110  -11.9826   22.4826 H   0  0  0  0  0  0
  -21.1035  -13.1108   22.2560 H   0  0  0  0  0  0
  -24.6888  -15.8554   20.5981 H   0  0  0  0  0  0
  -26.3366  -15.5862   20.2354 H   0  0  0  0  0  0
  -26.7176  -32.5417   23.1060 H   0  0  0  0  0  0
  -25.0068  -33.9691   25.0388 H   0  0  0  0  0  0
  -22.7137  -31.3048   21.4049 H   0  0  0  0  0  0
  -23.3776  -35.9599   23.3308 H   0  0  0  0  0  0
  -24.3580  -36.8901   22.2051 H   0  0  0  0  0  0
  -23.7241  -37.6471   23.6660 H   0  0  0  0  0  0
  -26.1259  -31.5387   20.6207 H   0  0  0  0  0  0
  -26.8364  -30.8084   22.0266 H   0  0  0  0  0  0
  -28.1086  -28.9462   21.2084 H   0  0  0  0  0  0
  -25.9535  -25.9750   18.9035 H   0  0  0  0  0  0
  -23.9741  -27.3358   18.9642 H   0  0  0  0  0  0
  -23.7488  -30.5931   19.4039 H   0  0  0  0  0  0
  -22.7553  -29.2511   19.8634 H   0  0  0  0  0  0
  -25.1324  -36.1928   25.0821 H   0  0  0  0  0  0
  -21.0033  -28.3193   24.1376 H   0  0  0  0  0  0
  -20.5688  -26.2250   23.3456 H   0  0  0  0  0  0
  -21.6634  -26.7461   22.1143 H   0  0  0  0  0  0
  -19.6907  -25.6416   21.1060 H   0  0  0  0  0  0
  -19.6706  -27.3342   20.6725 H   0  0  0  0  0  0
  -17.4157  -26.6695   21.4047 H   0  0  0  0  0  0
  -18.0399  -26.0148   22.8987 H   0  0  0  0  0  0
  -19.8066  -30.7165   24.2342 H   0  0  0  0  0  0
  -17.5173  -31.6274   24.5309 H   0  0  0  0  0  0
  -15.5443  -30.3063   23.7806 H   0  0  0  0  0  0
  -15.8660  -28.0947   22.7153 H   0  0  0  0  0  0
  -24.5882  -30.7097   25.7742 H   0  0  0  0  0  0
  -24.8907  -32.2894   26.4873 H   0  0  0  0  0  0
  -25.8015  -30.8887   27.0201 H   0  0  0  0  0  0
  -26.2899  -29.6776   24.1242 H   0  0  0  0  0  0
  -27.3954  -29.7268   25.4774 H   0  0  0  0  0  0
  -27.8824  -30.4256   23.9520 H   0  0  0  0  0  0
  -27.2588  -33.3643   26.2069 H   0  0  0  0  0  0
  -28.3828  -32.6942   25.0327 H   0  0  0  0  0  0
  -28.0690  -31.8493   26.5430 H   0  0  0  0  0  0
  -28.2622  -38.0092   24.7526 H   0  0  0  0  0  0
  -28.1076  -36.2628   24.6299 H   0  0  0  0  0  0
  -27.2293  -37.1452   25.8867 H   0  0  0  0  0  0
  -20.9460  -29.8799   21.6877 H   0  0  0  0  0  0
  -26.0194  -38.2865   24.1372 H   0  0  0  0  0  0
  -30.6563  -18.6019   21.2206 H   0  0  0  0  0  0
  -26.3177  -17.4173   19.4374 H   0  0  0  0  0  0
  -24.3236  -22.0731   19.9864 H   0  0  0  0  0  0
  -23.5328  -21.3428   18.6054 H   0  0  0  0  0  0
  -24.9317  -22.3316   18.3545 H   0  0  0  0  0  0
  -26.5692  -21.7564   21.4910 H   0  0  0  0  0  0
  -26.5894  -20.3444   22.5464 H   0  0  0  0  0  0
  -25.0835  -21.0065   21.9828 H   0  0  0  0  0  0
  -30.2755  -21.0072   20.9982 H   0  0  0  0  0  0
  -28.8583  -21.1875   21.9476 H   0  0  0  0  0  0
  -24.4862  -20.0189   19.6981 H   0  0  0  0  0  0
  -26.1742  -21.0644   19.1843 H   0  0  0  0  0  0
  -29.2529  -22.1609   19.0433 H   0  0  0  0  0  0
  -27.7178  -22.2163   19.7856 H   0  0  0  0  0  0
  -30.0488  -24.0364   20.4519 H   0  0  0  0  0  0
  -28.7563  -23.8229   21.5868 H   0  0  0  0  0  0
  -28.3189  -24.9041   18.7476 H   0  0  0  0  0  0
  -27.1247  -24.6578   19.9872 H   0  0  0  0  0  0
  -25.5404  -18.9907   20.8831 H   0  0  0  0  0  0
  -30.9542  -16.2919   21.5646 H   0  0  0  0  0  0
  1 25  1  0  0  0
  1 30  2  0  0  0
  1 85  1  0  0  0
  2  3  1  0  0  0
  2 25  1  0  0  0
  2 86  1  0  0  0
  2 87  1  0  0  0
  3  4  1  0  0  0
  3 88  1  0  0  0
  3 89  1  0  0  0
  4  5  1  0  0  0
  4 90  1  0  0  0
  4 91  1  0  0  0
  5  6  1  0  0  0
  5 26  1  0  0  0
  5 92  1  0  0  0
  6 25  1  0  0  0
  6 93  1  0  0  0
  6 94  1  0  0  0
  7  8  2  0  0  0
  7 26  1  0  0  0
  7 29  1  0  0  0
  8  9  1  0  0  0
  8 22  1  0  0  0
  9 10  1  0  0  0
  9 27  2  0  0  0
 10 11  2  0  0  0
 10 15  1  0  0  0
 11 12  1  0  0  0
 11 95  1  0  0  0
 12 13  2  0  0  0
 12 96  1  0  0  0
 13 14  1  0  0  0
 13 31  1  0  0  0
 14 15  2  0  0  0
 14 97  1  0  0  0
 15 98  1  0  0  0
 16 17  2  0  0  0
 16 21  1  0  0  0
 16 31  1  0  0  0
 17 18  1  0  0  0
 17 99  1  0  0  0
 18 19  2  0  0  0
 18100  1  0  0  0
 19 20  1  0  0  0
 19 24  1  0  0  0
 20 21  2  0  0  0
 20101  1  0  0  0
 21 23  1  0  0  0
 22 28  1  0  0  0
 22 32  2  0  0  0
 26 27  1  0  0  0
 28102  1  0  0  0
 28103  1  0  0  0
 29104  1  0  0  0
 29105  1  0  0  0
 33 34  1  0  0  0
 33 66  1  0  0  0
 33 70  2  0  0  0
 34 36  1  0  0  0
 34 59  1  0  0  0
 34106  1  0  0  0
 35 44  2  0  0  0
 35 45  1  0  0  0
 35 68  1  0  0  0
 36 56  1  0  0  0
 36107  1  0  0  0
 37 39  1  0  0  0
 37 47  1  0  0  0
 37 66  1  0  0  0
 37108  1  0  0  0
 38 43  2  0  0  0
 38 46  1  0  0  0
 38 47  1  0  0  0
 39 64  1  0  0  0
 39 67  2  0  0  0
 40 52  1  0  0  0
 40 53  2  0  0  0
 40 58  1  0  0  0
 41109  1  0  0  0
 41110  1  0  0  0
 41111  1  0  0  0
 41 48  1  0  0  0
 42 43  1  0  0  0
 42 66  1  0  0  0
 42112  1  0  0  0
 42113  1  0  0  0
 43 44  1  0  0  0
 44114  1  0  0  0
 45 46  2  0  0  0
 45115  1  0  0  0
 46116  1  0  0  0
 47117  1  0  0  0
 47118  1  0  0  0
 48 56  1  0  0  0
 48 65  1  0  0  0
 48119  1  0  0  0
 49 50  1  0  0  0
 49 53  1  0  0  0
 49 64  1  0  0  0
 49120  1  0  0  0
 50 51  1  0  0  0
 50121  1  0  0  0
 50122  1  0  0  0
 51 52  1  0  0  0
 51123  1  0  0  0
 51124  1  0  0  0
 52125  1  0  0  0
 52126  1  0  0  0
 53 54  1  0  0  0
 54 55  2  0  0  0
 54127  1  0  0  0
 55 57  1  0  0  0
 55128  1  0  0  0
 56 69  2  0  0  0
 57 58  2  0  0  0
 57129  1  0  0  0
 58130  1  0  0  0
 59 60  1  0  0  0
 59 61  1  0  0  0
 59 62  1  0  0  0
 60131  1  0  0  0
 60132  1  0  0  0
 60133  1  0  0  0
 61134  1  0  0  0
 61135  1  0  0  0
 61136  1  0  0  0
 62137  1  0  0  0
 62138  1  0  0  0
 62139  1  0  0  0
 63 65  1  0  0  0
 63140  1  0  0  0
 63141  1  0  0  0
 63142  1  0  0  0
 64143  1  0  0  0
 65144  1  0  0  0
 68 82  1  0  0  0
 71 73  2  0  0  0
 71 75  1  0  0  0
 71145  1  0  0  0
 72 74  2  0  0  0
 72 84  1  0  0  0
 72146  1  0  0  0
 73 74  1  0  0  0
 73 78  1  0  0  0
 74 83  1  0  0  0
 75 84  2  0  0  0
 75 85  1  0  0  0
 76 79  1  0  0  0
 76147  1  0  0  0
 76148  1  0  0  0
 76149  1  0  0  0
 77150  1  0  0  0
 77151  1  0  0  0
 77152  1  0  0  0
 77 83  1  0  0  0
 78 80  1  0  0  0
 78153  1  0  0  0
 78154  1  0  0  0
 79 83  1  0  0  0
 79155  1  0  0  0
 79156  1  0  0  0
 80 81  1  0  0  0
 80157  1  0  0  0
 80158  1  0  0  0
 81 82  1  0  0  0
 81159  1  0  0  0
 81160  1  0  0  0
 82161  1  0  0  0
 82162  1  0  0  0
 83163  1  0  0  0
 85164  1  0  0  0
M  ISO  4   1 100  68 101  82 101  85 100
M  END
> <chiral flag>
0

> <version>
0

> <s_m_source_file>
/data/baiqing/PycharmProjects/Reinvent-master-3.2/result/LINK_invent/BTK/process_docking_weight1_custom_sum_contain_oxygen_bond_distance_aromatic_linkinvent_7_9_3/rearranged_h_0092.sdf

> <i_m_source_file_index>
84

> <r_mmod_Potential_Energy-OPLS-2005>
381.075286865234

> <r_mmod_Stretch_Energy-OPLS-2005>
118.529090881348

> <r_mmod_Bend_Energy-OPLS-2005>
445.790252685547

> <r_mmod_Torsional_Energy-OPLS-2005>
287.077880859375

> <r_mmod_Improper_Torsional_Energy-OPLS-2005>
8.20468235015869

> <r_mmod_Van_der_Waal_Energy-OPLS-2005>
165.260772705078

> <r_mmod_Electrostatic_Energy-OPLS-2005>
-526.552856445312

> <r_mmod_Solvation_Energy-OPLS-2005>
-194.310806274414

> <b_mmod_Minimization_Converged-OPLS-2005>
0

> <r_mmod_RMS_Derivative-OPLS-2005>
5.8644323348999

$$$$
86
                    3D
 Structure written by MMmdl.
168176  0  0  1  0            999 V2000
  -30.5913  -14.7332   20.4908 C   0  0  0  0  0  0
  -30.4388  -12.4467   19.4740 C   0  0  0  0  0  0
  -29.5157  -12.5276   18.2360 C   0  0  0  0  0  0
  -28.0392  -12.3408   18.6412 C   0  0  0  0  0  0
  -27.6462  -13.2251   19.8546 C   0  0  2  0  0  0
  -28.6868  -13.1267   20.9897 C   0  0  0  0  0  0
  -25.2546  -13.8178   20.5685 C   0  0  0  0  0  0
  -24.1809  -13.0439   20.9147 C   0  0  0  0  0  0
  -24.6375  -11.6908   20.8710 C   0  0  0  0  0  0
  -23.9036  -10.4292   21.0386 C   0  0  0  0  0  0
  -24.3598   -9.4222   21.9173 C   0  0  0  0  0  0
  -23.6285   -8.2252   22.0755 C   0  0  0  0  0  0
  -22.4268   -8.0268   21.3546 C   0  0  0  0  0  0
  -21.9894   -9.0227   20.4633 C   0  0  0  0  0  0
  -22.7207  -10.2121   20.3039 C   0  0  0  0  0  0
  -21.6852   -6.0722   22.5276 C   0  0  0  0  0  0
  -21.4015   -6.5629   23.8201 C   0  0  0  0  0  0
  -21.3669   -5.6790   24.9173 C   0  0  0  0  0  0
  -21.6046   -4.3046   24.7227 C   0  0  0  0  0  0
  -21.8828   -3.8135   23.4350 C   0  0  0  0  0  0
  -21.9201   -4.6948   22.3407 C   0  0  0  0  0  0
  -22.7835  -13.5234   21.1820 C   0  0  0  0  0  0
  -22.1665   -4.2124   21.0988 F   0  0  0  0  0  0
  -21.5635   -3.4539   25.7746 F   0  0  0  0  0  0
  -29.9968  -13.4902   20.4310 N   0  0  0  0  0  0
  -26.2957  -12.9359   20.3266 N   0  0  0  0  0  0
  -25.9304  -11.6505   20.5708 N   0  0  0  0  0  0
  -22.0496  -12.8216   22.0370 N   0  0  0  0  0  0
  -25.4310  -15.1900   20.4192 N   0  0  0  0  0  0
  -31.7548  -14.8406   20.0935 O   0  0  0  0  0  0
  -21.6642   -6.8863   21.4239 O   0  0  0  0  0  0
  -22.3506  -14.5543   20.6672 O   0  0  0  0  0  0
  -24.6303  -31.8543   23.1958 C   0  0  0  0  0  0
  -25.9143  -32.4724   23.8308 C   0  0  1  0  0  0
  -27.2272  -27.2696   20.1445 C   0  0  0  0  0  0
  -25.5935  -33.8529   24.2241 N   0  0  0  0  0  0
  -23.4260  -30.4751   21.5375 C   0  0  2  0  0  0
  -24.8757  -28.9104   20.1182 C   0  0  0  0  0  0
  -22.7474  -29.4624   22.4902 C   0  0  0  0  0  0
  -18.0290  -28.1399   22.8472 C   0  0  0  0  0  0
  -24.1497  -36.7278   23.2643 C   0  0  0  0  0  0
  -25.9696  -30.7706   21.3738 C   0  0  0  0  0  0
  -26.0457  -29.3905   20.7230 C   0  0  0  0  0  0
  -27.2264  -28.5835   20.7202 C   0  0  0  0  0  0
  -26.0372  -26.8429   19.5243 C   0  0  0  0  0  0
  -24.8752  -27.6429   19.5102 C   0  0  0  0  0  0
  -23.6452  -29.7970   20.1585 C   0  0  0  0  0  0
  -25.4120  -36.3043   24.0323 C   0  0  1  0  0  0
  -20.5893  -28.3720   23.1256 C   0  0  2  0  0  0
  -20.6786  -26.9438   22.5404 C   0  0  0  0  0  0
  -19.5761  -26.6394   21.5209 C   0  0  0  0  0  0
  -18.1935  -26.7946   22.1613 C   0  0  0  0  0  0
  -19.1542  -28.8871   23.2861 C   0  0  0  0  0  0
  -18.9467  -30.1475   23.8874 C   0  0  0  0  0  0
  -17.6464  -30.6595   24.0569 C   0  0  0  0  0  0
  -25.9058  -34.9414   23.5085 C   0  0  0  0  0  0
  -16.5358  -29.9088   23.6340 C   0  0  0  0  0  0
  -16.7279  -28.6517   23.0347 C   0  0  0  0  0  0
  -26.4529  -31.6532   25.0688 C   0  0  0  0  0  0
  -25.3754  -31.3682   26.1402 C   0  0  0  0  0  0
  -27.0385  -30.2930   24.6196 C   0  0  0  0  0  0
  -27.6075  -32.4267   25.7478 C   0  0  0  0  0  0
  -27.5576  -37.1791   24.8463 C   0  0  0  0  0  0
  -21.4183  -29.3068   22.3631 N   0  0  0  0  0  0
  -26.4294  -37.3739   23.9395 N   0  0  0  0  0  0
  -24.6939  -31.0517   22.0917 N   0  0  0  0  0  0
  -23.4166  -28.8185   23.3029 O   0  0  0  0  0  0
  -28.3412  -26.4079   20.1206 O   0  0  0  0  0  0
  -26.5633  -34.8902   22.4656 O   0  0  0  0  0  0
  -23.5456  -32.1375   23.7263 O   0  0  0  0  0  0
  -29.6091  -19.7492   20.4643 C   0  0  0  0  0  0
  -28.8858  -20.9319   20.9121 C   0  0  0  0  0  0
  -27.7949  -20.6523   21.7808 C   0  0  0  0  0  0
  -29.2690  -18.3988   20.8699 C   0  0  0  0  0  0
  -27.5153  -19.3034   22.1413 C   0  0  0  0  0  0
  -30.0354  -17.0833   20.5134 C   0  0  0  0  0  0
  -26.9766  -21.8028   22.3734 C   0  0  0  0  0  0
  -23.9626  -18.4160   23.5128 C   0  0  0  0  0  0
  -31.5294  -23.8239   20.2211 C   0  0  0  0  0  0
  -26.4256  -18.9236   23.1351 C   0  0  0  0  0  0
  -25.0290  -18.8529   22.5012 C   0  0  0  0  0  0
  -30.8039  -22.4756   20.1153 C   0  0  0  0  0  0
  -28.4652  -23.6339   20.0335 C   0  0  0  0  0  0
  -28.2807  -25.0652   20.7864 C   0  0  0  0  0  0
  -29.3760  -22.4538   20.7083 C   0  0  1  0  0  0
  -28.2067  -18.2385   21.6846 N   0  0  0  0  0  0
  -29.7602  -15.8390   20.8762 N   0  0  0  0  0  0
  -31.4800  -12.5695   19.1722 H   0  0  0  0  0  0
  -30.3786  -11.4579   19.9325 H   0  0  0  0  0  0
  -29.7997  -11.7804   17.4925 H   0  0  0  0  0  0
  -29.6384  -13.4986   17.7548 H   0  0  0  0  0  0
  -27.8937  -11.2883   18.8890 H   0  0  0  0  0  0
  -27.3839  -12.5496   17.7954 H   0  0  0  0  0  0
  -27.6512  -14.2532   19.4920 H   0  0  0  0  0  0
  -28.7157  -12.1152   21.3983 H   0  0  0  0  0  0
  -28.4158  -13.7807   21.8201 H   0  0  0  0  0  0
  -25.2752   -9.5706   22.4730 H   0  0  0  0  0  0
  -23.9998   -7.4657   22.7489 H   0  0  0  0  0  0
  -21.0825   -8.8723   19.8944 H   0  0  0  0  0  0
  -22.3649  -10.9643   19.6132 H   0  0  0  0  0  0
  -21.1997   -7.6138   23.9689 H   0  0  0  0  0  0
  -21.1484   -6.0531   25.9075 H   0  0  0  0  0  0
  -22.0599   -2.7588   23.2862 H   0  0  0  0  0  0
  -22.4125  -11.9890   22.4783 H   0  0  0  0  0  0
  -21.1103  -13.1222   22.2568 H   0  0  0  0  0  0
  -24.6864  -15.8601   20.5730 H   0  0  0  0  0  0
  -26.3226  -15.6246   20.2132 H   0  0  0  0  0  0
  -26.7201  -32.5401   23.1045 H   0  0  0  0  0  0
  -25.0051  -33.9645   25.0365 H   0  0  0  0  0  0
  -22.7233  -31.2972   21.3840 H   0  0  0  0  0  0
  -23.3742  -35.9625   23.3283 H   0  0  0  0  0  0
  -24.3583  -36.8926   22.2057 H   0  0  0  0  0  0
  -23.7274  -37.6478   23.6698 H   0  0  0  0  0  0
  -26.1064  -31.5291   20.6020 H   0  0  0  0  0  0
  -26.8471  -30.8220   22.0067 H   0  0  0  0  0  0
  -28.1268  -28.9513   21.1934 H   0  0  0  0  0  0
  -26.0064  -25.8709   19.0529 H   0  0  0  0  0  0
  -23.9788  -27.2662   19.0374 H   0  0  0  0  0  0
  -23.7662  -30.5660   19.3943 H   0  0  0  0  0  0
  -22.7654  -29.2236   19.8598 H   0  0  0  0  0  0
  -25.1310  -36.1877   25.0816 H   0  0  0  0  0  0
  -20.9991  -28.3326   24.1377 H   0  0  0  0  0  0
  -20.5689  -26.2339   23.3613 H   0  0  0  0  0  0
  -21.6655  -26.7467   22.1203 H   0  0  0  0  0  0
  -19.6932  -25.6302   21.1240 H   0  0  0  0  0  0
  -19.6702  -27.3196   20.6731 H   0  0  0  0  0  0
  -17.4215  -26.6699   21.4005 H   0  0  0  0  0  0
  -18.0331  -26.0088   22.9006 H   0  0  0  0  0  0
  -19.7948  -30.7305   24.2216 H   0  0  0  0  0  0
  -17.5028  -31.6273   24.5185 H   0  0  0  0  0  0
  -15.5361  -30.2992   23.7679 H   0  0  0  0  0  0
  -15.8684  -28.0843   22.7056 H   0  0  0  0  0  0
  -24.5939  -30.7017   25.7731 H   0  0  0  0  0  0
  -24.8939  -32.2851   26.4803 H   0  0  0  0  0  0
  -25.8077  -30.8873   27.0183 H   0  0  0  0  0  0
  -26.2970  -29.6620   24.1269 H   0  0  0  0  0  0
  -27.4090  -29.7245   25.4741 H   0  0  0  0  0  0
  -27.8841  -30.4159   23.9423 H   0  0  0  0  0  0
  -27.2681  -33.3582   26.2017 H   0  0  0  0  0  0
  -28.3924  -32.6776   25.0333 H   0  0  0  0  0  0
  -28.0694  -31.8394   26.5423 H   0  0  0  0  0  0
  -28.2593  -38.0088   24.7481 H   0  0  0  0  0  0
  -28.1074  -36.2604   24.6333 H   0  0  0  0  0  0
  -27.2280  -37.1488   25.8866 H   0  0  0  0  0  0
  -20.9366  -29.8753   21.6798 H   0  0  0  0  0  0
  -26.0162  -38.2815   24.1363 H   0  0  0  0  0  0
  -30.4811  -19.8605   19.8365 H   0  0  0  0  0  0
  -30.9115  -17.2638   19.8839 H   0  0  0  0  0  0
  -27.5989  -22.4337   23.0083 H   0  0  0  0  0  0
  -26.1314  -21.4853   22.9784 H   0  0  0  0  0  0
  -26.5444  -22.4188   21.5888 H   0  0  0  0  0  0
  -22.9637  -18.4885   23.0832 H   0  0  0  0  0  0
  -23.9866  -19.0464   24.4035 H   0  0  0  0  0  0
  -24.1195  -17.3830   23.8282 H   0  0  0  0  0  0
  -32.5422  -23.7396   19.8250 H   0  0  0  0  0  0
  -31.6034  -24.1530   21.2581 H   0  0  0  0  0  0
  -31.0226  -24.6028   19.6524 H   0  0  0  0  0  0
  -26.4422  -19.6059   23.9842 H   0  0  0  0  0  0
  -26.6628  -17.9492   23.5660 H   0  0  0  0  0  0
  -24.7633  -19.8267   22.0904 H   0  0  0  0  0  0
  -25.0440  -18.1602   21.6584 H   0  0  0  0  0  0
  -31.4217  -21.7537   20.6507 H   0  0  0  0  0  0
  -30.7751  -22.1453   19.0765 H   0  0  0  0  0  0
  -28.8707  -23.8396   19.0430 H   0  0  0  0  0  0
  -27.4769  -23.2389   19.8023 H   0  0  0  0  0  0
  -29.0762  -25.1225   21.5292 H   0  0  0  0  0  0
  -27.3697  -25.0129   21.3843 H   0  0  0  0  0  0
  -29.5119  -22.7791   21.7398 H   0  0  0  0  0  0
  1 25  1  0  0  0
  1 30  2  0  0  0
  1 87  1  0  0  0
  2  3  1  0  0  0
  2 25  1  0  0  0
  2 88  1  0  0  0
  2 89  1  0  0  0
  3  4  1  0  0  0
  3 90  1  0  0  0
  3 91  1  0  0  0
  4  5  1  0  0  0
  4 92  1  0  0  0
  4 93  1  0  0  0
  5  6  1  0  0  0
  5 26  1  0  0  0
  5 94  1  0  0  0
  6 25  1  0  0  0
  6 95  1  0  0  0
  6 96  1  0  0  0
  7  8  2  0  0  0
  7 26  1  0  0  0
  7 29  1  0  0  0
  8  9  1  0  0  0
  8 22  1  0  0  0
  9 10  1  0  0  0
  9 27  2  0  0  0
 10 11  2  0  0  0
 10 15  1  0  0  0
 11 12  1  0  0  0
 11 97  1  0  0  0
 12 13  2  0  0  0
 12 98  1  0  0  0
 13 14  1  0  0  0
 13 31  1  0  0  0
 14 15  2  0  0  0
 14 99  1  0  0  0
 15100  1  0  0  0
 16 17  2  0  0  0
 16 21  1  0  0  0
 16 31  1  0  0  0
 17 18  1  0  0  0
 17101  1  0  0  0
 18 19  2  0  0  0
 18102  1  0  0  0
 19 20  1  0  0  0
 19 24  1  0  0  0
 20 21  2  0  0  0
 20103  1  0  0  0
 21 23  1  0  0  0
 22 28  1  0  0  0
 22 32  2  0  0  0
 26 27  1  0  0  0
 28104  1  0  0  0
 28105  1  0  0  0
 29106  1  0  0  0
 29107  1  0  0  0
 33 34  1  0  0  0
 33 66  1  0  0  0
 33 70  2  0  0  0
 34 36  1  0  0  0
 34 59  1  0  0  0
 34108  1  0  0  0
 35 44  2  0  0  0
 35 45  1  0  0  0
 35 68  1  0  0  0
 36 56  1  0  0  0
 36109  1  0  0  0
 37 39  1  0  0  0
 37 47  1  0  0  0
 37 66  1  0  0  0
 37110  1  0  0  0
 38 43  2  0  0  0
 38 46  1  0  0  0
 38 47  1  0  0  0
 39 64  1  0  0  0
 39 67  2  0  0  0
 40 52  1  0  0  0
 40 53  2  0  0  0
 40 58  1  0  0  0
 41111  1  0  0  0
 41112  1  0  0  0
 41113  1  0  0  0
 41 48  1  0  0  0
 42 43  1  0  0  0
 42 66  1  0  0  0
 42114  1  0  0  0
 42115  1  0  0  0
 43 44  1  0  0  0
 44116  1  0  0  0
 45 46  2  0  0  0
 45117  1  0  0  0
 46118  1  0  0  0
 47119  1  0  0  0
 47120  1  0  0  0
 48 56  1  0  0  0
 48 65  1  0  0  0
 48121  1  0  0  0
 49 50  1  0  0  0
 49 53  1  0  0  0
 49 64  1  0  0  0
 49122  1  0  0  0
 50 51  1  0  0  0
 50123  1  0  0  0
 50124  1  0  0  0
 51 52  1  0  0  0
 51125  1  0  0  0
 51126  1  0  0  0
 52127  1  0  0  0
 52128  1  0  0  0
 53 54  1  0  0  0
 54 55  2  0  0  0
 54129  1  0  0  0
 55 57  1  0  0  0
 55130  1  0  0  0
 56 69  2  0  0  0
 57 58  2  0  0  0
 57131  1  0  0  0
 58132  1  0  0  0
 59 60  1  0  0  0
 59 61  1  0  0  0
 59 62  1  0  0  0
 60133  1  0  0  0
 60134  1  0  0  0
 60135  1  0  0  0
 61136  1  0  0  0
 61137  1  0  0  0
 61138  1  0  0  0
 62139  1  0  0  0
 62140  1  0  0  0
 62141  1  0  0  0
 63 65  1  0  0  0
 63142  1  0  0  0
 63143  1  0  0  0
 63144  1  0  0  0
 64145  1  0  0  0
 65146  1  0  0  0
 68 84  1  0  0  0
 71 72  2  0  0  0
 71 74  1  0  0  0
 71147  1  0  0  0
 72 73  1  0  0  0
 72 85  1  0  0  0
 73 75  2  0  0  0
 73 77  1  0  0  0
 74 76  1  0  0  0
 74 86  2  0  0  0
 75 80  1  0  0  0
 75 86  1  0  0  0
 76 87  2  0  0  0
 76148  1  0  0  0
 77149  1  0  0  0
 77150  1  0  0  0
 77151  1  0  0  0
 78 81  1  0  0  0
 78152  1  0  0  0
 78153  1  0  0  0
 78154  1  0  0  0
 79 82  1  0  0  0
 79155  1  0  0  0
 79156  1  0  0  0
 79157  1  0  0  0
 80 81  1  0  0  0
 80158  1  0  0  0
 80159  1  0  0  0
 81160  1  0  0  0
 81161  1  0  0  0
 82162  1  0  0  0
 82163  1  0  0  0
 82 85  1  0  0  0
 83 84  1  0  0  0
 83 85  1  0  0  0
 83164  1  0  0  0
 83165  1  0  0  0
 84166  1  0  0  0
 84167  1  0  0  0
 85168  1  0  0  0
M  ISO  4   1 100  68 101  84 101  87 100
M  END
> <chiral flag>
0

> <version>
0

> <s_m_source_file>
/data/baiqing/PycharmProjects/Reinvent-master-3.2/result/LINK_invent/BTK/process_docking_weight1_custom_sum_contain_oxygen_bond_distance_aromatic_linkinvent_7_9_3/rearranged_h_0092.sdf

> <i_m_source_file_index>
85

> <r_mmod_Potential_Energy-OPLS-2005>
61.7476119995117

> <r_mmod_Stretch_Energy-OPLS-2005>
134.117736816406

> <r_mmod_Bend_Energy-OPLS-2005>
178.167938232422

> <r_mmod_Torsional_Energy-OPLS-2005>
207.2578125

> <r_mmod_Improper_Torsional_Energy-OPLS-2005>
4.77878999710083

> <r_mmod_Van_der_Waal_Energy-OPLS-2005>
144.847274780273

> <r_mmod_Electrostatic_Energy-OPLS-2005>
-496.350860595703

> <r_mmod_Solvation_Energy-OPLS-2005>
-184.887023925781

> <b_mmod_Minimization_Converged-OPLS-2005>
0

> <r_mmod_RMS_Derivative-OPLS-2005>
2.08175897598267

$$$$
87
                    3D
 Structure written by MMmdl.
178186  0  0  1  0            999 V2000
  -30.5829  -14.7269   20.5001 C   0  0  0  0  0  0
  -30.4545  -12.4523   19.4512 C   0  0  0  0  0  0
  -29.5208  -12.5165   18.2213 C   0  0  0  0  0  0
  -28.0432  -12.3299   18.6319 C   0  0  0  0  0  0
  -27.6451  -13.2171   19.8412 C   0  0  2  0  0  0
  -28.6899  -13.1126   20.9702 C   0  0  0  0  0  0
  -25.2538  -13.8144   20.5646 C   0  0  0  0  0  0
  -24.1814  -13.0418   20.9178 C   0  0  0  0  0  0
  -24.6385  -11.6906   20.8709 C   0  0  0  0  0  0
  -23.9062  -10.4294   21.0385 C   0  0  0  0  0  0
  -24.3617   -9.4195   21.9158 C   0  0  0  0  0  0
  -23.6265   -8.2255   22.0749 C   0  0  0  0  0  0
  -22.4227   -8.0294   21.3575 C   0  0  0  0  0  0
  -21.9874   -9.0268   20.4661 C   0  0  0  0  0  0
  -22.7227  -10.2131   20.3036 C   0  0  0  0  0  0
  -21.6832   -6.0734   22.5280 C   0  0  0  0  0  0
  -21.4029   -6.5629   23.8219 C   0  0  0  0  0  0
  -21.3665   -5.6771   24.9176 C   0  0  0  0  0  0
  -21.6031   -4.3036   24.7219 C   0  0  0  0  0  0
  -21.8818   -3.8139   23.4338 C   0  0  0  0  0  0
  -21.9196   -4.6973   22.3394 C   0  0  0  0  0  0
  -22.7847  -13.5260   21.1809 C   0  0  0  0  0  0
  -22.1666   -4.2172   21.0967 F   0  0  0  0  0  0
  -21.5618   -3.4514   25.7736 F   0  0  0  0  0  0
  -29.9915  -13.4879   20.3964 N   0  0  0  0  0  0
  -26.2953  -12.9331   20.3166 N   0  0  0  0  0  0
  -25.9291  -11.6494   20.5634 N   0  0  0  0  0  0
  -22.0447  -12.8330   22.0373 N   0  0  0  0  0  0
  -25.4199  -15.1881   20.4109 N   0  0  0  0  0  0
  -31.7838  -14.8828   20.2731 O   0  0  0  0  0  0
  -21.6620   -6.8874   21.4232 O   0  0  0  0  0  0
  -22.3577  -14.5546   20.6597 O   0  0  0  0  0  0
  -24.6327  -31.8529   23.1975 C   0  0  0  0  0  0
  -25.9145  -32.4733   23.8313 C   0  0  1  0  0  0
  -27.2139  -27.2316   20.1022 C   0  0  0  0  0  0
  -25.5924  -33.8542   24.2219 N   0  0  0  0  0  0
  -23.4292  -30.4746   21.5441 C   0  0  2  0  0  0
  -24.8735  -28.9218   20.1099 C   0  0  0  0  0  0
  -22.7512  -29.4563   22.4937 C   0  0  0  0  0  0
  -18.0290  -28.1379   22.8482 C   0  0  0  0  0  0
  -24.1488  -36.7284   23.2629 C   0  0  0  0  0  0
  -25.9809  -30.7513   21.3866 C   0  0  0  0  0  0
  -26.0480  -29.3720   20.7234 C   0  0  0  0  0  0
  -27.2156  -28.5366   20.7149 C   0  0  0  0  0  0
  -26.0141  -26.8716   19.4445 C   0  0  0  0  0  0
  -24.8641  -27.6802   19.4630 C   0  0  0  0  0  0
  -23.6457  -29.8095   20.1604 C   0  0  0  0  0  0
  -25.4114  -36.3044   24.0298 C   0  0  1  0  0  0
  -20.5894  -28.3683   23.1287 C   0  0  2  0  0  0
  -20.6781  -26.9404   22.5421 C   0  0  0  0  0  0
  -19.5759  -26.6360   21.5229 C   0  0  0  0  0  0
  -18.1935  -26.7920   22.1623 C   0  0  0  0  0  0
  -19.1549  -28.8842   23.2867 C   0  0  0  0  0  0
  -18.9460  -30.1455   23.8876 C   0  0  0  0  0  0
  -17.6471  -30.6573   24.0544 C   0  0  0  0  0  0
  -25.9056  -34.9418   23.5063 C   0  0  0  0  0  0
  -16.5363  -29.9072   23.6328 C   0  0  0  0  0  0
  -16.7283  -28.6482   23.0350 C   0  0  0  0  0  0
  -26.4488  -31.6581   25.0729 C   0  0  0  0  0  0
  -25.3688  -31.3809   26.1443 C   0  0  0  0  0  0
  -27.0311  -30.2960   24.6278 C   0  0  0  0  0  0
  -27.6007  -32.4350   25.7521 C   0  0  0  0  0  0
  -27.5572  -37.1793   24.8449 C   0  0  0  0  0  0
  -21.4218  -29.3017   22.3679 N   0  0  0  0  0  0
  -26.4281  -37.3749   23.9394 N   0  0  0  0  0  0
  -24.6995  -31.0452   22.0972 N   0  0  0  0  0  0
  -23.4200  -28.8093   23.3025 O   0  0  0  0  0  0
  -28.3123  -26.3282   20.1789 O   0  0  0  0  0  0
  -26.5649  -34.8901   22.4645 O   0  0  0  0  0  0
  -23.5466  -32.1370   23.7254 O   0  0  0  0  0  0
  -31.5721  -18.6992   20.2559 C   0  0  0  0  0  0
  -30.2106  -18.5361   20.5696 C   0  0  0  0  0  0
  -31.2827  -20.9779   19.8536 C   0  0  0  0  0  0
  -29.8759  -20.9073   20.1011 C   0  0  0  0  0  0
  -33.7034  -23.5942   16.2140 C   0  0  0  0  0  0
  -24.8866  -21.2060   17.7460 C   0  0  0  0  0  0
  -26.7629  -22.5244   16.6103 C   0  0  0  0  0  0
  -32.0248  -22.2479   19.4695 C   0  0  0  0  0  0
  -29.8042  -17.1761   21.2829 C   0  0  0  0  0  0
  -33.1609  -23.5908   17.6449 C   0  0  0  0  0  0
  -32.4913  -22.2618   18.0102 C   0  0  0  0  0  0
  -28.8624  -23.5983   20.4379 C   0  0  0  0  0  0
  -27.3480  -20.6808   18.3241 C   0  0  0  0  0  0
  -28.2622  -24.9014   19.6567 C   0  0  0  0  0  0
  -28.9029  -22.1340   19.6820 C   0  0  2  0  0  0
  -26.3472  -21.1912   17.2578 C   0  0  0  0  0  0
  -32.1014  -19.8989   19.9306 N   0  0  0  0  0  0
  -29.3664  -19.6552   20.4911 N   0  0  0  0  0  0
  -29.7178  -15.7940   20.6447 N   0  0  0  0  0  0
  -27.5300  -21.5918   19.4894 N   0  3  0  0  0  0
  -31.4951  -12.6086   19.1608 H   0  0  0  0  0  0
  -30.4179  -11.4654   19.9135 H   0  0  0  0  0  0
  -29.8055  -11.7617   17.4844 H   0  0  0  0  0  0
  -29.6384  -13.4784   17.7201 H   0  0  0  0  0  0
  -27.9022  -11.2778   18.8803 H   0  0  0  0  0  0
  -27.3907  -12.5367   17.7842 H   0  0  0  0  0  0
  -27.6450  -14.2412   19.4648 H   0  0  0  0  0  0
  -28.7223  -12.0972   21.3659 H   0  0  0  0  0  0
  -28.4248  -13.7517   21.8128 H   0  0  0  0  0  0
  -25.2760   -9.5675   22.4740 H   0  0  0  0  0  0
  -23.9990   -7.4609   22.7452 H   0  0  0  0  0  0
  -21.0808   -8.8776   19.8933 H   0  0  0  0  0  0
  -22.3691  -10.9662   19.6147 H   0  0  0  0  0  0
  -21.2036   -7.6138   23.9748 H   0  0  0  0  0  0
  -21.1472   -6.0483   25.9081 H   0  0  0  0  0  0
  -22.0593   -2.7603   23.2807 H   0  0  0  0  0  0
  -22.4036  -12.0079   22.4906 H   0  0  0  0  0  0
  -21.1035  -13.1391   22.2464 H   0  0  0  0  0  0
  -24.6347  -15.8193   20.5087 H   0  0  0  0  0  0
  -26.2456  -15.6373   20.0384 H   0  0  0  0  0  0
  -26.7202  -32.5343   23.1039 H   0  0  0  0  0  0
  -25.0033  -33.9685   25.0333 H   0  0  0  0  0  0
  -22.7238  -31.2957   21.3982 H   0  0  0  0  0  0
  -23.3730  -35.9637   23.3307 H   0  0  0  0  0  0
  -24.3573  -36.8906   22.2039 H   0  0  0  0  0  0
  -23.7284  -37.6493   23.6681 H   0  0  0  0  0  0
  -26.1322  -31.5119   20.6194 H   0  0  0  0  0  0
  -26.8548  -30.7914   22.0267 H   0  0  0  0  0  0
  -28.1135  -28.8711   21.2131 H   0  0  0  0  0  0
  -25.8971  -25.9490   18.9022 H   0  0  0  0  0  0
  -23.9657  -27.3346   18.9701 H   0  0  0  0  0  0
  -23.7727  -30.5847   19.4041 H   0  0  0  0  0  0
  -22.7621  -29.2440   19.8554 H   0  0  0  0  0  0
  -25.1312  -36.1860   25.0787 H   0  0  0  0  0  0
  -20.9974  -28.3246   24.1413 H   0  0  0  0  0  0
  -20.5702  -26.2275   23.3605 H   0  0  0  0  0  0
  -21.6639  -26.7437   22.1210 H   0  0  0  0  0  0
  -19.6922  -25.6269   21.1260 H   0  0  0  0  0  0
  -19.6694  -27.3154   20.6750 H   0  0  0  0  0  0
  -17.4208  -26.6660   21.4025 H   0  0  0  0  0  0
  -18.0327  -26.0065   22.9020 H   0  0  0  0  0  0
  -19.7934  -30.7281   24.2214 H   0  0  0  0  0  0
  -17.5021  -31.6257   24.5149 H   0  0  0  0  0  0
  -15.5371  -30.2964   23.7677 H   0  0  0  0  0  0
  -15.8671  -28.0809   22.7095 H   0  0  0  0  0  0
  -24.5834  -30.7174   25.7824 H   0  0  0  0  0  0
  -24.8907  -32.3003   26.4820 H   0  0  0  0  0  0
  -25.7964  -30.9029   27.0258 H   0  0  0  0  0  0
  -26.2898  -29.6729   24.1250 H   0  0  0  0  0  0
  -27.3871  -29.7227   25.4853 H   0  0  0  0  0  0
  -27.8848  -30.4187   23.9610 H   0  0  0  0  0  0
  -27.2566  -33.3646   26.2078 H   0  0  0  0  0  0
  -28.3836  -32.6920   25.0377 H   0  0  0  0  0  0
  -28.0649  -31.8492   26.5464 H   0  0  0  0  0  0
  -28.2578  -38.0098   24.7486 H   0  0  0  0  0  0
  -28.1077  -36.2628   24.6283 H   0  0  0  0  0  0
  -27.2294  -37.1454   25.8852 H   0  0  0  0  0  0
  -20.9413  -29.8715   21.6867 H   0  0  0  0  0  0
  -26.0141  -38.2812   24.1401 H   0  0  0  0  0  0
  -32.2595  -17.8732   20.3542 H   0  0  0  0  0  0
  -34.1585  -24.5554   15.9729 H   0  0  0  0  0  0
  -32.9128  -23.4132   15.4843 H   0  0  0  0  0  0
  -34.4635  -22.8231   16.0844 H   0  0  0  0  0  0
  -24.2129  -21.5218   16.9472 H   0  0  0  0  0  0
  -24.7344  -21.8824   18.5871 H   0  0  0  0  0  0
  -24.5678  -20.2083   18.0548 H   0  0  0  0  0  0
  -26.1062  -22.7690   15.7737 H   0  0  0  0  0  0
  -27.7768  -22.4692   16.2107 H   0  0  0  0  0  0
  -26.7199  -23.3580   17.3096 H   0  0  0  0  0  0
  -32.8881  -22.3479   20.1294 H   0  0  0  0  0  0
  -31.4290  -23.1328   19.6490 H   0  0  0  0  0  0
  -28.8322  -17.3462   21.7443 H   0  0  0  0  0  0
  -30.4853  -17.0712   22.1311 H   0  0  0  0  0  0
  -32.4466  -24.4075   17.7669 H   0  0  0  0  0  0
  -33.9775  -23.8005   18.3380 H   0  0  0  0  0  0
  -31.6399  -22.0858   17.3545 H   0  0  0  0  0  0
  -33.1869  -21.4375   17.8425 H   0  0  0  0  0  0
  -28.3169  -23.4810   21.3720 H   0  0  0  0  0  0
  -29.8643  -23.8750   20.7549 H   0  0  0  0  0  0
  -28.3015  -20.4572   17.8440 H   0  0  0  0  0  0
  -26.9959  -19.7204   18.7066 H   0  0  0  0  0  0
  -27.2450  -24.6006   19.4354 H   0  0  0  0  0  0
  -28.7512  -24.9494   18.6819 H   0  0  0  0  0  0
  -29.2562  -22.3893   18.6810 H   0  0  0  0  0  0
  -26.3771  -20.4542   16.4516 H   0  0  0  0  0  0
  -28.7655  -15.4823   20.5601 H   0  0  0  0  0  0
  -27.3449  -21.0453   20.3163 H   0  0  0  0  0  0
  -26.8501  -22.3284   19.4467 H   0  0  0  0  0  0
  1 25  1  0  0  0
  1 30  2  0  0  0
  1 89  1  0  0  0
  2  3  1  0  0  0
  2 25  1  0  0  0
  2 91  1  0  0  0
  2 92  1  0  0  0
  3  4  1  0  0  0
  3 93  1  0  0  0
  3 94  1  0  0  0
  4  5  1  0  0  0
  4 95  1  0  0  0
  4 96  1  0  0  0
  5  6  1  0  0  0
  5 26  1  0  0  0
  5 97  1  0  0  0
  6 25  1  0  0  0
  6 98  1  0  0  0
  6 99  1  0  0  0
  7  8  2  0  0  0
  7 26  1  0  0  0
  7 29  1  0  0  0
  8  9  1  0  0  0
  8 22  1  0  0  0
  9 10  1  0  0  0
  9 27  2  0  0  0
 10 11  2  0  0  0
 10 15  1  0  0  0
 11 12  1  0  0  0
 11100  1  0  0  0
 12 13  2  0  0  0
 12101  1  0  0  0
 13 14  1  0  0  0
 13 31  1  0  0  0
 14 15  2  0  0  0
 14102  1  0  0  0
 15103  1  0  0  0
 16 17  2  0  0  0
 16 21  1  0  0  0
 16 31  1  0  0  0
 17 18  1  0  0  0
 17104  1  0  0  0
 18 19  2  0  0  0
 18105  1  0  0  0
 19 20  1  0  0  0
 19 24  1  0  0  0
 20 21  2  0  0  0
 20106  1  0  0  0
 21 23  1  0  0  0
 22 28  1  0  0  0
 22 32  2  0  0  0
 26 27  1  0  0  0
 28107  1  0  0  0
 28108  1  0  0  0
 29109  1  0  0  0
 29110  1  0  0  0
 33 34  1  0  0  0
 33 66  1  0  0  0
 33 70  2  0  0  0
 34 36  1  0  0  0
 34 59  1  0  0  0
 34111  1  0  0  0
 35 44  2  0  0  0
 35 45  1  0  0  0
 35 68  1  0  0  0
 36 56  1  0  0  0
 36112  1  0  0  0
 37 39  1  0  0  0
 37 47  1  0  0  0
 37 66  1  0  0  0
 37113  1  0  0  0
 38 43  2  0  0  0
 38 46  1  0  0  0
 38 47  1  0  0  0
 39 64  1  0  0  0
 39 67  2  0  0  0
 40 52  1  0  0  0
 40 53  2  0  0  0
 40 58  1  0  0  0
 41114  1  0  0  0
 41115  1  0  0  0
 41116  1  0  0  0
 41 48  1  0  0  0
 42 43  1  0  0  0
 42 66  1  0  0  0
 42117  1  0  0  0
 42118  1  0  0  0
 43 44  1  0  0  0
 44119  1  0  0  0
 45 46  2  0  0  0
 45120  1  0  0  0
 46121  1  0  0  0
 47122  1  0  0  0
 47123  1  0  0  0
 48 56  1  0  0  0
 48 65  1  0  0  0
 48124  1  0  0  0
 49 50  1  0  0  0
 49 53  1  0  0  0
 49 64  1  0  0  0
 49125  1  0  0  0
 50 51  1  0  0  0
 50126  1  0  0  0
 50127  1  0  0  0
 51 52  1  0  0  0
 51128  1  0  0  0
 51129  1  0  0  0
 52130  1  0  0  0
 52131  1  0  0  0
 53 54  1  0  0  0
 54 55  2  0  0  0
 54132  1  0  0  0
 55 57  1  0  0  0
 55133  1  0  0  0
 56 69  2  0  0  0
 57 58  2  0  0  0
 57134  1  0  0  0
 58135  1  0  0  0
 59 60  1  0  0  0
 59 61  1  0  0  0
 59 62  1  0  0  0
 60136  1  0  0  0
 60137  1  0  0  0
 60138  1  0  0  0
 61139  1  0  0  0
 61140  1  0  0  0
 61141  1  0  0  0
 62142  1  0  0  0
 62143  1  0  0  0
 62144  1  0  0  0
 63 65  1  0  0  0
 63145  1  0  0  0
 63146  1  0  0  0
 63147  1  0  0  0
 64148  1  0  0  0
 65149  1  0  0  0
 68 84  1  0  0  0
 71 72  2  0  0  0
 71 87  1  0  0  0
 71150  1  0  0  0
 72 79  1  0  0  0
 72 88  1  0  0  0
 73 74  1  0  0  0
 73 78  1  0  0  0
 73 87  2  0  0  0
 74 85  1  0  0  0
 74 88  2  0  0  0
 75 80  1  0  0  0
 75151  1  0  0  0
 75152  1  0  0  0
 75153  1  0  0  0
 76154  1  0  0  0
 76155  1  0  0  0
 76156  1  0  0  0
 76 86  1  0  0  0
 77 86  1  0  0  0
 77157  1  0  0  0
 77158  1  0  0  0
 77159  1  0  0  0
 78 81  1  0  0  0
 78160  1  0  0  0
 78161  1  0  0  0
 79 89  1  0  0  0
 79162  1  0  0  0
 79163  1  0  0  0
 80 81  1  0  0  0
 80164  1  0  0  0
 80165  1  0  0  0
 81166  1  0  0  0
 81167  1  0  0  0
 82 84  1  0  0  0
 82168  1  0  0  0
 82169  1  0  0  0
 82 85  1  0  0  0
 83 86  1  0  0  0
 83 90  1  0  0  0
 83170  1  0  0  0
 83171  1  0  0  0
 84172  1  0  0  0
 84173  1  0  0  0
 85 90  1  0  0  0
 85174  1  0  0  0
 86175  1  0  0  0
 89176  1  0  0  0
 90177  1  0  0  0
 90178  1  0  0  0
M  CHG  1  90   1
M  ISO  4   1 100  68 101  84 101  89 100
M  END
> <chiral flag>
0

> <version>
0

> <s_m_source_file>
/data/baiqing/PycharmProjects/Reinvent-master-3.2/result/LINK_invent/BTK/process_docking_weight1_custom_sum_contain_oxygen_bond_distance_aromatic_linkinvent_7_9_3/rearranged_h_0092.sdf

> <i_m_source_file_index>
86

> <r_mmod_Potential_Energy-OPLS-2005>
69.2955322265625

> <r_mmod_Stretch_Energy-OPLS-2005>
150.351058959961

> <r_mmod_Bend_Energy-OPLS-2005>
221.384063720703

> <r_mmod_Torsional_Energy-OPLS-2005>
250.048477172852

> <r_mmod_Improper_Torsional_Energy-OPLS-2005>
9.38260841369629

> <r_mmod_Van_der_Waal_Energy-OPLS-2005>
135.607986450195

> <r_mmod_Electrostatic_Energy-OPLS-2005>
-324.163879394531

> <r_mmod_Solvation_Energy-OPLS-2005>
-466.299346923828

> <b_mmod_Minimization_Converged-OPLS-2005>
0

> <r_mmod_RMS_Derivative-OPLS-2005>
4.84537553787231

$$$$
88
                    3D
 Structure written by MMmdl.
150158  0  0  1  0            999 V2000
  -30.6715  -14.6207   20.5146 C   0  0  0  0  0  0
  -30.4349  -12.3897   19.4447 C   0  0  0  0  0  0
  -29.4970  -12.4584   18.2214 C   0  0  0  0  0  0
  -28.0349  -12.2735   18.6670 C   0  0  0  0  0  0
  -27.6479  -13.2028   19.8482 C   0  0  2  0  0  0
  -28.6932  -13.1147   20.9823 C   0  0  0  0  0  0
  -25.2569  -13.8126   20.5706 C   0  0  0  0  0  0
  -24.1822  -13.0407   20.9210 C   0  0  0  0  0  0
  -24.6359  -11.6867   20.8752 C   0  0  0  0  0  0
  -23.9054  -10.4249   21.0411 C   0  0  0  0  0  0
  -24.3615   -9.4158   21.9180 C   0  0  0  0  0  0
  -23.6274   -8.2203   22.0773 C   0  0  0  0  0  0
  -22.4242   -8.0257   21.3578 C   0  0  0  0  0  0
  -21.9871   -9.0241   20.4691 C   0  0  0  0  0  0
  -22.7214  -10.2112   20.3082 C   0  0  0  0  0  0
  -21.6830   -6.0726   22.5301 C   0  0  0  0  0  0
  -21.4001   -6.5634   23.8235 C   0  0  0  0  0  0
  -21.3657   -5.6790   24.9185 C   0  0  0  0  0  0
  -21.6041   -4.3056   24.7236 C   0  0  0  0  0  0
  -21.8805   -3.8142   23.4353 C   0  0  0  0  0  0
  -21.9176   -4.6958   22.3405 C   0  0  0  0  0  0
  -22.7853  -13.5240   21.1853 C   0  0  0  0  0  0
  -22.1641   -4.2153   21.0985 F   0  0  0  0  0  0
  -21.5627   -3.4536   25.7744 F   0  0  0  0  0  0
  -30.0050  -13.4333   20.3987 N   0  0  0  0  0  0
  -26.2957  -12.9279   20.3269 N   0  0  0  0  0  0
  -25.9280  -11.6464   20.5780 N   0  0  0  0  0  0
  -22.0470  -12.8298   22.0439 N   0  0  0  0  0  0
  -25.4275  -15.1855   20.4180 N   0  0  0  0  0  0
  -31.8476  -14.7320   20.1573 O   0  0  0  0  0  0
  -21.6614   -6.8851   21.4258 O   0  0  0  0  0  0
  -22.3555  -14.5535   20.6666 O   0  0  0  0  0  0
  -24.6249  -31.8617   23.2015 C   0  0  0  0  0  0
  -25.9102  -32.4787   23.8358 C   0  0  1  0  0  0
  -27.2205  -27.3070   20.1130 C   0  0  0  0  0  0
  -25.5920  -33.8588   24.2275 N   0  0  0  0  0  0
  -23.4202  -30.4835   21.5451 C   0  0  2  0  0  0
  -24.8686  -28.9406   20.1132 C   0  0  0  0  0  0
  -22.7489  -29.4628   22.4953 C   0  0  0  0  0  0
  -18.0290  -28.1368   22.8531 C   0  0  0  0  0  0
  -24.1490  -36.7282   23.2636 C   0  0  0  0  0  0
  -25.9663  -30.7820   21.3835 C   0  0  0  0  0  0
  -26.0380  -29.4095   20.7214 C   0  0  0  0  0  0
  -27.2161  -28.6027   20.7191 C   0  0  0  0  0  0
  -26.0274  -26.9072   19.4616 C   0  0  0  0  0  0
  -24.8638  -27.6921   19.4785 C   0  0  0  0  0  0
  -23.6379  -29.8202   20.1620 C   0  0  0  0  0  0
  -25.4117  -36.3085   24.0326 C   0  0  1  0  0  0
  -20.5892  -28.3688   23.1314 C   0  0  2  0  0  0
  -20.6795  -26.9423   22.5420 C   0  0  0  0  0  0
  -19.5744  -26.6380   21.5256 C   0  0  0  0  0  0
  -18.1927  -26.7918   22.1669 C   0  0  0  0  0  0
  -19.1540  -28.8851   23.2907 C   0  0  0  0  0  0
  -18.9467  -30.1469   23.8908 C   0  0  0  0  0  0
  -17.6464  -30.6591   24.0566 C   0  0  0  0  0  0
  -25.9064  -34.9458   23.5115 C   0  0  0  0  0  0
  -16.5358  -29.9094   23.6324 C   0  0  0  0  0  0
  -16.7275  -28.6491   23.0375 C   0  0  0  0  0  0
  -26.4481  -31.6579   25.0724 C   0  0  0  0  0  0
  -25.3715  -31.3774   26.1473 C   0  0  0  0  0  0
  -27.0309  -30.2981   24.6204 C   0  0  0  0  0  0
  -27.6039  -32.4344   25.7469 C   0  0  0  0  0  0
  -27.5583  -37.1786   24.8474 C   0  0  0  0  0  0
  -21.4202  -29.3039   22.3707 N   0  0  0  0  0  0
  -26.4285  -37.3785   23.9421 N   0  0  0  0  0  0
  -24.6884  -31.0611   22.0984 N   0  0  0  0  0  0
  -23.4221  -28.8184   23.3037 O   0  0  0  0  0  0
  -28.3248  -26.4354   20.1836 O   0  0  0  0  0  0
  -26.5643  -34.8933   22.4695 O   0  0  0  0  0  0
  -23.5416  -32.1464   23.7315 O   0  0  0  0  0  0
  -28.8803  -19.1030   21.5590 C   0  0  0  0  0  0
  -29.9189  -18.4350   20.8582 C   0  0  0  0  0  0
  -29.2189  -21.0238   20.2971 C   0  0  0  0  0  0
  -30.5275  -17.0535   21.3020 C   0  0  0  0  0  0
  -28.6618  -22.3900   19.7489 C   0  0  0  0  0  0
  -29.0668  -23.8236   20.3263 C   0  0  0  0  0  0
  -28.1081  -25.0054   19.8452 C   0  0  0  0  0  0
  -28.5307  -20.3956   21.2700 N   0  0  0  0  0  0
  -30.5786  -19.1485   19.8998 N   0  0  0  0  0  0
  -30.2283  -20.4302   19.6195 N   0  0  0  0  0  0
  -29.9565  -15.7220   20.8993 N   0  0  0  0  0  0
  -31.4712  -12.5152   19.1263 H   0  0  0  0  0  0
  -30.3864  -11.4060   19.9158 H   0  0  0  0  0  0
  -29.7639  -11.6792   17.5058 H   0  0  0  0  0  0
  -29.6190  -13.4103   17.7027 H   0  0  0  0  0  0
  -27.9289  -11.2327   18.9814 H   0  0  0  0  0  0
  -27.3555  -12.4038   17.8242 H   0  0  0  0  0  0
  -27.6573  -14.2204   19.4568 H   0  0  0  0  0  0
  -28.7066  -12.1172   21.4255 H   0  0  0  0  0  0
  -28.4407  -13.8004   21.7938 H   0  0  0  0  0  0
  -25.2761   -9.5605   22.4766 H   0  0  0  0  0  0
  -23.9974   -7.4581   22.7479 H   0  0  0  0  0  0
  -21.0797   -8.8775   19.9018 H   0  0  0  0  0  0
  -22.3666  -10.9668   19.6223 H   0  0  0  0  0  0
  -21.1996   -7.6151   23.9731 H   0  0  0  0  0  0
  -21.1500   -6.0526   25.9096 H   0  0  0  0  0  0
  -22.0584   -2.7611   23.2854 H   0  0  0  0  0  0
  -22.4083  -12.0018   22.4929 H   0  0  0  0  0  0
  -21.1119  -13.1420   22.2661 H   0  0  0  0  0  0
  -24.6550  -15.8318   20.5342 H   0  0  0  0  0  0
  -26.2682  -15.6310   20.0739 H   0  0  0  0  0  0
  -26.7154  -32.5436   23.1091 H   0  0  0  0  0  0
  -25.0017  -33.9767   25.0380 H   0  0  0  0  0  0
  -22.7096  -31.2986   21.3985 H   0  0  0  0  0  0
  -23.3751  -35.9615   23.3307 H   0  0  0  0  0  0
  -24.3580  -36.8909   22.2051 H   0  0  0  0  0  0
  -23.7240  -37.6479   23.6664 H   0  0  0  0  0  0
  -26.1089  -31.5405   20.6127 H   0  0  0  0  0  0
  -26.8443  -30.8253   22.0177 H   0  0  0  0  0  0
  -28.1102  -28.9539   21.2152 H   0  0  0  0  0  0
  -25.9435  -25.9644   18.9428 H   0  0  0  0  0  0
  -23.9668  -27.3211   19.0023 H   0  0  0  0  0  0
  -23.7676  -30.5965   19.4074 H   0  0  0  0  0  0
  -22.7594  -29.2521   19.8547 H   0  0  0  0  0  0
  -25.1275  -36.1933   25.0805 H   0  0  0  0  0  0
  -20.9964  -28.3269   24.1445 H   0  0  0  0  0  0
  -20.5774  -26.2300   23.3611 H   0  0  0  0  0  0
  -21.6650  -26.7514   22.1164 H   0  0  0  0  0  0
  -19.6920  -25.6301   21.1272 H   0  0  0  0  0  0
  -19.6651  -27.3213   20.6799 H   0  0  0  0  0  0
  -17.4202  -26.6704   21.4064 H   0  0  0  0  0  0
  -18.0309  -26.0042   22.9041 H   0  0  0  0  0  0
  -19.7942  -30.7283   24.2267 H   0  0  0  0  0  0
  -17.5021  -31.6264   24.5170 H   0  0  0  0  0  0
  -15.5365  -30.2988   23.7622 H   0  0  0  0  0  0
  -15.8682  -28.0788   22.7100 H   0  0  0  0  0  0
  -24.5767  -30.7295   25.7781 H   0  0  0  0  0  0
  -24.9068  -32.2995   26.4970 H   0  0  0  0  0  0
  -25.7996  -30.8825   27.0196 H   0  0  0  0  0  0
  -26.2904  -29.6747   24.1196 H   0  0  0  0  0  0
  -27.3950  -29.7222   25.4711 H   0  0  0  0  0  0
  -27.8795  -30.4227   23.9480 H   0  0  0  0  0  0
  -27.2596  -33.3592   26.2110 H   0  0  0  0  0  0
  -28.3763  -32.7022   25.0246 H   0  0  0  0  0  0
  -28.0816  -31.8471   26.5322 H   0  0  0  0  0  0
  -28.2583  -38.0091   24.7498 H   0  0  0  0  0  0
  -28.1071  -36.2614   24.6279 H   0  0  0  0  0  0
  -27.2321  -37.1440   25.8885 H   0  0  0  0  0  0
  -20.9385  -29.8714   21.6870 H   0  0  0  0  0  0
  -26.0154  -38.2850   24.1435 H   0  0  0  0  0  0
  -28.3577  -18.6188   22.3729 H   0  0  0  0  0  0
  -30.5173  -17.0530   22.3932 H   0  0  0  0  0  0
  -31.5869  -17.0794   21.0427 H   0  0  0  0  0  0
  -28.8844  -22.4072   18.6822 H   0  0  0  0  0  0
  -27.5754  -22.3042   19.7907 H   0  0  0  0  0  0
  -30.0988  -24.0397   20.0443 H   0  0  0  0  0  0
  -29.0583  -23.7826   21.4152 H   0  0  0  0  0  0
  -27.1261  -24.7126   20.2178 H   0  0  0  0  0  0
  -28.0559  -24.9620   18.7544 H   0  0  0  0  0  0
  -28.9822  -15.5658   21.1032 H   0  0  0  0  0  0
  1 25  1  0  0  0
  1 30  2  0  0  0
  1 81  1  0  0  0
  2  3  1  0  0  0
  2 25  1  0  0  0
  2 82  1  0  0  0
  2 83  1  0  0  0
  3  4  1  0  0  0
  3 84  1  0  0  0
  3 85  1  0  0  0
  4  5  1  0  0  0
  4 86  1  0  0  0
  4 87  1  0  0  0
  5  6  1  0  0  0
  5 26  1  0  0  0
  5 88  1  0  0  0
  6 25  1  0  0  0
  6 89  1  0  0  0
  6 90  1  0  0  0
  7  8  2  0  0  0
  7 26  1  0  0  0
  7 29  1  0  0  0
  8  9  1  0  0  0
  8 22  1  0  0  0
  9 10  1  0  0  0
  9 27  2  0  0  0
 10 11  2  0  0  0
 10 15  1  0  0  0
 11 12  1  0  0  0
 11 91  1  0  0  0
 12 13  2  0  0  0
 12 92  1  0  0  0
 13 14  1  0  0  0
 13 31  1  0  0  0
 14 15  2  0  0  0
 14 93  1  0  0  0
 15 94  1  0  0  0
 16 17  2  0  0  0
 16 21  1  0  0  0
 16 31  1  0  0  0
 17 18  1  0  0  0
 17 95  1  0  0  0
 18 19  2  0  0  0
 18 96  1  0  0  0
 19 20  1  0  0  0
 19 24  1  0  0  0
 20 21  2  0  0  0
 20 97  1  0  0  0
 21 23  1  0  0  0
 22 28  1  0  0  0
 22 32  2  0  0  0
 26 27  1  0  0  0
 28 98  1  0  0  0
 28 99  1  0  0  0
 29100  1  0  0  0
 29101  1  0  0  0
 33 34  1  0  0  0
 33 66  1  0  0  0
 33 70  2  0  0  0
 34 36  1  0  0  0
 34 59  1  0  0  0
 34102  1  0  0  0
 35 44  2  0  0  0
 35 45  1  0  0  0
 35 68  1  0  0  0
 36 56  1  0  0  0
 36103  1  0  0  0
 37 39  1  0  0  0
 37 47  1  0  0  0
 37 66  1  0  0  0
 37104  1  0  0  0
 38 43  2  0  0  0
 38 46  1  0  0  0
 38 47  1  0  0  0
 39 64  1  0  0  0
 39 67  2  0  0  0
 40 52  1  0  0  0
 40 53  2  0  0  0
 40 58  1  0  0  0
 41105  1  0  0  0
 41106  1  0  0  0
 41107  1  0  0  0
 41 48  1  0  0  0
 42 43  1  0  0  0
 42 66  1  0  0  0
 42108  1  0  0  0
 42109  1  0  0  0
 43 44  1  0  0  0
 44110  1  0  0  0
 45 46  2  0  0  0
 45111  1  0  0  0
 46112  1  0  0  0
 47113  1  0  0  0
 47114  1  0  0  0
 48 56  1  0  0  0
 48 65  1  0  0  0
 48115  1  0  0  0
 49 50  1  0  0  0
 49 53  1  0  0  0
 49 64  1  0  0  0
 49116  1  0  0  0
 50 51  1  0  0  0
 50117  1  0  0  0
 50118  1  0  0  0
 51 52  1  0  0  0
 51119  1  0  0  0
 51120  1  0  0  0
 52121  1  0  0  0
 52122  1  0  0  0
 53 54  1  0  0  0
 54 55  2  0  0  0
 54123  1  0  0  0
 55 57  1  0  0  0
 55124  1  0  0  0
 56 69  2  0  0  0
 57 58  2  0  0  0
 57125  1  0  0  0
 58126  1  0  0  0
 59 60  1  0  0  0
 59 61  1  0  0  0
 59 62  1  0  0  0
 60127  1  0  0  0
 60128  1  0  0  0
 60129  1  0  0  0
 61130  1  0  0  0
 61131  1  0  0  0
 61132  1  0  0  0
 62133  1  0  0  0
 62134  1  0  0  0
 62135  1  0  0  0
 63 65  1  0  0  0
 63136  1  0  0  0
 63137  1  0  0  0
 63138  1  0  0  0
 64139  1  0  0  0
 65140  1  0  0  0
 68 77  1  0  0  0
 71 72  2  0  0  0
 71 78  1  0  0  0
 71141  1  0  0  0
 72 74  1  0  0  0
 72 79  1  0  0  0
 73 75  1  0  0  0
 73 78  2  0  0  0
 73 80  1  0  0  0
 74 81  1  0  0  0
 74142  1  0  0  0
 74143  1  0  0  0
 75 76  1  0  0  0
 75144  1  0  0  0
 75145  1  0  0  0
 76 77  1  0  0  0
 76146  1  0  0  0
 76147  1  0  0  0
 77148  1  0  0  0
 77149  1  0  0  0
 79 80  2  0  0  0
 81150  1  0  0  0
M  ISO  4   1 100  68 101  77 101  81 100
M  END
> <chiral flag>
0

> <version>
0

> <s_m_source_file>
/data/baiqing/PycharmProjects/Reinvent-master-3.2/result/LINK_invent/BTK/process_docking_weight1_custom_sum_contain_oxygen_bond_distance_aromatic_linkinvent_7_9_3/rearranged_h_0092.sdf

> <i_m_source_file_index>
87

> <r_mmod_Potential_Energy-OPLS-2005>
-28.1204357147217

> <r_mmod_Stretch_Energy-OPLS-2005>
83.0767669677734

> <r_mmod_Bend_Energy-OPLS-2005>
153.344680786133

> <r_mmod_Torsional_Energy-OPLS-2005>
192.158981323242

> <r_mmod_Improper_Torsional_Energy-OPLS-2005>
6.11227130889893

> <r_mmod_Van_der_Waal_Energy-OPLS-2005>
157.788452148438

> <r_mmod_Electrostatic_Energy-OPLS-2005>
-424.605529785156

> <r_mmod_Solvation_Energy-OPLS-2005>
-250.657241821289

> <b_mmod_Minimization_Converged-OPLS-2005>
0

> <r_mmod_RMS_Derivative-OPLS-2005>
4.37889194488525

$$$$
89
                    3D
 Structure written by MMmdl.
167175  0  0  1  0            999 V2000
  -30.6899  -14.4554   20.5875 C   0  0  0  0  0  0
  -30.4254  -12.3169   19.3827 C   0  0  0  0  0  0
  -29.4798  -12.5129   18.1781 C   0  0  0  0  0  0
  -28.0066  -12.3581   18.6047 C   0  0  0  0  0  0
  -27.6595  -13.1958   19.8630 C   0  0  2  0  0  0
  -28.7041  -12.9557   20.9753 C   0  0  0  0  0  0
  -25.2612  -13.8153   20.5703 C   0  0  0  0  0  0
  -24.1851  -13.0437   20.9212 C   0  0  0  0  0  0
  -24.6373  -11.6894   20.8708 C   0  0  0  0  0  0
  -23.9028  -10.4299   21.0377 C   0  0  0  0  0  0
  -24.3599   -9.4232   21.9164 C   0  0  0  0  0  0
  -23.6319   -8.2245   22.0701 C   0  0  0  0  0  0
  -22.4312   -8.0255   21.3497 C   0  0  0  0  0  0
  -21.9929   -9.0223   20.4599 C   0  0  0  0  0  0
  -22.7209  -10.2131   20.3022 C   0  0  0  0  0  0
  -21.6855   -6.0754   22.5287 C   0  0  0  0  0  0
  -21.4011   -6.5649   23.8222 C   0  0  0  0  0  0
  -21.3656   -5.6789   24.9174 C   0  0  0  0  0  0
  -21.6036   -4.3058   24.7211 C   0  0  0  0  0  0
  -21.8822   -3.8157   23.4333 C   0  0  0  0  0  0
  -21.9204   -4.6989   22.3399 C   0  0  0  0  0  0
  -22.7861  -13.5206   21.1872 C   0  0  0  0  0  0
  -22.1658   -4.2164   21.0987 F   0  0  0  0  0  0
  -21.5624   -3.4526   25.7721 F   0  0  0  0  0  0
  -30.0326  -13.2764   20.4228 N   0  0  0  0  0  0
  -26.3017  -12.9277   20.3336 N   0  0  0  0  0  0
  -25.9296  -11.6444   20.5723 N   0  0  0  0  0  0
  -22.0515  -12.8175   22.0431 N   0  0  0  0  0  0
  -25.4417  -15.1882   20.4147 N   0  0  0  0  0  0
  -31.8113  -14.6829   20.1222 O   0  0  0  0  0  0
  -21.6641   -6.8885   21.4236 O   0  0  0  0  0  0
  -22.3517  -14.5494   20.6714 O   0  0  0  0  0  0
  -24.6126  -31.8684   23.2096 C   0  0  0  0  0  0
  -25.9018  -32.4825   23.8398 C   0  0  1  0  0  0
  -27.2311  -27.4461   20.1026 C   0  0  0  0  0  0
  -25.5891  -33.8611   24.2342 N   0  0  0  0  0  0
  -23.4025  -30.4906   21.5479 C   0  0  2  0  0  0
  -24.8505  -28.9584   20.1152 C   0  0  0  0  0  0
  -22.7405  -29.4639   22.4967 C   0  0  0  0  0  0
  -18.0300  -28.1403   22.8512 C   0  0  0  0  0  0
  -24.1489  -36.7304   23.2640 C   0  0  0  0  0  0
  -25.9280  -30.8420   21.3582 C   0  0  0  0  0  0
  -26.0089  -29.4745   20.7104 C   0  0  0  0  0  0
  -27.2049  -28.7235   20.7068 C   0  0  0  0  0  0
  -26.0637  -26.9401   19.4987 C   0  0  0  0  0  0
  -24.8730  -27.6905   19.5057 C   0  0  0  0  0  0
  -23.6107  -29.8218   20.1632 C   0  0  0  0  0  0
  -25.4102  -36.3093   24.0347 C   0  0  1  0  0  0
  -20.5885  -28.3662   23.1349 C   0  0  2  0  0  0
  -20.6793  -26.9399   22.5442 C   0  0  0  0  0  0
  -19.5767  -26.6407   21.5244 C   0  0  0  0  0  0
  -18.1940  -26.7969   22.1634 C   0  0  0  0  0  0
  -19.1545  -28.8858   23.2935 C   0  0  0  0  0  0
  -18.9460  -30.1472   23.8923 C   0  0  0  0  0  0
  -17.6455  -30.6604   24.0587 C   0  0  0  0  0  0
  -25.9031  -34.9473   23.5137 C   0  0  0  0  0  0
  -16.5349  -29.9106   23.6336 C   0  0  0  0  0  0
  -16.7287  -28.6538   23.0342 C   0  0  0  0  0  0
  -26.4476  -31.6591   25.0709 C   0  0  0  0  0  0
  -25.3735  -31.3704   26.1454 C   0  0  0  0  0  0
  -27.0326  -30.3057   24.6059 C   0  0  0  0  0  0
  -27.6070  -32.4302   25.7461 C   0  0  0  0  0  0
  -27.5580  -37.1803   24.8459 C   0  0  0  0  0  0
  -21.4149  -29.3016   22.3723 N   0  0  0  0  0  0
  -26.4287  -37.3777   23.9413 N   0  0  0  0  0  0
  -24.6653  -31.0811   22.0976 N   0  0  0  0  0  0
  -23.4203  -28.8188   23.2997 O   0  0  0  0  0  0
  -28.3711  -26.6786   20.1151 O   0  0  0  0  0  0
  -26.5571  -34.8919   22.4687 O   0  0  0  0  0  0
  -23.5320  -32.1392   23.7514 O   0  0  0  0  0  0
  -30.1798  -19.8132   21.6531 C   0  0  0  0  0  0
  -30.1337  -21.2080   21.8122 C   0  0  0  0  0  0
  -29.8172  -19.2383   20.4137 C   0  0  0  0  0  0
  -29.7270  -22.0120   20.7331 C   0  0  0  0  0  0
  -29.4049  -20.1312   19.3839 C   0  0  0  0  0  0
  -30.2579  -19.0863   15.8688 C   0  0  0  0  0  0
  -29.2317  -21.3951   16.1213 C   0  0  0  0  0  0
  -29.8411  -17.7115   20.2009 C   0  0  0  0  0  0
  -29.7711  -23.5385   20.8201 C   0  0  0  0  0  0
  -28.9594  -19.6696   17.9939 C   0  0  0  0  0  0
  -28.4013  -24.2432   20.6686 C   0  0  0  0  0  0
  -30.3217  -16.8235   21.3818 C   0  0  0  0  0  0
  -28.3914  -25.7073   21.1725 C   0  0  0  0  0  0
  -29.8730  -20.2013   16.8574 C   0  0  0  0  0  0
  -29.3599  -21.4740   19.5528 N   0  0  0  0  0  0
  -29.9673  -15.4144   21.1836 N   0  0  0  0  0  0
  -31.4602  -12.4584   19.0656 H   0  0  0  0  0  0
  -30.3555  -11.2945   19.7580 H   0  0  0  0  0  0
  -29.7192  -11.7933   17.3925 H   0  0  0  0  0  0
  -29.6324  -13.5009   17.7430 H   0  0  0  0  0  0
  -27.8315  -11.3017   18.8071 H   0  0  0  0  0  0
  -27.3432  -12.6259   17.7789 H   0  0  0  0  0  0
  -27.7112  -14.2472   19.5779 H   0  0  0  0  0  0
  -28.6866  -11.9116   21.2911 H   0  0  0  0  0  0
  -28.4556  -13.5296   21.8694 H   0  0  0  0  0  0
  -25.2734   -9.5733   22.4733 H   0  0  0  0  0  0
  -24.0051   -7.4630   22.7397 H   0  0  0  0  0  0
  -21.0856   -8.8717   19.8925 H   0  0  0  0  0  0
  -22.3626  -10.9658   19.6137 H   0  0  0  0  0  0
  -21.1990   -7.6157   23.9723 H   0  0  0  0  0  0
  -21.1470   -6.0520   25.9078 H   0  0  0  0  0  0
  -22.0620   -2.7620   23.2827 H   0  0  0  0  0  0
  -22.4111  -11.9838   22.4840 H   0  0  0  0  0  0
  -21.1104  -13.1143   22.2589 H   0  0  0  0  0  0
  -24.6886  -15.8585   20.5192 H   0  0  0  0  0  0
  -26.3000  -15.6160   20.0916 H   0  0  0  0  0  0
  -26.7076  -32.5561   23.1161 H   0  0  0  0  0  0
  -25.0063  -33.9779   25.0503 H   0  0  0  0  0  0
  -22.6875  -31.3034   21.4081 H   0  0  0  0  0  0
  -23.3752  -35.9633   23.3299 H   0  0  0  0  0  0
  -24.3578  -36.8915   22.2051 H   0  0  0  0  0  0
  -23.7252  -37.6517   23.6651 H   0  0  0  0  0  0
  -26.0289  -31.6109   20.5916 H   0  0  0  0  0  0
  -26.8172  -30.8997   21.9734 H   0  0  0  0  0  0
  -28.0980  -29.1120   21.1754 H   0  0  0  0  0  0
  -26.0768  -25.9648   19.0303 H   0  0  0  0  0  0
  -23.9804  -27.2897   19.0446 H   0  0  0  0  0  0
  -23.7109  -30.5935   19.3983 H   0  0  0  0  0  0
  -22.7387  -29.2348   19.8726 H   0  0  0  0  0  0
  -25.1280  -36.1953   25.0839 H   0  0  0  0  0  0
  -21.0006  -28.3250   24.1461 H   0  0  0  0  0  0
  -20.5761  -26.2244   23.3617 H   0  0  0  0  0  0
  -21.6655  -26.7487   22.1184 H   0  0  0  0  0  0
  -19.6919  -25.6334   21.1248 H   0  0  0  0  0  0
  -19.6748  -27.3249   20.6805 H   0  0  0  0  0  0
  -17.4237  -26.6774   21.4004 H   0  0  0  0  0  0
  -18.0291  -26.0102   22.9010 H   0  0  0  0  0  0
  -19.7925  -30.7305   24.2284 H   0  0  0  0  0  0
  -17.5004  -31.6276   24.5194 H   0  0  0  0  0  0
  -15.5347  -30.3005   23.7659 H   0  0  0  0  0  0
  -15.8698  -28.0879   22.6999 H   0  0  0  0  0  0
  -24.5911  -30.7051   25.7798 H   0  0  0  0  0  0
  -24.8917  -32.2858   26.4895 H   0  0  0  0  0  0
  -25.8078  -30.8882   27.0217 H   0  0  0  0  0  0
  -26.2880  -29.6788   24.1148 H   0  0  0  0  0  0
  -27.4175  -29.7321   25.4500 H   0  0  0  0  0  0
  -27.8662  -30.4426   23.9165 H   0  0  0  0  0  0
  -27.2721  -33.3589   26.2096 H   0  0  0  0  0  0
  -28.3858  -32.6870   25.0265 H   0  0  0  0  0  0
  -28.0763  -31.8373   26.5329 H   0  0  0  0  0  0
  -28.2593  -38.0103   24.7482 H   0  0  0  0  0  0
  -28.1079  -36.2630   24.6299 H   0  0  0  0  0  0
  -27.2290  -37.1463   25.8859 H   0  0  0  0  0  0
  -20.9308  -29.8673   21.6891 H   0  0  0  0  0  0
  -26.0180  -38.2855   24.1415 H   0  0  0  0  0  0
  -30.4945  -19.2032   22.4870 H   0  0  0  0  0  0
  -30.4370  -21.6486   22.7526 H   0  0  0  0  0  0
  -30.9138  -19.4587   15.0818 H   0  0  0  0  0  0
  -29.3794  -18.6556   15.3874 H   0  0  0  0  0  0
  -30.7899  -18.2813   16.3766 H   0  0  0  0  0  0
  -29.9108  -21.8196   15.3810 H   0  0  0  0  0  0
  -28.9718  -22.1984   16.8158 H   0  0  0  0  0  0
  -28.3219  -21.0961   15.5970 H   0  0  0  0  0  0
  -30.4860  -17.5032   19.3468 H   0  0  0  0  0  0
  -28.8352  -17.4026   19.9157 H   0  0  0  0  0  0
  -30.4797  -23.9253   20.0847 H   0  0  0  0  0  0
  -30.1844  -23.7982   21.7946 H   0  0  0  0  0  0
  -27.9256  -19.9786   17.8337 H   0  0  0  0  0  0
  -28.9161  -18.5850   17.9463 H   0  0  0  0  0  0
  -27.6739  -23.6833   21.2603 H   0  0  0  0  0  0
  -28.0489  -24.1819   19.6409 H   0  0  0  0  0  0
  -29.8319  -17.1084   22.3125 H   0  0  0  0  0  0
  -31.3984  -16.9341   21.5375 H   0  0  0  0  0  0
  -29.2696  -25.9068   21.7879 H   0  0  0  0  0  0
  -27.5440  -25.8397   21.8506 H   0  0  0  0  0  0
  -30.8099  -20.5414   17.3034 H   0  0  0  0  0  0
  -29.0428  -15.1368   21.4822 H   0  0  0  0  0  0
  1 25  1  0  0  0
  1 30  2  0  0  0
  1 86  1  0  0  0
  2  3  1  0  0  0
  2 25  1  0  0  0
  2 87  1  0  0  0
  2 88  1  0  0  0
  3  4  1  0  0  0
  3 89  1  0  0  0
  3 90  1  0  0  0
  4  5  1  0  0  0
  4 91  1  0  0  0
  4 92  1  0  0  0
  5  6  1  0  0  0
  5 26  1  0  0  0
  5 93  1  0  0  0
  6 25  1  0  0  0
  6 94  1  0  0  0
  6 95  1  0  0  0
  7  8  2  0  0  0
  7 26  1  0  0  0
  7 29  1  0  0  0
  8  9  1  0  0  0
  8 22  1  0  0  0
  9 10  1  0  0  0
  9 27  2  0  0  0
 10 11  2  0  0  0
 10 15  1  0  0  0
 11 12  1  0  0  0
 11 96  1  0  0  0
 12 13  2  0  0  0
 12 97  1  0  0  0
 13 14  1  0  0  0
 13 31  1  0  0  0
 14 15  2  0  0  0
 14 98  1  0  0  0
 15 99  1  0  0  0
 16 17  2  0  0  0
 16 21  1  0  0  0
 16 31  1  0  0  0
 17 18  1  0  0  0
 17100  1  0  0  0
 18 19  2  0  0  0
 18101  1  0  0  0
 19 20  1  0  0  0
 19 24  1  0  0  0
 20 21  2  0  0  0
 20102  1  0  0  0
 21 23  1  0  0  0
 22 28  1  0  0  0
 22 32  2  0  0  0
 26 27  1  0  0  0
 28103  1  0  0  0
 28104  1  0  0  0
 29105  1  0  0  0
 29106  1  0  0  0
 33 34  1  0  0  0
 33 66  1  0  0  0
 33 70  2  0  0  0
 34 36  1  0  0  0
 34 59  1  0  0  0
 34107  1  0  0  0
 35 44  2  0  0  0
 35 45  1  0  0  0
 35 68  1  0  0  0
 36 56  1  0  0  0
 36108  1  0  0  0
 37 39  1  0  0  0
 37 47  1  0  0  0
 37 66  1  0  0  0
 37109  1  0  0  0
 38 43  2  0  0  0
 38 46  1  0  0  0
 38 47  1  0  0  0
 39 64  1  0  0  0
 39 67  2  0  0  0
 40 52  1  0  0  0
 40 53  2  0  0  0
 40 58  1  0  0  0
 41110  1  0  0  0
 41111  1  0  0  0
 41112  1  0  0  0
 41 48  1  0  0  0
 42 43  1  0  0  0
 42 66  1  0  0  0
 42113  1  0  0  0
 42114  1  0  0  0
 43 44  1  0  0  0
 44115  1  0  0  0
 45 46  2  0  0  0
 45116  1  0  0  0
 46117  1  0  0  0
 47118  1  0  0  0
 47119  1  0  0  0
 48 56  1  0  0  0
 48 65  1  0  0  0
 48120  1  0  0  0
 49 50  1  0  0  0
 49 53  1  0  0  0
 49 64  1  0  0  0
 49121  1  0  0  0
 50 51  1  0  0  0
 50122  1  0  0  0
 50123  1  0  0  0
 51 52  1  0  0  0
 51124  1  0  0  0
 51125  1  0  0  0
 52126  1  0  0  0
 52127  1  0  0  0
 53 54  1  0  0  0
 54 55  2  0  0  0
 54128  1  0  0  0
 55 57  1  0  0  0
 55129  1  0  0  0
 56 69  2  0  0  0
 57 58  2  0  0  0
 57130  1  0  0  0
 58131  1  0  0  0
 59 60  1  0  0  0
 59 61  1  0  0  0
 59 62  1  0  0  0
 60132  1  0  0  0
 60133  1  0  0  0
 60134  1  0  0  0
 61135  1  0  0  0
 61136  1  0  0  0
 61137  1  0  0  0
 62138  1  0  0  0
 62139  1  0  0  0
 62140  1  0  0  0
 63 65  1  0  0  0
 63141  1  0  0  0
 63142  1  0  0  0
 63143  1  0  0  0
 64144  1  0  0  0
 65145  1  0  0  0
 68 83  1  0  0  0
 71 72  2  0  0  0
 71 73  1  0  0  0
 71146  1  0  0  0
 72 74  1  0  0  0
 72147  1  0  0  0
 73 75  2  0  0  0
 73 78  1  0  0  0
 74 79  1  0  0  0
 74 85  2  0  0  0
 75 80  1  0  0  0
 75 85  1  0  0  0
 76148  1  0  0  0
 76149  1  0  0  0
 76150  1  0  0  0
 76 84  1  0  0  0
 77 84  1  0  0  0
 77151  1  0  0  0
 77152  1  0  0  0
 77153  1  0  0  0
 78 82  1  0  0  0
 78154  1  0  0  0
 78155  1  0  0  0
 79 81  1  0  0  0
 79156  1  0  0  0
 79157  1  0  0  0
 80 84  1  0  0  0
 80158  1  0  0  0
 80159  1  0  0  0
 81 83  1  0  0  0
 81160  1  0  0  0
 81161  1  0  0  0
 82 86  1  0  0  0
 82162  1  0  0  0
 82163  1  0  0  0
 83164  1  0  0  0
 83165  1  0  0  0
 84166  1  0  0  0
 86167  1  0  0  0
M  ISO  4   1 100  68 101  83 101  86 100
M  END
> <chiral flag>
0

> <version>
0

> <s_m_source_file>
/data/baiqing/PycharmProjects/Reinvent-master-3.2/result/LINK_invent/BTK/process_docking_weight1_custom_sum_contain_oxygen_bond_distance_aromatic_linkinvent_7_9_3/rearranged_h_0092.sdf

> <i_m_source_file_index>
88

> <r_mmod_Potential_Energy-OPLS-2005>
-237.183731079102

> <r_mmod_Stretch_Energy-OPLS-2005>
37.2373123168945

> <r_mmod_Bend_Energy-OPLS-2005>
95.9275817871094

> <r_mmod_Torsional_Energy-OPLS-2005>
225.783203125

> <r_mmod_Improper_Torsional_Energy-OPLS-2005>
3.19636607170105

> <r_mmod_Van_der_Waal_Energy-OPLS-2005>
153.466506958008

> <r_mmod_Electrostatic_Energy-OPLS-2005>
-548.850219726562

> <r_mmod_Solvation_Energy-OPLS-2005>
-215.949310302734

> <b_mmod_Minimization_Converged-OPLS-2005>
0

> <r_mmod_RMS_Derivative-OPLS-2005>
4.70924663543701

$$$$
90
                    3D
 Structure written by MMmdl.
173182  0  0  1  0            999 V2000
  -30.6587  -14.5579   20.5601 C   0  0  0  0  0  0
  -30.4281  -12.3425   19.4921 C   0  0  0  0  0  0
  -29.5309  -12.5255   18.2529 C   0  0  0  0  0  0
  -28.0507  -12.3624   18.6493 C   0  0  0  0  0  0
  -27.6602  -13.2229   19.8839 C   0  0  2  0  0  0
  -28.6846  -13.0614   21.0317 C   0  0  0  0  0  0
  -25.2572  -13.8204   20.5680 C   0  0  0  0  0  0
  -24.1856  -13.0471   20.9205 C   0  0  0  0  0  0
  -24.6420  -11.6930   20.8752 C   0  0  0  0  0  0
  -23.9102  -10.4318   21.0421 C   0  0  0  0  0  0
  -24.3646   -9.4221   21.9201 C   0  0  0  0  0  0
  -23.6310   -8.2260   22.0754 C   0  0  0  0  0  0
  -22.4298   -8.0318   21.3543 C   0  0  0  0  0  0
  -21.9937   -9.0300   20.4652 C   0  0  0  0  0  0
  -22.7270  -10.2172   20.3068 C   0  0  0  0  0  0
  -21.6864   -6.0762   22.5288 C   0  0  0  0  0  0
  -21.4012   -6.5640   23.8224 C   0  0  0  0  0  0
  -21.3661   -5.6791   24.9184 C   0  0  0  0  0  0
  -21.6032   -4.3045   24.7223 C   0  0  0  0  0  0
  -21.8814   -3.8155   23.4334 C   0  0  0  0  0  0
  -21.9185   -4.6990   22.3411 C   0  0  0  0  0  0
  -22.7870  -13.5246   21.1868 C   0  0  0  0  0  0
  -22.1655   -4.2182   21.0989 F   0  0  0  0  0  0
  -21.5642   -3.4526   25.7729 F   0  0  0  0  0  0
  -30.0137  -13.3603   20.4782 N   0  0  0  0  0  0
  -26.2998  -12.9387   20.3354 N   0  0  0  0  0  0
  -25.9338  -11.6532   20.5754 N   0  0  0  0  0  0
  -22.0488  -12.8268   22.0416 N   0  0  0  0  0  0
  -25.4260  -15.1934   20.4064 N   0  0  0  0  0  0
  -31.8054  -14.7028   20.1224 O   0  0  0  0  0  0
  -21.6644   -6.8919   21.4249 O   0  0  0  0  0  0
  -22.3569  -14.5562   20.6715 O   0  0  0  0  0  0
  -24.6147  -31.8685   23.2038 C   0  0  0  0  0  0
  -25.9033  -32.4834   23.8372 C   0  0  1  0  0  0
  -27.2383  -27.4132   20.1085 C   0  0  0  0  0  0
  -25.5879  -33.8624   24.2324 N   0  0  0  0  0  0
  -23.4078  -30.4853   21.5474 C   0  0  2  0  0  0
  -24.8570  -28.9391   20.1230 C   0  0  0  0  0  0
  -22.7451  -29.4632   22.5002 C   0  0  0  0  0  0
  -18.0305  -28.1353   22.8527 C   0  0  0  0  0  0
  -24.1485  -36.7295   23.2634 C   0  0  0  0  0  0
  -25.9358  -30.8266   21.3591 C   0  0  0  0  0  0
  -26.0184  -29.4545   20.7117 C   0  0  0  0  0  0
  -27.2154  -28.7007   20.6967 C   0  0  0  0  0  0
  -26.0604  -26.9064   19.5244 C   0  0  0  0  0  0
  -24.8718  -27.6646   19.5287 C   0  0  0  0  0  0
  -23.6185  -29.8078   20.1662 C   0  0  0  0  0  0
  -25.4104  -36.3104   24.0340 C   0  0  1  0  0  0
  -20.5879  -28.3677   23.1376 C   0  0  2  0  0  0
  -20.6806  -26.9388   22.5525 C   0  0  0  0  0  0
  -19.5815  -26.6375   21.5282 C   0  0  0  0  0  0
  -18.1986  -26.7858   22.1731 C   0  0  0  0  0  0
  -19.1531  -28.8840   23.2905 C   0  0  0  0  0  0
  -18.9451  -30.1475   23.8854 C   0  0  0  0  0  0
  -17.6456  -30.6603   24.0469 C   0  0  0  0  0  0
  -25.9034  -34.9483   23.5127 C   0  0  0  0  0  0
  -16.5343  -29.9058   23.6296 C   0  0  0  0  0  0
  -16.7282  -28.6469   23.0367 C   0  0  0  0  0  0
  -26.4451  -31.6605   25.0706 C   0  0  0  0  0  0
  -25.3702  -31.3708   26.1450 C   0  0  0  0  0  0
  -27.0289  -30.3058   24.6063 C   0  0  0  0  0  0
  -27.6064  -32.4301   25.7448 C   0  0  0  0  0  0
  -27.5587  -37.1803   24.8476 C   0  0  0  0  0  0
  -21.4184  -29.3019   22.3749 N   0  0  0  0  0  0
  -26.4305  -37.3790   23.9401 N   0  0  0  0  0  0
  -24.6713  -31.0743   22.0958 N   0  0  0  0  0  0
  -23.4218  -28.8230   23.3084 O   0  0  0  0  0  0
  -28.4109  -26.6879   20.0601 O   0  0  0  0  0  0
  -26.5609  -34.8933   22.4697 O   0  0  0  0  0  0
  -23.5309  -32.1435   23.7428 O   0  0  0  0  0  0
  -29.8518  -19.4013   20.1533 C   0  0  0  0  0  0
  -29.5810  -18.2328   20.8342 C   0  0  0  0  0  0
  -27.8564  -19.6726   21.0790 C   0  0  0  0  0  0
  -25.1102  -21.7439   25.3706 C   0  0  0  0  0  0
  -26.6227  -21.6700   25.1141 C   0  0  0  0  0  0
  -24.4056  -20.5343   24.7396 C   0  0  0  0  0  0
  -26.9069  -21.5953   23.6086 C   0  0  0  0  0  0
  -24.6979  -20.4423   23.2332 C   0  0  0  0  0  0
  -26.2189  -20.3707   22.9631 C   0  0  0  0  0  0
  -30.4832  -17.0109   21.0275 C   0  0  0  0  0  0
  -26.5108  -20.2603   21.4529 C   0  0  0  0  0  0
  -28.6840  -22.8200   20.5213 C   0  0  0  0  0  0
  -28.3345  -24.1564   19.8098 C   0  0  0  0  0  0
  -28.6019  -21.5650   19.6099 C   0  0  0  0  0  0
  -28.4377  -25.4094   20.7271 C   0  0  0  0  0  0
  -28.7783  -20.2508   20.2903 N   0  0  0  0  0  0
  -28.3492  -18.4582   21.4169 N   0  3  0  0  0  0
  -29.9360  -15.6246   20.9932 N   0  0  0  0  0  0
  -31.4872  -12.4199   19.2286 H   0  0  0  0  0  0
  -30.3058  -11.3438   19.9088 H   0  0  0  0  0  0
  -29.8023  -11.8121   17.4747 H   0  0  0  0  0  0
  -29.6991  -13.5166   17.8300 H   0  0  0  0  0  0
  -27.8858  -11.3069   18.8719 H   0  0  0  0  0  0
  -27.4066  -12.6041   17.8056 H   0  0  0  0  0  0
  -27.6900  -14.2658   19.5631 H   0  0  0  0  0  0
  -28.6650  -12.0472   21.4332 H   0  0  0  0  0  0
  -28.4329  -13.7127   21.8745 H   0  0  0  0  0  0
  -25.2793   -9.5677   22.4774 H   0  0  0  0  0  0
  -24.0004   -7.4634   22.7464 H   0  0  0  0  0  0
  -21.0870   -8.8839   19.8953 H   0  0  0  0  0  0
  -22.3752  -10.9720   19.6183 H   0  0  0  0  0  0
  -21.1997   -7.6154   23.9744 H   0  0  0  0  0  0
  -21.1482   -6.0518   25.9097 H   0  0  0  0  0  0
  -22.0585   -2.7622   23.2829 H   0  0  0  0  0  0
  -22.4065  -11.9913   22.4820 H   0  0  0  0  0  0
  -21.1107  -13.1312   22.2586 H   0  0  0  0  0  0
  -24.6413  -15.8305   20.4754 H   0  0  0  0  0  0
  -26.2457  -15.6157   19.9882 H   0  0  0  0  0  0
  -26.7121  -32.5545   23.1150 H   0  0  0  0  0  0
  -25.0118  -33.9827   25.0526 H   0  0  0  0  0  0
  -22.6937  -31.2983   21.4019 H   0  0  0  0  0  0
  -23.3771  -35.9614   23.3330 H   0  0  0  0  0  0
  -24.3597  -36.8875   22.2044 H   0  0  0  0  0  0
  -23.7234  -37.6505   23.6620 H   0  0  0  0  0  0
  -26.0482  -31.5909   20.5885 H   0  0  0  0  0  0
  -26.8224  -30.8873   21.9775 H   0  0  0  0  0  0
  -28.1209  -29.1016   21.1348 H   0  0  0  0  0  0
  -26.0579  -25.9332   19.0575 H   0  0  0  0  0  0
  -23.9753  -27.2617   19.0775 H   0  0  0  0  0  0
  -23.7272  -30.5753   19.3992 H   0  0  0  0  0  0
  -22.7435  -29.2236   19.8736 H   0  0  0  0  0  0
  -25.1282  -36.2000   25.0839 H   0  0  0  0  0  0
  -20.9951  -28.3270   24.1504 H   0  0  0  0  0  0
  -20.5583  -26.2332   23.3762 H   0  0  0  0  0  0
  -21.6711  -26.7375   22.1458 H   0  0  0  0  0  0
  -19.7012  -25.6293   21.1339 H   0  0  0  0  0  0
  -19.6720  -27.3229   20.6838 H   0  0  0  0  0  0
  -17.4212  -26.6477   21.4198 H   0  0  0  0  0  0
  -18.0502  -26.0060   22.9203 H   0  0  0  0  0  0
  -19.7931  -30.7332   24.2176 H   0  0  0  0  0  0
  -17.4992  -31.6332   24.4996 H   0  0  0  0  0  0
  -15.5340  -30.2961   23.7567 H   0  0  0  0  0  0
  -15.8707  -28.0720   22.7114 H   0  0  0  0  0  0
  -24.5861  -30.7098   25.7746 H   0  0  0  0  0  0
  -24.8886  -32.2849   26.4909 H   0  0  0  0  0  0
  -25.8003  -30.8832   27.0211 H   0  0  0  0  0  0
  -26.2831  -29.6851   24.1080 H   0  0  0  0  0  0
  -27.4059  -29.7274   25.4512 H   0  0  0  0  0  0
  -27.8660  -30.4431   23.9231 H   0  0  0  0  0  0
  -27.2752  -33.3607   26.2081 H   0  0  0  0  0  0
  -28.3819  -32.6872   25.0218 H   0  0  0  0  0  0
  -28.0809  -31.8396   26.5296 H   0  0  0  0  0  0
  -28.2625  -38.0087   24.7512 H   0  0  0  0  0  0
  -28.1068  -36.2609   24.6309 H   0  0  0  0  0  0
  -27.2315  -37.1486   25.8895 H   0  0  0  0  0  0
  -20.9383  -29.8691   21.6902 H   0  0  0  0  0  0
  -26.0208  -38.2886   24.1379 H   0  0  0  0  0  0
  -30.7237  -19.6844   19.5747 H   0  0  0  0  0  0
  -24.7091  -22.6672   24.9489 H   0  0  0  0  0  0
  -24.9069  -21.7816   26.4414 H   0  0  0  0  0  0
  -27.0377  -20.7905   25.6094 H   0  0  0  0  0  0
  -27.1236  -22.5341   25.5498 H   0  0  0  0  0  0
  -23.3308  -20.5873   24.9140 H   0  0  0  0  0  0
  -24.7520  -19.6253   25.2289 H   0  0  0  0  0  0
  -27.9821  -21.5677   23.4397 H   0  0  0  0  0  0
  -26.5501  -22.5126   23.1397 H   0  0  0  0  0  0
  -24.2595  -21.2996   22.7191 H   0  0  0  0  0  0
  -24.2014  -19.5620   22.8259 H   0  0  0  0  0  0
  -26.5848  -19.4681   23.4529 H   0  0  0  0  0  0
  -31.0171  -17.1354   21.9634 H   0  0  0  0  0  0
  -31.2491  -17.0936   20.2523 H   0  0  0  0  0  0
  -25.7719  -19.6449   20.9432 H   0  0  0  0  0  0
  -26.4214  -21.2538   21.0173 H   0  0  0  0  0  0
  -29.6857  -22.8814   20.9447 H   0  0  0  0  0  0
  -28.0197  -22.7180   21.3731 H   0  0  0  0  0  0
  -27.3288  -24.0848   19.3894 H   0  0  0  0  0  0
  -29.0068  -24.2787   18.9632 H   0  0  0  0  0  0
  -29.3571  -21.6318   18.8276 H   0  0  0  0  0  0
  -27.6445  -21.5322   19.0901 H   0  0  0  0  0  0
  -29.3996  -25.3653   21.2420 H   0  0  0  0  0  0
  -27.6840  -25.3616   21.5150 H   0  0  0  0  0  0
  -27.8807  -17.8133   22.0422 H   0  0  0  0  0  0
  -29.0123  -15.4499   21.3617 H   0  0  0  0  0  0
  1 25  1  0  0  0
  1 30  2  0  0  0
  1 88  1  0  0  0
  2  3  1  0  0  0
  2 25  1  0  0  0
  2 89  1  0  0  0
  2 90  1  0  0  0
  3  4  1  0  0  0
  3 91  1  0  0  0
  3 92  1  0  0  0
  4  5  1  0  0  0
  4 93  1  0  0  0
  4 94  1  0  0  0
  5  6  1  0  0  0
  5 26  1  0  0  0
  5 95  1  0  0  0
  6 25  1  0  0  0
  6 96  1  0  0  0
  6 97  1  0  0  0
  7  8  2  0  0  0
  7 26  1  0  0  0
  7 29  1  0  0  0
  8  9  1  0  0  0
  8 22  1  0  0  0
  9 10  1  0  0  0
  9 27  2  0  0  0
 10 11  2  0  0  0
 10 15  1  0  0  0
 11 12  1  0  0  0
 11 98  1  0  0  0
 12 13  2  0  0  0
 12 99  1  0  0  0
 13 14  1  0  0  0
 13 31  1  0  0  0
 14 15  2  0  0  0
 14100  1  0  0  0
 15101  1  0  0  0
 16 17  2  0  0  0
 16 21  1  0  0  0
 16 31  1  0  0  0
 17 18  1  0  0  0
 17102  1  0  0  0
 18 19  2  0  0  0
 18103  1  0  0  0
 19 20  1  0  0  0
 19 24  1  0  0  0
 20 21  2  0  0  0
 20104  1  0  0  0
 21 23  1  0  0  0
 22 28  1  0  0  0
 22 32  2  0  0  0
 26 27  1  0  0  0
 28105  1  0  0  0
 28106  1  0  0  0
 29107  1  0  0  0
 29108  1  0  0  0
 33 34  1  0  0  0
 33 66  1  0  0  0
 33 70  2  0  0  0
 34 36  1  0  0  0
 34 59  1  0  0  0
 34109  1  0  0  0
 35 44  2  0  0  0
 35 45  1  0  0  0
 35 68  1  0  0  0
 36 56  1  0  0  0
 36110  1  0  0  0
 37 39  1  0  0  0
 37 47  1  0  0  0
 37 66  1  0  0  0
 37111  1  0  0  0
 38 43  2  0  0  0
 38 46  1  0  0  0
 38 47  1  0  0  0
 39 64  1  0  0  0
 39 67  2  0  0  0
 40 52  1  0  0  0
 40 53  2  0  0  0
 40 58  1  0  0  0
 41112  1  0  0  0
 41113  1  0  0  0
 41114  1  0  0  0
 41 48  1  0  0  0
 42 43  1  0  0  0
 42 66  1  0  0  0
 42115  1  0  0  0
 42116  1  0  0  0
 43 44  1  0  0  0
 44117  1  0  0  0
 45 46  2  0  0  0
 45118  1  0  0  0
 46119  1  0  0  0
 47120  1  0  0  0
 47121  1  0  0  0
 48 56  1  0  0  0
 48 65  1  0  0  0
 48122  1  0  0  0
 49 50  1  0  0  0
 49 53  1  0  0  0
 49 64  1  0  0  0
 49123  1  0  0  0
 50 51  1  0  0  0
 50124  1  0  0  0
 50125  1  0  0  0
 51 52  1  0  0  0
 51126  1  0  0  0
 51127  1  0  0  0
 52128  1  0  0  0
 52129  1  0  0  0
 53 54  1  0  0  0
 54 55  2  0  0  0
 54130  1  0  0  0
 55 57  1  0  0  0
 55131  1  0  0  0
 56 69  2  0  0  0
 57 58  2  0  0  0
 57132  1  0  0  0
 58133  1  0  0  0
 59 60  1  0  0  0
 59 61  1  0  0  0
 59 62  1  0  0  0
 60134  1  0  0  0
 60135  1  0  0  0
 60136  1  0  0  0
 61137  1  0  0  0
 61138  1  0  0  0
 61139  1  0  0  0
 62140  1  0  0  0
 62141  1  0  0  0
 62142  1  0  0  0
 63 65  1  0  0  0
 63143  1  0  0  0
 63144  1  0  0  0
 63145  1  0  0  0
 64146  1  0  0  0
 65147  1  0  0  0
 68 85  1  0  0  0
 71 72  2  0  0  0
 71 86  1  0  0  0
 71148  1  0  0  0
 72 80  1  0  0  0
 72 87  1  0  0  0
 73 81  1  0  0  0
 73 86  1  0  0  0
 73 87  2  0  0  0
 74 75  1  0  0  0
 74 76  1  0  0  0
 74149  1  0  0  0
 74150  1  0  0  0
 75 77  1  0  0  0
 75151  1  0  0  0
 75152  1  0  0  0
 76 78  1  0  0  0
 76153  1  0  0  0
 76154  1  0  0  0
 77 79  1  0  0  0
 77155  1  0  0  0
 77156  1  0  0  0
 78 79  1  0  0  0
 78157  1  0  0  0
 78158  1  0  0  0
 79 81  1  0  0  0
 79159  1  0  0  0
 80 88  1  0  0  0
 80160  1  0  0  0
 80161  1  0  0  0
 81162  1  0  0  0
 81163  1  0  0  0
 82 83  1  0  0  0
 82 84  1  0  0  0
 82164  1  0  0  0
 82165  1  0  0  0
 83 85  1  0  0  0
 83166  1  0  0  0
 83167  1  0  0  0
 84 86  1  0  0  0
 84168  1  0  0  0
 84169  1  0  0  0
 85170  1  0  0  0
 85171  1  0  0  0
 87172  1  0  0  0
 88173  1  0  0  0
M  CHG  1  87   1
M  ISO  4   1 100  68 101  85 101  88 100
M  END
> <chiral flag>
0

> <version>
0

> <s_m_source_file>
/data/baiqing/PycharmProjects/Reinvent-master-3.2/result/LINK_invent/BTK/process_docking_weight1_custom_sum_contain_oxygen_bond_distance_aromatic_linkinvent_7_9_3/rearranged_h_0092.sdf

> <i_m_source_file_index>
89

> <r_mmod_Potential_Energy-OPLS-2005>
-119.531692504883

> <r_mmod_Stretch_Energy-OPLS-2005>
45.4622039794922

> <r_mmod_Bend_Energy-OPLS-2005>
114.305366516113

> <r_mmod_Torsional_Energy-OPLS-2005>
258.013946533203

> <r_mmod_Improper_Torsional_Energy-OPLS-2005>
4.73937559127808

> <r_mmod_Van_der_Waal_Energy-OPLS-2005>
123.44083404541

> <r_mmod_Electrostatic_Energy-OPLS-2005>
-263.484649658203

> <r_mmod_Solvation_Energy-OPLS-2005>
-424.239318847656

> <b_mmod_Minimization_Converged-OPLS-2005>
0

> <r_mmod_RMS_Derivative-OPLS-2005>
7.05631351470947

$$$$
91
                    3D
 Structure written by MMmdl.
161168  0  0  1  0            999 V2000
  -30.6004  -14.8878   20.4352 C   0  0  0  0  0  0
  -30.4398  -12.5444   19.5119 C   0  0  0  0  0  0
  -29.5218  -12.5309   18.2669 C   0  0  0  0  0  0
  -28.0571  -12.3199   18.6907 C   0  0  0  0  0  0
  -27.6403  -13.2478   19.8607 C   0  0  2  0  0  0
  -28.6888  -13.2729   21.0000 C   0  0  0  0  0  0
  -25.2356  -13.8036   20.5533 C   0  0  0  0  0  0
  -24.1737  -13.0307   20.9199 C   0  0  0  0  0  0
  -24.6451  -11.6847   20.8828 C   0  0  0  0  0  0
  -23.9151  -10.4236   21.0458 C   0  0  0  0  0  0
  -24.3671   -9.4152   21.9238 C   0  0  0  0  0  0
  -23.6309   -8.2211   22.0795 C   0  0  0  0  0  0
  -22.4289   -8.0287   21.3573 C   0  0  0  0  0  0
  -21.9960   -9.0279   20.4683 C   0  0  0  0  0  0
  -22.7330  -10.2126   20.3099 C   0  0  0  0  0  0
  -21.6841   -6.0763   22.5286 C   0  0  0  0  0  0
  -21.4002   -6.5664   23.8225 C   0  0  0  0  0  0
  -21.3648   -5.6807   24.9187 C   0  0  0  0  0  0
  -21.6044   -4.3075   24.7218 C   0  0  0  0  0  0
  -21.8820   -3.8177   23.4341 C   0  0  0  0  0  0
  -21.9184   -4.6994   22.3403 C   0  0  0  0  0  0
  -22.7767  -13.5111   21.1858 C   0  0  0  0  0  0
  -22.1660   -4.2192   21.0975 F   0  0  0  0  0  0
  -21.5621   -3.4552   25.7735 F   0  0  0  0  0  0
  -29.9802  -13.6426   20.4082 N   0  0  0  0  0  0
  -26.2953  -12.9400   20.3382 N   0  0  0  0  0  0
  -25.9420  -11.6534   20.5965 N   0  0  0  0  0  0
  -22.0452  -12.8108   22.0450 N   0  0  0  0  0  0
  -25.3712  -15.1664   20.3551 N   0  0  0  0  0  0
  -31.7786  -14.9552   20.0804 O   0  0  0  0  0  0
  -21.6636   -6.8908   21.4255 O   0  0  0  0  0  0
  -22.3459  -14.5443   20.6764 O   0  0  0  0  0  0
  -24.6411  -31.8426   23.1907 C   0  0  0  0  0  0
  -25.9184  -32.4706   23.8295 C   0  0  1  0  0  0
  -27.2158  -27.1677   20.1587 C   0  0  0  0  0  0
  -25.5916  -33.8497   24.2185 N   0  0  0  0  0  0
  -23.4438  -30.4621   21.5360 C   0  0  2  0  0  0
  -24.8947  -28.9004   20.1061 C   0  0  0  0  0  0
  -22.7584  -29.4498   22.4879 C   0  0  0  0  0  0
  -18.0287  -28.1382   22.8438 C   0  0  0  0  0  0
  -24.1499  -36.7307   23.2643 C   0  0  0  0  0  0
  -25.9956  -30.7363   21.3760 C   0  0  0  0  0  0
  -26.0708  -29.3483   20.7212 C   0  0  0  0  0  0
  -27.2327  -28.4959   20.7348 C   0  0  0  0  0  0
  -26.0126  -26.8124   19.5040 C   0  0  0  0  0  0
  -24.8749  -27.6463   19.4795 C   0  0  0  0  0  0
  -23.6679  -29.7942   20.1525 C   0  0  0  0  0  0
  -25.4120  -36.3037   24.0313 C   0  0  1  0  0  0
  -20.5896  -28.3690   23.1255 C   0  0  2  0  0  0
  -20.6769  -26.9388   22.5430 C   0  0  0  0  0  0
  -19.5758  -26.6365   21.5223 C   0  0  0  0  0  0
  -18.1915  -26.7923   22.1606 C   0  0  0  0  0  0
  -19.1552  -28.8863   23.2815 C   0  0  0  0  0  0
  -18.9469  -30.1455   23.8837 C   0  0  0  0  0  0
  -17.6467  -30.6569   24.0553 C   0  0  0  0  0  0
  -25.9052  -34.9408   23.5052 C   0  0  0  0  0  0
  -16.5351  -29.9075   23.6333 C   0  0  0  0  0  0
  -16.7277  -28.6524   23.0304 C   0  0  0  0  0  0
  -26.4489  -31.6556   25.0724 C   0  0  0  0  0  0
  -25.3664  -31.3723   26.1412 C   0  0  0  0  0  0
  -27.0312  -30.2957   24.6231 C   0  0  0  0  0  0
  -27.6026  -32.4316   25.7515 C   0  0  0  0  0  0
  -27.5579  -37.1797   24.8463 C   0  0  0  0  0  0
  -21.4278  -29.3030   22.3672 N   0  0  0  0  0  0
  -26.4293  -37.3743   23.9396 N   0  0  0  0  0  0
  -24.7142  -31.0354   22.0915 N   0  0  0  0  0  0
  -23.4265  -28.8003   23.2962 O   0  0  0  0  0  0
  -28.2785  -26.2054   20.2314 O   0  0  0  0  0  0
  -26.5686  -34.8921   22.4668 O   0  0  0  0  0  0
  -23.5542  -32.1269   23.7179 O   0  0  0  0  0  0
  -27.5364  -19.2359   22.6755 C   0  0  0  0  0  0
  -27.1753  -17.4756   20.9445 C   0  0  0  0  0  0
  -30.2502  -20.4853   18.9878 C   0  0  0  0  0  0
  -29.0738  -23.4469   20.4169 C   0  0  0  0  0  0
  -28.6692  -21.8285   20.5469 C   0  0  0  0  0  0
  -30.0796  -17.5605   20.2185 C   0  0  0  0  0  0
  -27.9804  -24.6907   20.2248 C   0  0  0  0  0  0
  -27.8437  -18.8203   21.2213 C   0  0  0  0  0  0
  -29.7073  -20.5095   20.4227 C   0  0  1  0  0  0
  -29.3662  -18.9254   20.9109 C   0  0  2  0  0  0
  -29.8489  -16.0633   20.6458 N   0  0  0  0  0  0
  -31.4807  -12.6625   19.2097 H   0  0  0  0  0  0
  -30.3966  -11.5888   20.0358 H   0  0  0  0  0  0
  -29.8300  -11.7477   17.5734 H   0  0  0  0  0  0
  -29.6179  -13.4756   17.7309 H   0  0  0  0  0  0
  -27.9502  -11.2781   18.9955 H   0  0  0  0  0  0
  -27.3900  -12.4626   17.8413 H   0  0  0  0  0  0
  -27.6072  -14.2551   19.4426 H   0  0  0  0  0  0
  -28.7570  -12.3108   21.5092 H   0  0  0  0  0  0
  -28.4041  -14.0041   21.7583 H   0  0  0  0  0  0
  -25.2813   -9.5610   22.4824 H   0  0  0  0  0  0
  -24.0012   -7.4588   22.7501 H   0  0  0  0  0  0
  -21.0905   -8.8838   19.8957 H   0  0  0  0  0  0
  -22.3841  -10.9696   19.6214 H   0  0  0  0  0  0
  -21.2001   -7.6170   23.9739 H   0  0  0  0  0  0
  -21.1461   -6.0538   25.9085 H   0  0  0  0  0  0
  -22.0604   -2.7644   23.2828 H   0  0  0  0  0  0
  -22.4086  -11.9709   22.4710 H   0  0  0  0  0  0
  -21.1132  -13.1186   22.2815 H   0  0  0  0  0  0
  -24.5786  -15.7944   20.4280 H   0  0  0  0  0  0
  -26.2188  -15.6278   20.0556 H   0  0  0  0  0  0
  -26.7268  -32.5352   23.1049 H   0  0  0  0  0  0
  -24.9943  -33.9606   25.0250 H   0  0  0  0  0  0
  -22.7440  -31.2855   21.3804 H   0  0  0  0  0  0
  -23.3735  -35.9659   23.3286 H   0  0  0  0  0  0
  -24.3584  -36.8981   22.2063 H   0  0  0  0  0  0
  -23.7298  -37.6509   23.6703 H   0  0  0  0  0  0
  -26.1255  -31.4892   20.5956 H   0  0  0  0  0  0
  -26.8788  -30.8037   22.0007 H   0  0  0  0  0  0
  -28.1276  -28.8237   21.2478 H   0  0  0  0  0  0
  -25.9152  -25.8519   19.0205 H   0  0  0  0  0  0
  -23.9717  -27.3007   18.9918 H   0  0  0  0  0  0
  -23.7975  -30.5688   19.3958 H   0  0  0  0  0  0
  -22.7867  -29.2264   19.8438 H   0  0  0  0  0  0
  -25.1284  -36.1872   25.0807 H   0  0  0  0  0  0
  -20.9923  -28.3267   24.1407 H   0  0  0  0  0  0
  -20.5671  -26.2271   23.3636 H   0  0  0  0  0  0
  -21.6632  -26.7401   22.1199 H   0  0  0  0  0  0
  -19.6919  -25.6284   21.1251 H   0  0  0  0  0  0
  -19.6724  -27.3185   20.6752 H   0  0  0  0  0  0
  -17.4197  -26.6668   21.3997 H   0  0  0  0  0  0
  -18.0268  -26.0085   22.9019 H   0  0  0  0  0  0
  -19.7962  -30.7246   24.2204 H   0  0  0  0  0  0
  -17.5047  -31.6264   24.5156 H   0  0  0  0  0  0
  -15.5358  -30.2947   23.7731 H   0  0  0  0  0  0
  -15.8670  -28.0869   22.6973 H   0  0  0  0  0  0
  -24.6000  -30.6859   25.7809 H   0  0  0  0  0  0
  -24.8644  -32.2842   26.4628 H   0  0  0  0  0  0
  -25.7964  -30.9147   27.0330 H   0  0  0  0  0  0
  -26.2876  -29.6729   24.1223 H   0  0  0  0  0  0
  -27.3920  -29.7194   25.4753 H   0  0  0  0  0  0
  -27.8793  -30.4201   23.9491 H   0  0  0  0  0  0
  -27.2643  -33.3719   26.1891 H   0  0  0  0  0  0
  -28.3927  -32.6689   25.0393 H   0  0  0  0  0  0
  -28.0536  -31.8541   26.5598 H   0  0  0  0  0  0
  -28.2536  -38.0131   24.7476 H   0  0  0  0  0  0
  -28.1093  -36.2633   24.6274 H   0  0  0  0  0  0
  -27.2271  -37.1444   25.8858 H   0  0  0  0  0  0
  -20.9503  -29.8869   21.6959 H   0  0  0  0  0  0
  -26.0151  -38.2810   24.1423 H   0  0  0  0  0  0
  -26.4688  -19.3991   22.8303 H   0  0  0  0  0  0
  -28.0505  -20.1525   22.9590 H   0  0  0  0  0  0
  -27.8632  -18.4697   23.3801 H   0  0  0  0  0  0
  -26.1052  -17.5568   21.1434 H   0  0  0  0  0  0
  -27.5443  -16.6814   21.5919 H   0  0  0  0  0  0
  -27.2970  -17.1796   19.9023 H   0  0  0  0  0  0
  -30.6395  -21.4627   18.6969 H   0  0  0  0  0  0
  -29.4660  -20.2173   18.2806 H   0  0  0  0  0  0
  -31.0686  -19.7723   18.8735 H   0  0  0  0  0  0
  -29.7740  -23.5390   19.5894 H   0  0  0  0  0  0
  -29.6552  -23.6866   21.3068 H   0  0  0  0  0  0
  -27.8905  -21.6583   19.8065 H   0  0  0  0  0  0
  -28.1494  -21.7526   21.4973 H   0  0  0  0  0  0
  -31.1572  -17.7206   20.2219 H   0  0  0  0  0  0
  -29.8180  -17.5832   19.1594 H   0  0  0  0  0  0
  -27.2123  -24.5455   20.9852 H   0  0  0  0  0  0
  -27.4861  -24.4686   19.2791 H   0  0  0  0  0  0
  -27.3374  -19.5197   20.5560 H   0  0  0  0  0  0
  -30.5568  -20.7929   21.0434 H   0  0  0  0  0  0
  -29.8272  -18.8823   21.9001 H   0  0  0  0  0  0
  -28.9125  -15.8744   20.9661 H   0  0  0  0  0  0
  1 25  1  0  0  0
  1 30  2  0  0  0
  1 81  1  0  0  0
  2  3  1  0  0  0
  2 25  1  0  0  0
  2 82  1  0  0  0
  2 83  1  0  0  0
  3  4  1  0  0  0
  3 84  1  0  0  0
  3 85  1  0  0  0
  4  5  1  0  0  0
  4 86  1  0  0  0
  4 87  1  0  0  0
  5  6  1  0  0  0
  5 26  1  0  0  0
  5 88  1  0  0  0
  6 25  1  0  0  0
  6 89  1  0  0  0
  6 90  1  0  0  0
  7  8  2  0  0  0
  7 26  1  0  0  0
  7 29  1  0  0  0
  8  9  1  0  0  0
  8 22  1  0  0  0
  9 10  1  0  0  0
  9 27  2  0  0  0
 10 11  2  0  0  0
 10 15  1  0  0  0
 11 12  1  0  0  0
 11 91  1  0  0  0
 12 13  2  0  0  0
 12 92  1  0  0  0
 13 14  1  0  0  0
 13 31  1  0  0  0
 14 15  2  0  0  0
 14 93  1  0  0  0
 15 94  1  0  0  0
 16 17  2  0  0  0
 16 21  1  0  0  0
 16 31  1  0  0  0
 17 18  1  0  0  0
 17 95  1  0  0  0
 18 19  2  0  0  0
 18 96  1  0  0  0
 19 20  1  0  0  0
 19 24  1  0  0  0
 20 21  2  0  0  0
 20 97  1  0  0  0
 21 23  1  0  0  0
 22 28  1  0  0  0
 22 32  2  0  0  0
 26 27  1  0  0  0
 28 98  1  0  0  0
 28 99  1  0  0  0
 29100  1  0  0  0
 29101  1  0  0  0
 33 34  1  0  0  0
 33 66  1  0  0  0
 33 70  2  0  0  0
 34 36  1  0  0  0
 34 59  1  0  0  0
 34102  1  0  0  0
 35 44  2  0  0  0
 35 45  1  0  0  0
 35 68  1  0  0  0
 36 56  1  0  0  0
 36103  1  0  0  0
 37 39  1  0  0  0
 37 47  1  0  0  0
 37 66  1  0  0  0
 37104  1  0  0  0
 38 43  2  0  0  0
 38 46  1  0  0  0
 38 47  1  0  0  0
 39 64  1  0  0  0
 39 67  2  0  0  0
 40 52  1  0  0  0
 40 53  2  0  0  0
 40 58  1  0  0  0
 41105  1  0  0  0
 41106  1  0  0  0
 41107  1  0  0  0
 41 48  1  0  0  0
 42 43  1  0  0  0
 42 66  1  0  0  0
 42108  1  0  0  0
 42109  1  0  0  0
 43 44  1  0  0  0
 44110  1  0  0  0
 45 46  2  0  0  0
 45111  1  0  0  0
 46112  1  0  0  0
 47113  1  0  0  0
 47114  1  0  0  0
 48 56  1  0  0  0
 48 65  1  0  0  0
 48115  1  0  0  0
 49 50  1  0  0  0
 49 53  1  0  0  0
 49 64  1  0  0  0
 49116  1  0  0  0
 50 51  1  0  0  0
 50117  1  0  0  0
 50118  1  0  0  0
 51 52  1  0  0  0
 51119  1  0  0  0
 51120  1  0  0  0
 52121  1  0  0  0
 52122  1  0  0  0
 53 54  1  0  0  0
 54 55  2  0  0  0
 54123  1  0  0  0
 55 57  1  0  0  0
 55124  1  0  0  0
 56 69  2  0  0  0
 57 58  2  0  0  0
 57125  1  0  0  0
 58126  1  0  0  0
 59 60  1  0  0  0
 59 61  1  0  0  0
 59 62  1  0  0  0
 60127  1  0  0  0
 60128  1  0  0  0
 60129  1  0  0  0
 61130  1  0  0  0
 61131  1  0  0  0
 61132  1  0  0  0
 62133  1  0  0  0
 62134  1  0  0  0
 62135  1  0  0  0
 63 65  1  0  0  0
 63136  1  0  0  0
 63137  1  0  0  0
 63138  1  0  0  0
 64139  1  0  0  0
 65140  1  0  0  0
 68 77  1  0  0  0
 71141  1  0  0  0
 71142  1  0  0  0
 71143  1  0  0  0
 71 78  1  0  0  0
 72 78  1  0  0  0
 72144  1  0  0  0
 72145  1  0  0  0
 72146  1  0  0  0
 73147  1  0  0  0
 73148  1  0  0  0
 73149  1  0  0  0
 73 79  1  0  0  0
 74 75  1  0  0  0
 74 77  1  0  0  0
 74150  1  0  0  0
 74151  1  0  0  0
 75 79  1  0  0  0
 75152  1  0  0  0
 75153  1  0  0  0
 76 81  1  0  0  0
 76154  1  0  0  0
 76155  1  0  0  0
 76 80  1  0  0  0
 77156  1  0  0  0
 77157  1  0  0  0
 78 80  1  0  0  0
 78158  1  0  0  0
 79 80  1  0  0  0
 79159  1  0  0  0
 80160  1  0  0  0
 81161  1  0  0  0
M  ISO  4   1 100  68 101  77 101  81 100
M  END
> <chiral flag>
0

> <version>
0

> <s_m_source_file>
/data/baiqing/PycharmProjects/Reinvent-master-3.2/result/LINK_invent/BTK/process_docking_weight1_custom_sum_contain_oxygen_bond_distance_aromatic_linkinvent_7_9_3/rearranged_h_0092.sdf

> <i_m_source_file_index>
90

> <r_mmod_Potential_Energy-OPLS-2005>
485.797790527344

> <r_mmod_Stretch_Energy-OPLS-2005>
245.283828735352

> <r_mmod_Bend_Energy-OPLS-2005>
256.643310546875

> <r_mmod_Torsional_Energy-OPLS-2005>
253.7314453125

> <r_mmod_Improper_Torsional_Energy-OPLS-2005>
5.30533885955811

> <r_mmod_Van_der_Waal_Energy-OPLS-2005>
124.623115539551

> <r_mmod_Electrostatic_Energy-OPLS-2005>
-367.201477050781

> <r_mmod_Solvation_Energy-OPLS-2005>
-191.592269897461

> <b_mmod_Minimization_Converged-OPLS-2005>
0

> <r_mmod_RMS_Derivative-OPLS-2005>
4.81990623474121

$$$$
92
                    3D
 Structure written by MMmdl.
161169  0  0  1  0            999 V2000
  -30.6056  -14.7331   20.4520 C   0  0  0  0  0  0
  -30.4331  -12.4498   19.4580 C   0  0  0  0  0  0
  -29.5036  -12.5015   18.2260 C   0  0  0  0  0  0
  -28.0309  -12.3256   18.6454 C   0  0  0  0  0  0
  -27.6387  -13.2290   19.8447 C   0  0  2  0  0  0
  -28.6855  -13.1599   20.9763 C   0  0  0  0  0  0
  -25.2504  -13.8193   20.5711 C   0  0  0  0  0  0
  -24.1799  -13.0435   20.9216 C   0  0  0  0  0  0
  -24.6389  -11.6916   20.8748 C   0  0  0  0  0  0
  -23.9073  -10.4290   21.0405 C   0  0  0  0  0  0
  -24.3623   -9.4207   21.9180 C   0  0  0  0  0  0
  -23.6301   -8.2241   22.0748 C   0  0  0  0  0  0
  -22.4284   -8.0277   21.3542 C   0  0  0  0  0  0
  -21.9918   -9.0251   20.4643 C   0  0  0  0  0  0
  -22.7244  -10.2132   20.3053 C   0  0  0  0  0  0
  -21.6850   -6.0740   22.5284 C   0  0  0  0  0  0
  -21.4011   -6.5644   23.8215 C   0  0  0  0  0  0
  -21.3659   -5.6798   24.9179 C   0  0  0  0  0  0
  -21.6046   -4.3062   24.7231 C   0  0  0  0  0  0
  -21.8818   -3.8152   23.4351 C   0  0  0  0  0  0
  -21.9193   -4.6967   22.3407 C   0  0  0  0  0  0
  -22.7822  -13.5211   21.1888 C   0  0  0  0  0  0
  -22.1665   -4.2154   21.0983 F   0  0  0  0  0  0
  -21.5628   -3.4543   25.7741 F   0  0  0  0  0  0
  -29.9852  -13.5077   20.3890 N   0  0  0  0  0  0
  -26.2921  -12.9401   20.3268 N   0  0  0  0  0  0
  -25.9312  -11.6541   20.5743 N   0  0  0  0  0  0
  -22.0481  -12.8181   22.0441 N   0  0  0  0  0  0
  -25.4169  -15.1922   20.4143 N   0  0  0  0  0  0
  -31.8022  -14.8392   20.1726 O   0  0  0  0  0  0
  -21.6643   -6.8880   21.4244 O   0  0  0  0  0  0
  -22.3495  -14.5514   20.6740 O   0  0  0  0  0  0
  -24.6319  -31.8550   23.1975 C   0  0  0  0  0  0
  -25.9148  -32.4741   23.8319 C   0  0  1  0  0  0
  -27.2121  -27.2559   20.1092 C   0  0  0  0  0  0
  -25.5937  -33.8544   24.2251 N   0  0  0  0  0  0
  -23.4285  -30.4788   21.5437 C   0  0  2  0  0  0
  -24.8720  -28.9283   20.1078 C   0  0  0  0  0  0
  -22.7504  -29.4601   22.4923 C   0  0  0  0  0  0
  -18.0297  -28.1372   22.8468 C   0  0  0  0  0  0
  -24.1495  -36.7285   23.2637 C   0  0  0  0  0  0
  -25.9772  -30.7621   21.3820 C   0  0  0  0  0  0
  -26.0462  -29.3864   20.7183 C   0  0  0  0  0  0
  -27.2188  -28.5620   20.7099 C   0  0  0  0  0  0
  -26.0137  -26.8732   19.4653 C   0  0  0  0  0  0
  -24.8607  -27.6790   19.4720 C   0  0  0  0  0  0
  -23.6436  -29.8158   20.1593 C   0  0  0  0  0  0
  -25.4119  -36.3064   24.0318 C   0  0  1  0  0  0
  -20.5900  -28.3684   23.1256 C   0  0  2  0  0  0
  -20.6783  -26.9402   22.5399 C   0  0  0  0  0  0
  -19.5765  -26.6372   21.5195 C   0  0  0  0  0  0
  -18.1944  -26.7915   22.1601 C   0  0  0  0  0  0
  -19.1551  -28.8844   23.2851 C   0  0  0  0  0  0
  -18.9469  -30.1445   23.8864 C   0  0  0  0  0  0
  -17.6469  -30.6570   24.0550 C   0  0  0  0  0  0
  -25.9059  -34.9430   23.5086 C   0  0  0  0  0  0
  -16.5361  -29.9070   23.6322 C   0  0  0  0  0  0
  -16.7280  -28.6492   23.0335 C   0  0  0  0  0  0
  -26.4509  -31.6562   25.0713 C   0  0  0  0  0  0
  -25.3703  -31.3714   26.1415 C   0  0  0  0  0  0
  -27.0355  -30.2964   24.6230 C   0  0  0  0  0  0
  -27.6073  -32.4308   25.7464 C   0  0  0  0  0  0
  -27.5592  -37.1786   24.8461 C   0  0  0  0  0  0
  -21.4216  -29.3030   22.3646 N   0  0  0  0  0  0
  -26.4301  -37.3761   23.9400 N   0  0  0  0  0  0
  -24.6983  -31.0500   22.0967 N   0  0  0  0  0  0
  -23.4189  -28.8137   23.3028 O   0  0  0  0  0  0
  -28.2995  -26.3483   20.1659 O   0  0  0  0  0  0
  -26.5645  -34.8907   22.4667 O   0  0  0  0  0  0
  -23.5468  -32.1401   23.7251 O   0  0  0  0  0  0
  -27.4142  -21.5770   21.6847 C   0  0  0  0  0  0
  -26.6614  -20.7487   22.5248 C   0  0  0  0  0  0
  -28.4015  -21.0521   20.8159 C   0  0  0  0  0  0
  -26.8970  -19.3758   22.4870 C   0  0  0  0  0  0
  -28.6014  -19.5827   20.8731 C   0  0  0  0  0  0
  -26.0794  -18.4134   23.3221 C   0  0  0  0  0  0
  -30.4212  -19.2172   19.0480 C   0  0  0  0  0  0
  -29.0406  -22.1692   19.8897 C   0  0  0  0  0  0
  -29.1116  -23.7424   20.3514 C   0  0  0  0  0  0
  -30.2045  -17.3258   20.8148 C   0  0  0  0  0  0
  -28.0614  -24.8837   19.8887 C   0  0  0  0  0  0
  -29.4480  -18.5370   20.0189 C   0  0  1  0  0  0
  -27.8277  -18.8323   21.6911 N   0  0  0  0  0  0
  -29.8162  -15.8555   20.6336 N   0  0  0  0  0  0
  -31.4704  -12.5865   19.1475 H   0  0  0  0  0  0
  -30.3879  -11.4728   19.9414 H   0  0  0  0  0  0
  -29.7826  -11.7281   17.5090 H   0  0  0  0  0  0
  -29.6263  -13.4554   17.7108 H   0  0  0  0  0  0
  -27.8894  -11.2783   18.9129 H   0  0  0  0  0  0
  -27.3704  -12.5143   17.7980 H   0  0  0  0  0  0
  -27.6314  -14.2494   19.4612 H   0  0  0  0  0  0
  -28.7184  -12.1632   21.4184 H   0  0  0  0  0  0
  -28.4234  -13.8448   21.7843 H   0  0  0  0  0  0
  -25.2768   -9.5686   22.4754 H   0  0  0  0  0  0
  -24.0019   -7.4629   22.7455 H   0  0  0  0  0  0
  -21.0855   -8.8765   19.8941 H   0  0  0  0  0  0
  -22.3701  -10.9672   19.6164 H   0  0  0  0  0  0
  -21.1995   -7.6152   23.9721 H   0  0  0  0  0  0
  -21.1485   -6.0528   25.9082 H   0  0  0  0  0  0
  -22.0594   -2.7615   23.2850 H   0  0  0  0  0  0
  -22.4131  -11.9848   22.4823 H   0  0  0  0  0  0
  -21.1087  -13.1171   22.2648 H   0  0  0  0  0  0
  -24.6459  -15.8407   20.5258 H   0  0  0  0  0  0
  -26.2643  -15.6425   20.0935 H   0  0  0  0  0  0
  -26.7208  -32.5385   23.1052 H   0  0  0  0  0  0
  -25.0034  -33.9669   25.0366 H   0  0  0  0  0  0
  -22.7250  -31.3009   21.3993 H   0  0  0  0  0  0
  -23.3755  -35.9620   23.3297 H   0  0  0  0  0  0
  -24.3593  -36.8924   22.2056 H   0  0  0  0  0  0
  -23.7256  -37.6483   23.6671 H   0  0  0  0  0  0
  -26.1268  -31.5243   20.6162 H   0  0  0  0  0  0
  -26.8510  -30.8040   22.0206 H   0  0  0  0  0  0
  -28.1175  -28.9044   21.2034 H   0  0  0  0  0  0
  -25.9297  -25.9240   18.9586 H   0  0  0  0  0  0
  -23.9632  -27.3234   18.9857 H   0  0  0  0  0  0
  -23.7640  -30.5937   19.4045 H   0  0  0  0  0  0
  -22.7600  -29.2504   19.8573 H   0  0  0  0  0  0
  -25.1306  -36.1917   25.0810 H   0  0  0  0  0  0
  -20.9985  -28.3273   24.1380 H   0  0  0  0  0  0
  -20.5675  -26.2297   23.3604 H   0  0  0  0  0  0
  -21.6653  -26.7431   22.1198 H   0  0  0  0  0  0
  -19.6934  -25.6281   21.1230 H   0  0  0  0  0  0
  -19.6709  -27.3165   20.6711 H   0  0  0  0  0  0
  -17.4216  -26.6641   21.4005 H   0  0  0  0  0  0
  -18.0356  -26.0060   22.9000 H   0  0  0  0  0  0
  -19.7946  -30.7267   24.2224 H   0  0  0  0  0  0
  -17.5026  -31.6246   24.5159 H   0  0  0  0  0  0
  -15.5360  -30.2958   23.7673 H   0  0  0  0  0  0
  -15.8678  -28.0809   22.7058 H   0  0  0  0  0  0
  -24.5911  -30.7030   25.7736 H   0  0  0  0  0  0
  -24.8836  -32.2862   26.4782 H   0  0  0  0  0  0
  -25.7995  -30.8928   27.0225 H   0  0  0  0  0  0
  -26.2945  -29.6676   24.1274 H   0  0  0  0  0  0
  -27.4045  -29.7263   25.4770 H   0  0  0  0  0  0
  -27.8823  -30.4223   23.9480 H   0  0  0  0  0  0
  -27.2718  -33.3640   26.1988 H   0  0  0  0  0  0
  -28.3881  -32.6809   25.0273 H   0  0  0  0  0  0
  -28.0733  -31.8457   26.5400 H   0  0  0  0  0  0
  -28.2593  -38.0101   24.7534 H   0  0  0  0  0  0
  -28.1113  -36.2632   24.6266 H   0  0  0  0  0  0
  -27.2308  -37.1414   25.8864 H   0  0  0  0  0  0
  -20.9404  -29.8754   21.6851 H   0  0  0  0  0  0
  -26.0183  -38.2837   24.1399 H   0  0  0  0  0  0
  -27.1872  -22.6318   21.6970 H   0  0  0  0  0  0
  -25.8973  -21.1633   23.1679 H   0  0  0  0  0  0
  -25.0397  -18.4190   22.9937 H   0  0  0  0  0  0
  -26.1091  -18.6972   24.3739 H   0  0  0  0  0  0
  -26.4526  -17.3918   23.2356 H   0  0  0  0  0  0
  -29.8947  -19.8883   18.3704 H   0  0  0  0  0  0
  -30.9316  -18.4770   18.4310 H   0  0  0  0  0  0
  -31.1818  -19.7863   19.5816 H   0  0  0  0  0  0
  -28.5639  -22.1087   18.9089 H   0  0  0  0  0  0
  -30.0700  -21.8554   19.7245 H   0  0  0  0  0  0
  -30.0608  -24.0989   19.9512 H   0  0  0  0  0  0
  -29.2527  -23.7956   21.4306 H   0  0  0  0  0  0
  -30.1352  -17.5289   21.8840 H   0  0  0  0  0  0
  -31.2743  -17.4034   20.6158 H   0  0  0  0  0  0
  -27.1052  -24.6040   20.3317 H   0  0  0  0  0  0
  -27.9328  -24.7884   18.8094 H   0  0  0  0  0  0
  -28.7073  -18.0516   19.3818 H   0  0  0  0  0  0
  -28.8376  -15.6572   20.7787 H   0  0  0  0  0  0
  1 25  1  0  0  0
  1 30  2  0  0  0
  1 84  1  0  0  0
  2  3  1  0  0  0
  2 25  1  0  0  0
  2 85  1  0  0  0
  2 86  1  0  0  0
  3  4  1  0  0  0
  3 87  1  0  0  0
  3 88  1  0  0  0
  4  5  1  0  0  0
  4 89  1  0  0  0
  4 90  1  0  0  0
  5  6  1  0  0  0
  5 26  1  0  0  0
  5 91  1  0  0  0
  6 25  1  0  0  0
  6 92  1  0  0  0
  6 93  1  0  0  0
  7  8  2  0  0  0
  7 26  1  0  0  0
  7 29  1  0  0  0
  8  9  1  0  0  0
  8 22  1  0  0  0
  9 10  1  0  0  0
  9 27  2  0  0  0
 10 11  2  0  0  0
 10 15  1  0  0  0
 11 12  1  0  0  0
 11 94  1  0  0  0
 12 13  2  0  0  0
 12 95  1  0  0  0
 13 14  1  0  0  0
 13 31  1  0  0  0
 14 15  2  0  0  0
 14 96  1  0  0  0
 15 97  1  0  0  0
 16 17  2  0  0  0
 16 21  1  0  0  0
 16 31  1  0  0  0
 17 18  1  0  0  0
 17 98  1  0  0  0
 18 19  2  0  0  0
 18 99  1  0  0  0
 19 20  1  0  0  0
 19 24  1  0  0  0
 20 21  2  0  0  0
 20100  1  0  0  0
 21 23  1  0  0  0
 22 28  1  0  0  0
 22 32  2  0  0  0
 26 27  1  0  0  0
 28101  1  0  0  0
 28102  1  0  0  0
 29103  1  0  0  0
 29104  1  0  0  0
 33 34  1  0  0  0
 33 66  1  0  0  0
 33 70  2  0  0  0
 34 36  1  0  0  0
 34 59  1  0  0  0
 34105  1  0  0  0
 35 44  2  0  0  0
 35 45  1  0  0  0
 35 68  1  0  0  0
 36 56  1  0  0  0
 36106  1  0  0  0
 37 39  1  0  0  0
 37 47  1  0  0  0
 37 66  1  0  0  0
 37107  1  0  0  0
 38 43  2  0  0  0
 38 46  1  0  0  0
 38 47  1  0  0  0
 39 64  1  0  0  0
 39 67  2  0  0  0
 40 52  1  0  0  0
 40 53  2  0  0  0
 40 58  1  0  0  0
 41108  1  0  0  0
 41109  1  0  0  0
 41110  1  0  0  0
 41 48  1  0  0  0
 42 43  1  0  0  0
 42 66  1  0  0  0
 42111  1  0  0  0
 42112  1  0  0  0
 43 44  1  0  0  0
 44113  1  0  0  0
 45 46  2  0  0  0
 45114  1  0  0  0
 46115  1  0  0  0
 47116  1  0  0  0
 47117  1  0  0  0
 48 56  1  0  0  0
 48 65  1  0  0  0
 48118  1  0  0  0
 49 50  1  0  0  0
 49 53  1  0  0  0
 49 64  1  0  0  0
 49119  1  0  0  0
 50 51  1  0  0  0
 50120  1  0  0  0
 50121  1  0  0  0
 51 52  1  0  0  0
 51122  1  0  0  0
 51123  1  0  0  0
 52124  1  0  0  0
 52125  1  0  0  0
 53 54  1  0  0  0
 54 55  2  0  0  0
 54126  1  0  0  0
 55 57  1  0  0  0
 55127  1  0  0  0
 56 69  2  0  0  0
 57 58  2  0  0  0
 57128  1  0  0  0
 58129  1  0  0  0
 59 60  1  0  0  0
 59 61  1  0  0  0
 59 62  1  0  0  0
 60130  1  0  0  0
 60131  1  0  0  0
 60132  1  0  0  0
 61133  1  0  0  0
 61134  1  0  0  0
 61135  1  0  0  0
 62136  1  0  0  0
 62137  1  0  0  0
 62138  1  0  0  0
 63 65  1  0  0  0
 63139  1  0  0  0
 63140  1  0  0  0
 63141  1  0  0  0
 64142  1  0  0  0
 65143  1  0  0  0
 68 81  1  0  0  0
 71 72  2  0  0  0
 71 73  1  0  0  0
 71144  1  0  0  0
 72 74  1  0  0  0
 72145  1  0  0  0
 73 75  2  0  0  0
 73 78  1  0  0  0
 74 76  1  0  0  0
 74 83  2  0  0  0
 75 82  1  0  0  0
 75 83  1  0  0  0
 76146  1  0  0  0
 76147  1  0  0  0
 76148  1  0  0  0
 77149  1  0  0  0
 77150  1  0  0  0
 77151  1  0  0  0
 77 82  1  0  0  0
 78 79  1  0  0  0
 78152  1  0  0  0
 78153  1  0  0  0
 79 81  1  0  0  0
 79154  1  0  0  0
 79155  1  0  0  0
 80 82  1  0  0  0
 80 84  1  0  0  0
 80156  1  0  0  0
 80157  1  0  0  0
 81158  1  0  0  0
 81159  1  0  0  0
 82160  1  0  0  0
 84161  1  0  0  0
M  ISO  4   1 100  68 101  81 101  84 100
M  END
> <chiral flag>
0

> <version>
0

> <s_m_source_file>
/data/baiqing/PycharmProjects/Reinvent-master-3.2/result/LINK_invent/BTK/process_docking_weight1_custom_sum_contain_oxygen_bond_distance_aromatic_linkinvent_7_9_3/rearranged_h_0092.sdf

> <i_m_source_file_index>
91

> <r_mmod_Potential_Energy-OPLS-2005>
74.2925186157227

> <r_mmod_Stretch_Energy-OPLS-2005>
137.974395751953

> <r_mmod_Bend_Energy-OPLS-2005>
214.095611572266

> <r_mmod_Torsional_Energy-OPLS-2005>
231.375457763672

> <r_mmod_Improper_Torsional_Energy-OPLS-2005>
5.12463140487671

> <r_mmod_Van_der_Waal_Energy-OPLS-2005>
142.223251342773

> <r_mmod_Electrostatic_Energy-OPLS-2005>
-531.860717773438

> <r_mmod_Solvation_Energy-OPLS-2005>
-211.546936035156

> <b_mmod_Minimization_Converged-OPLS-2005>
0

> <r_mmod_RMS_Derivative-OPLS-2005>
1.68171238899231

$$$$
93
                    3D
 Structure written by MMmdl.
173181  0  0  1  0            999 V2000
  -30.6151  -14.7507   20.4641 C   0  0  0  0  0  0
  -30.4419  -12.4563   19.4895 C   0  0  0  0  0  0
  -29.5201  -12.5190   18.2512 C   0  0  0  0  0  0
  -28.0463  -12.3386   18.6624 C   0  0  0  0  0  0
  -27.6510  -13.2341   19.8650 C   0  0  2  0  0  0
  -28.6950  -13.1646   21.0046 C   0  0  0  0  0  0
  -25.2556  -13.8215   20.5719 C   0  0  0  0  0  0
  -24.1835  -13.0439   20.9209 C   0  0  0  0  0  0
  -24.6445  -11.6929   20.8761 C   0  0  0  0  0  0
  -23.9123  -10.4303   21.0410 C   0  0  0  0  0  0
  -24.3659   -9.4208   21.9187 C   0  0  0  0  0  0
  -23.6317   -8.2245   22.0757 C   0  0  0  0  0  0
  -22.4299   -8.0290   21.3540 C   0  0  0  0  0  0
  -21.9962   -9.0274   20.4636 C   0  0  0  0  0  0
  -22.7298  -10.2153   20.3050 C   0  0  0  0  0  0
  -21.6867   -6.0750   22.5284 C   0  0  0  0  0  0
  -21.4008   -6.5643   23.8215 C   0  0  0  0  0  0
  -21.3657   -5.6796   24.9175 C   0  0  0  0  0  0
  -21.6051   -4.3061   24.7213 C   0  0  0  0  0  0
  -21.8818   -3.8149   23.4332 C   0  0  0  0  0  0
  -21.9198   -4.6977   22.3396 C   0  0  0  0  0  0
  -22.7855  -13.5214   21.1862 C   0  0  0  0  0  0
  -22.1661   -4.2171   21.0975 F   0  0  0  0  0  0
  -21.5636   -3.4534   25.7714 F   0  0  0  0  0  0
  -30.0040  -13.5144   20.4337 N   0  0  0  0  0  0
  -26.2996  -12.9420   20.3355 N   0  0  0  0  0  0
  -25.9376  -11.6556   20.5799 N   0  0  0  0  0  0
  -22.0505  -12.8172   22.0408 N   0  0  0  0  0  0
  -25.4234  -15.1938   20.4168 N   0  0  0  0  0  0
  -31.7741  -14.8694   20.0557 O   0  0  0  0  0  0
  -21.6630   -6.8903   21.4255 O   0  0  0  0  0  0
  -22.3530  -14.5508   20.6720 O   0  0  0  0  0  0
  -24.6313  -31.8535   23.1981 C   0  0  0  0  0  0
  -25.9159  -32.4733   23.8329 C   0  0  1  0  0  0
  -27.2307  -27.2688   20.1222 C   0  0  0  0  0  0
  -25.5983  -33.8543   24.2295 N   0  0  0  0  0  0
  -23.4282  -30.4771   21.5388 C   0  0  2  0  0  0
  -24.8770  -28.9225   20.1065 C   0  0  0  0  0  0
  -22.7516  -29.4596   22.4885 C   0  0  0  0  0  0
  -18.0308  -28.1372   22.8477 C   0  0  0  0  0  0
  -24.1517  -36.7272   23.2625 C   0  0  0  0  0  0
  -25.9722  -30.7683   21.3752 C   0  0  0  0  0  0
  -26.0456  -29.3900   20.7210 C   0  0  0  0  0  0
  -27.2211  -28.5744   20.7211 C   0  0  0  0  0  0
  -26.0386  -26.8713   19.4719 C   0  0  0  0  0  0
  -24.8780  -27.6712   19.4718 C   0  0  0  0  0  0
  -23.6473  -29.8104   20.1547 C   0  0  0  0  0  0
  -25.4133  -36.3065   24.0344 C   0  0  1  0  0  0
  -20.5902  -28.3698   23.1255 C   0  0  2  0  0  0
  -20.6803  -26.9413   22.5399 C   0  0  0  0  0  0
  -19.5786  -26.6375   21.5202 C   0  0  0  0  0  0
  -18.1957  -26.7915   22.1606 C   0  0  0  0  0  0
  -19.1551  -28.8849   23.2859 C   0  0  0  0  0  0
  -18.9462  -30.1446   23.8892 C   0  0  0  0  0  0
  -17.6462  -30.6567   24.0553 C   0  0  0  0  0  0
  -25.9073  -34.9428   23.5124 C   0  0  0  0  0  0
  -16.5355  -29.9065   23.6307 C   0  0  0  0  0  0
  -16.7289  -28.6483   23.0344 C   0  0  0  0  0  0
  -26.4543  -31.6492   25.0670 C   0  0  0  0  0  0
  -25.3782  -31.3615   26.1389 C   0  0  0  0  0  0
  -27.0365  -30.2907   24.6090 C   0  0  0  0  0  0
  -27.6121  -32.4181   25.7462 C   0  0  0  0  0  0
  -27.5609  -37.1795   24.8468 C   0  0  0  0  0  0
  -21.4219  -29.3051   22.3645 N   0  0  0  0  0  0
  -26.4309  -37.3760   23.9424 N   0  0  0  0  0  0
  -24.6967  -31.0510   22.0939 N   0  0  0  0  0  0
  -23.4209  -28.8134   23.2984 O   0  0  0  0  0  0
  -28.3406  -26.3904   20.1912 O   0  0  0  0  0  0
  -26.5600  -34.8893   22.4666 O   0  0  0  0  0  0
  -23.5469  -32.1366   23.7274 O   0  0  0  0  0  0
  -28.8329  -19.7175   20.8103 C   0  0  0  0  0  0
  -28.6192  -21.1057   20.5074 C   0  0  0  0  0  0
  -26.6470  -19.9925   21.5029 C   0  0  0  0  0  0
  -30.5996  -18.4976   22.2105 C   0  0  0  0  0  0
  -24.5972  -23.9286   24.9275 C   0  0  0  0  0  0
  -25.9045  -22.1098   26.1226 C   0  0  0  0  0  0
  -29.4336  -22.3138   19.9511 C   0  0  0  0  0  0
  -25.3774  -19.6782   22.2258 C   0  0  0  0  0  0
  -29.2296  -23.8430   20.4955 C   0  0  0  0  0  0
  -25.3053  -20.2932   23.6381 C   0  0  0  0  0  0
  -25.2681  -21.8369   23.6705 C   0  0  0  0  0  0
  -29.8589  -17.2453   20.0412 C   0  0  0  0  0  0
  -28.1829  -24.9208   19.8967 C   0  0  0  0  0  0
  -30.0312  -18.6835   20.7937 C   0  0  1  0  0  0
  -24.8608  -22.4186   25.0359 C   0  0  0  0  0  0
  -27.6935  -19.1717   21.4237 N   0  0  0  0  0  0
  -29.8412  -15.8699   20.7304 N   0  0  0  0  0  0
  -26.9409  -21.5297   20.7420 S   0  0  0  0  0  0
  -31.4821  -12.5802   19.1836 H   0  0  0  0  0  0
  -30.3840  -11.4754   19.9638 H   0  0  0  0  0  0
  -29.8021  -11.7533   17.5271 H   0  0  0  0  0  0
  -29.6460  -13.4782   17.7475 H   0  0  0  0  0  0
  -27.9081  -11.2904   18.9261 H   0  0  0  0  0  0
  -27.3887  -12.5273   17.8132 H   0  0  0  0  0  0
  -27.6472  -14.2568   19.4892 H   0  0  0  0  0  0
  -28.7273  -12.1651   21.4409 H   0  0  0  0  0  0
  -28.4281  -13.8433   21.8152 H   0  0  0  0  0  0
  -25.2808   -9.5646   22.4761 H   0  0  0  0  0  0
  -24.0022   -7.4615   22.7465 H   0  0  0  0  0  0
  -21.0900   -8.8806   19.8923 H   0  0  0  0  0  0
  -22.3788  -10.9693   19.6144 H   0  0  0  0  0  0
  -21.1991   -7.6146   23.9729 H   0  0  0  0  0  0
  -21.1487   -6.0510   25.9085 H   0  0  0  0  0  0
  -22.0608   -2.7615   23.2818 H   0  0  0  0  0  0
  -22.4132  -11.9825   22.4771 H   0  0  0  0  0  0
  -21.1116  -13.1176   22.2615 H   0  0  0  0  0  0
  -24.6597  -15.8499   20.5360 H   0  0  0  0  0  0
  -26.2772  -15.6388   20.1050 H   0  0  0  0  0  0
  -26.7212  -32.5402   23.1056 H   0  0  0  0  0  0
  -25.0250  -33.9677   25.0526 H   0  0  0  0  0  0
  -22.7252  -31.2990   21.3931 H   0  0  0  0  0  0
  -23.3791  -35.9591   23.3250 H   0  0  0  0  0  0
  -24.3628  -36.8915   22.2048 H   0  0  0  0  0  0
  -23.7238  -37.6460   23.6645 H   0  0  0  0  0  0
  -26.1024  -31.5270   20.6017 H   0  0  0  0  0  0
  -26.8525  -30.8230   22.0031 H   0  0  0  0  0  0
  -28.1133  -28.9246   21.2199 H   0  0  0  0  0  0
  -25.9726  -25.9202   18.9650 H   0  0  0  0  0  0
  -23.9846  -27.3105   18.9797 H   0  0  0  0  0  0
  -23.7742  -30.5875   19.3992 H   0  0  0  0  0  0
  -22.7654  -29.2453   19.8469 H   0  0  0  0  0  0
  -25.1294  -36.1941   25.0833 H   0  0  0  0  0  0
  -21.0003  -28.3290   24.1370 H   0  0  0  0  0  0
  -20.5718  -26.2316   23.3611 H   0  0  0  0  0  0
  -21.6676  -26.7448   22.1193 H   0  0  0  0  0  0
  -19.6966  -25.6288   21.1239 H   0  0  0  0  0  0
  -19.6726  -27.3181   20.6731 H   0  0  0  0  0  0
  -17.4240  -26.6666   21.3984 H   0  0  0  0  0  0
  -18.0346  -26.0038   22.8985 H   0  0  0  0  0  0
  -19.7939  -30.7251   24.2272 H   0  0  0  0  0  0
  -17.5013  -31.6242   24.5160 H   0  0  0  0  0  0
  -15.5362  -30.2975   23.7600 H   0  0  0  0  0  0
  -15.8694  -28.0791   22.7062 H   0  0  0  0  0  0
  -24.6017  -30.6886   25.7724 H   0  0  0  0  0  0
  -24.8888  -32.2761   26.4746 H   0  0  0  0  0  0
  -25.8122  -30.8862   27.0195 H   0  0  0  0  0  0
  -26.2905  -29.6630   24.1182 H   0  0  0  0  0  0
  -27.4157  -29.7158   25.4547 H   0  0  0  0  0  0
  -27.8753  -30.4169   23.9237 H   0  0  0  0  0  0
  -27.2780  -33.3503   26.2022 H   0  0  0  0  0  0
  -28.3977  -32.6669   25.0315 H   0  0  0  0  0  0
  -28.0728  -31.8270   26.5386 H   0  0  0  0  0  0
  -28.2590  -38.0124   24.7540 H   0  0  0  0  0  0
  -28.1143  -36.2652   24.6267 H   0  0  0  0  0  0
  -27.2318  -37.1402   25.8862 H   0  0  0  0  0  0
  -20.9405  -29.8807   21.6872 H   0  0  0  0  0  0
  -26.0200  -38.2847   24.1396 H   0  0  0  0  0  0
  -30.8950  -19.4550   22.6405 H   0  0  0  0  0  0
  -31.4788  -17.8523   22.2049 H   0  0  0  0  0  0
  -29.8641  -18.0513   22.8788 H   0  0  0  0  0  0
  -24.2661  -24.3427   25.8799 H   0  0  0  0  0  0
  -23.8119  -24.1389   24.2004 H   0  0  0  0  0  0
  -25.4887  -24.4760   24.6171 H   0  0  0  0  0  0
  -25.6139  -22.5379   27.0819 H   0  0  0  0  0  0
  -26.8864  -22.5066   25.8600 H   0  0  0  0  0  0
  -26.0141  -21.0364   26.2774 H   0  0  0  0  0  0
  -29.3295  -22.3255   18.8641 H   0  0  0  0  0  0
  -30.4843  -22.0698   20.1118 H   0  0  0  0  0  0
  -25.2825  -18.5945   22.3027 H   0  0  0  0  0  0
  -24.5351  -20.0147   21.6195 H   0  0  0  0  0  0
  -30.1973  -24.3145   20.3197 H   0  0  0  0  0  0
  -29.1401  -23.8208   21.5820 H   0  0  0  0  0  0
  -26.1498  -19.9323   24.2245 H   0  0  0  0  0  0
  -24.4095  -19.9102   24.1276 H   0  0  0  0  0  0
  -24.5659  -22.1884   22.9127 H   0  0  0  0  0  0
  -26.2429  -22.2389   23.3914 H   0  0  0  0  0  0
  -30.6489  -17.1967   19.2897 H   0  0  0  0  0  0
  -28.9465  -17.2989   19.4470 H   0  0  0  0  0  0
  -27.1979  -24.6005   20.2382 H   0  0  0  0  0  0
  -28.1749  -24.8182   18.8106 H   0  0  0  0  0  0
  -30.8273  -19.1824   20.2379 H   0  0  0  0  0  0
  -23.9200  -21.9538   25.3362 H   0  0  0  0  0  0
  -28.9601  -15.6535   21.1734 H   0  0  0  0  0  0
  1 25  1  0  0  0
  1 30  2  0  0  0
  1 87  1  0  0  0
  2  3  1  0  0  0
  2 25  1  0  0  0
  2 89  1  0  0  0
  2 90  1  0  0  0
  3  4  1  0  0  0
  3 91  1  0  0  0
  3 92  1  0  0  0
  4  5  1  0  0  0
  4 93  1  0  0  0
  4 94  1  0  0  0
  5  6  1  0  0  0
  5 26  1  0  0  0
  5 95  1  0  0  0
  6 25  1  0  0  0
  6 96  1  0  0  0
  6 97  1  0  0  0
  7  8  2  0  0  0
  7 26  1  0  0  0
  7 29  1  0  0  0
  8  9  1  0  0  0
  8 22  1  0  0  0
  9 10  1  0  0  0
  9 27  2  0  0  0
 10 11  2  0  0  0
 10 15  1  0  0  0
 11 12  1  0  0  0
 11 98  1  0  0  0
 12 13  2  0  0  0
 12 99  1  0  0  0
 13 14  1  0  0  0
 13 31  1  0  0  0
 14 15  2  0  0  0
 14100  1  0  0  0
 15101  1  0  0  0
 16 17  2  0  0  0
 16 21  1  0  0  0
 16 31  1  0  0  0
 17 18  1  0  0  0
 17102  1  0  0  0
 18 19  2  0  0  0
 18103  1  0  0  0
 19 20  1  0  0  0
 19 24  1  0  0  0
 20 21  2  0  0  0
 20104  1  0  0  0
 21 23  1  0  0  0
 22 28  1  0  0  0
 22 32  2  0  0  0
 26 27  1  0  0  0
 28105  1  0  0  0
 28106  1  0  0  0
 29107  1  0  0  0
 29108  1  0  0  0
 33 34  1  0  0  0
 33 66  1  0  0  0
 33 70  2  0  0  0
 34 36  1  0  0  0
 34 59  1  0  0  0
 34109  1  0  0  0
 35 44  2  0  0  0
 35 45  1  0  0  0
 35 68  1  0  0  0
 36 56  1  0  0  0
 36110  1  0  0  0
 37 39  1  0  0  0
 37 47  1  0  0  0
 37 66  1  0  0  0
 37111  1  0  0  0
 38 43  2  0  0  0
 38 46  1  0  0  0
 38 47  1  0  0  0
 39 64  1  0  0  0
 39 67  2  0  0  0
 40 52  1  0  0  0
 40 53  2  0  0  0
 40 58  1  0  0  0
 41112  1  0  0  0
 41113  1  0  0  0
 41114  1  0  0  0
 41 48  1  0  0  0
 42 43  1  0  0  0
 42 66  1  0  0  0
 42115  1  0  0  0
 42116  1  0  0  0
 43 44  1  0  0  0
 44117  1  0  0  0
 45 46  2  0  0  0
 45118  1  0  0  0
 46119  1  0  0  0
 47120  1  0  0  0
 47121  1  0  0  0
 48 56  1  0  0  0
 48 65  1  0  0  0
 48122  1  0  0  0
 49 50  1  0  0  0
 49 53  1  0  0  0
 49 64  1  0  0  0
 49123  1  0  0  0
 50 51  1  0  0  0
 50124  1  0  0  0
 50125  1  0  0  0
 51 52  1  0  0  0
 51126  1  0  0  0
 51127  1  0  0  0
 52128  1  0  0  0
 52129  1  0  0  0
 53 54  1  0  0  0
 54 55  2  0  0  0
 54130  1  0  0  0
 55 57  1  0  0  0
 55131  1  0  0  0
 56 69  2  0  0  0
 57 58  2  0  0  0
 57132  1  0  0  0
 58133  1  0  0  0
 59 60  1  0  0  0
 59 61  1  0  0  0
 59 62  1  0  0  0
 60134  1  0  0  0
 60135  1  0  0  0
 60136  1  0  0  0
 61137  1  0  0  0
 61138  1  0  0  0
 61139  1  0  0  0
 62140  1  0  0  0
 62141  1  0  0  0
 62142  1  0  0  0
 63 65  1  0  0  0
 63143  1  0  0  0
 63144  1  0  0  0
 63145  1  0  0  0
 64146  1  0  0  0
 65147  1  0  0  0
 68 83  1  0  0  0
 71 72  2  0  0  0
 71 84  1  0  0  0
 71 86  1  0  0  0
 72 77  1  0  0  0
 72 88  1  0  0  0
 73 78  1  0  0  0
 73 86  2  0  0  0
 73 88  1  0  0  0
 74148  1  0  0  0
 74149  1  0  0  0
 74150  1  0  0  0
 74 84  1  0  0  0
 75151  1  0  0  0
 75152  1  0  0  0
 75153  1  0  0  0
 75 85  1  0  0  0
 76 85  1  0  0  0
 76154  1  0  0  0
 76155  1  0  0  0
 76156  1  0  0  0
 77 79  1  0  0  0
 77157  1  0  0  0
 77158  1  0  0  0
 78 80  1  0  0  0
 78159  1  0  0  0
 78160  1  0  0  0
 79 83  1  0  0  0
 79161  1  0  0  0
 79162  1  0  0  0
 80 81  1  0  0  0
 80163  1  0  0  0
 80164  1  0  0  0
 81 85  1  0  0  0
 81165  1  0  0  0
 81166  1  0  0  0
 82 84  1  0  0  0
 82 87  1  0  0  0
 82167  1  0  0  0
 82168  1  0  0  0
 83169  1  0  0  0
 83170  1  0  0  0
 84171  1  0  0  0
 85172  1  0  0  0
 87173  1  0  0  0
M  ISO  4   1 100  68 101  83 101  87 100
M  END
> <chiral flag>
0

> <version>
0

> <s_m_source_file>
/data/baiqing/PycharmProjects/Reinvent-master-3.2/result/LINK_invent/BTK/process_docking_weight1_custom_sum_contain_oxygen_bond_distance_aromatic_linkinvent_7_9_3/rearranged_h_0092.sdf

> <i_m_source_file_index>
92

> <r_mmod_Potential_Energy-OPLS-2005>
158.484573364258

> <r_mmod_Stretch_Energy-OPLS-2005>
134.535385131836

> <r_mmod_Bend_Energy-OPLS-2005>
214.59294128418

> <r_mmod_Torsional_Energy-OPLS-2005>
212.935348510742

> <r_mmod_Improper_Torsional_Energy-OPLS-2005>
7.31021118164062

> <r_mmod_Van_der_Waal_Energy-OPLS-2005>
104.318481445312

> <r_mmod_Electrostatic_Energy-OPLS-2005>
-398.341766357422

> <r_mmod_Solvation_Energy-OPLS-2005>
-199.9140625

> <b_mmod_Minimization_Converged-OPLS-2005>
0

> <r_mmod_RMS_Derivative-OPLS-2005>
2.90906071662903

$$$$
94
                    3D
 Structure written by MMmdl.
168175  0  0  1  0            999 V2000
  -30.5978  -14.7629   20.4696 C   0  0  0  0  0  0
  -30.4243  -12.4528   19.5080 C   0  0  0  0  0  0
  -29.5156  -12.5083   18.2580 C   0  0  0  0  0  0
  -28.0364  -12.3310   18.6516 C   0  0  0  0  0  0
  -27.6374  -13.2290   19.8532 C   0  0  2  0  0  0
  -28.6734  -13.1834   21.0006 C   0  0  0  0  0  0
  -25.2487  -13.8155   20.5731 C   0  0  0  0  0  0
  -24.1753  -13.0410   20.9146 C   0  0  0  0  0  0
  -24.6297  -11.6877   20.8643 C   0  0  0  0  0  0
  -23.8958  -10.4263   21.0334 C   0  0  0  0  0  0
  -24.3546   -9.4227   21.9134 C   0  0  0  0  0  0
  -23.6269   -8.2246   22.0752 C   0  0  0  0  0  0
  -22.4266   -8.0221   21.3534 C   0  0  0  0  0  0
  -21.9834   -9.0140   20.4628 C   0  0  0  0  0  0
  -22.7112  -10.2048   20.3013 C   0  0  0  0  0  0
  -21.6868   -6.0694   22.5257 C   0  0  0  0  0  0
  -21.4020   -6.5621   23.8175 C   0  0  0  0  0  0
  -21.3654   -5.6791   24.9137 C   0  0  0  0  0  0
  -21.6052   -4.3056   24.7201 C   0  0  0  0  0  0
  -21.8826   -3.8122   23.4333 C   0  0  0  0  0  0
  -21.9199   -4.6923   22.3387 C   0  0  0  0  0  0
  -22.7795  -13.5203   21.1783 C   0  0  0  0  0  0
  -22.1691   -4.2117   21.0974 F   0  0  0  0  0  0
  -21.5601   -3.4540   25.7719 F   0  0  0  0  0  0
  -29.9792  -13.5280   20.4277 N   0  0  0  0  0  0
  -26.2901  -12.9351   20.3284 N   0  0  0  0  0  0
  -25.9247  -11.6483   20.5695 N   0  0  0  0  0  0
  -22.0482  -12.8175   22.0353 N   0  0  0  0  0  0
  -25.4141  -15.1891   20.4248 N   0  0  0  0  0  0
  -31.7741  -14.8634   20.1119 O   0  0  0  0  0  0
  -21.6671   -6.8815   21.4214 O   0  0  0  0  0  0
  -22.3481  -14.5516   20.6645 O   0  0  0  0  0  0
  -24.6235  -31.8529   23.1850 C   0  0  0  0  0  0
  -25.9004  -32.4761   23.8257 C   0  0  1  0  0  0
  -27.2234  -27.2300   20.1667 C   0  0  0  0  0  0
  -25.5860  -33.8597   24.2199 N   0  0  0  0  0  0
  -23.4247  -30.4673   21.5295 C   0  0  2  0  0  0
  -24.8759  -28.8995   20.1227 C   0  0  0  0  0  0
  -22.7497  -29.4557   22.4877 C   0  0  0  0  0  0
  -18.0301  -28.1423   22.8521 C   0  0  0  0  0  0
  -24.1458  -36.7231   23.2650 C   0  0  0  0  0  0
  -25.9744  -30.7521   21.3686 C   0  0  0  0  0  0
  -26.0468  -29.3653   20.7338 C   0  0  0  0  0  0
  -27.2218  -28.5480   20.7400 C   0  0  0  0  0  0
  -26.0256  -26.8194   19.5393 C   0  0  0  0  0  0
  -24.8716  -27.6281   19.5179 C   0  0  0  0  0  0
  -23.6527  -29.7967   20.1483 C   0  0  0  0  0  0
  -25.4118  -36.3075   24.0338 C   0  0  1  0  0  0
  -20.5912  -28.3621   23.1300 C   0  0  2  0  0  0
  -20.6823  -26.9372   22.5378 C   0  0  0  0  0  0
  -19.5792  -26.6395   21.5202 C   0  0  0  0  0  0
  -18.1945  -26.7985   22.1613 C   0  0  0  0  0  0
  -19.1590  -28.8868   23.2909 C   0  0  0  0  0  0
  -18.9500  -30.1506   23.8861 C   0  0  0  0  0  0
  -17.6507  -30.6650   24.0603 C   0  0  0  0  0  0
  -25.9050  -34.9470   23.5073 C   0  0  0  0  0  0
  -16.5386  -29.9133   23.6395 C   0  0  0  0  0  0
  -16.7302  -28.6582   23.0350 C   0  0  0  0  0  0
  -26.4414  -31.6573   25.0617 C   0  0  0  0  0  0
  -25.3728  -31.3697   26.1397 C   0  0  0  0  0  0
  -27.0235  -30.3040   24.5947 C   0  0  0  0  0  0
  -27.5939  -32.4381   25.7410 C   0  0  0  0  0  0
  -27.5574  -37.1798   24.8523 C   0  0  0  0  0  0
  -21.4208  -29.2985   22.3687 N   0  0  0  0  0  0
  -26.4280  -37.3806   23.9470 N   0  0  0  0  0  0
  -24.6937  -31.0484   22.0789 N   0  0  0  0  0  0
  -23.4216  -28.8143   23.3034 O   0  0  0  0  0  0
  -28.3624  -26.4139   20.0147 O   0  0  0  0  0  0
  -26.5622  -34.8949   22.4635 O   0  0  0  0  0  0
  -23.5371  -32.1292   23.7123 O   0  0  0  0  0  0
  -27.8903  -23.7973   20.6998 C   0  0  0  0  0  0
  -28.1460  -22.4150   20.7443 C   0  0  0  0  0  0
  -24.4116  -21.1720   24.0002 C   0  0  0  0  0  0
  -27.5648  -21.0836   23.4630 C   0  0  0  0  0  0
  -30.6634  -22.3098   20.3426 C   0  0  0  0  0  0
  -28.7038  -25.1589   20.7774 C   0  0  0  0  0  0
  -26.9411  -21.4903   20.9989 C   0  0  0  0  0  0
  -25.1384  -20.8006   22.6945 C   0  0  0  0  0  0
  -29.5549  -18.7091   20.8601 C   0  0  0  0  0  0
  -30.0593  -17.3258   20.1299 C   0  0  0  0  0  0
  -29.5097  -20.1140   20.0148 C   0  0  0  0  0  0
  -26.4660  -21.5662   22.4814 C   0  0  1  0  0  0
  -29.8256  -15.9030   20.6818 N   0  0  0  0  0  0
  -29.4600  -21.5141   20.7115 N   0  3  2  0  0  0
  -31.4713  -12.5650   19.2205 H   0  0  0  0  0  0
  -30.3482  -11.4835   20.0043 H   0  0  0  0  0  0
  -29.8098  -11.7478   17.5360 H   0  0  0  0  0  0
  -29.6451  -13.4717   17.7642 H   0  0  0  0  0  0
  -27.8798  -11.2827   18.9056 H   0  0  0  0  0  0
  -27.3957  -12.5356   17.7938 H   0  0  0  0  0  0
  -27.6243  -14.2466   19.4629 H   0  0  0  0  0  0
  -28.7042  -12.1941   21.4609 H   0  0  0  0  0  0
  -28.3952  -13.8844   21.7910 H   0  0  0  0  0  0
  -25.2666   -9.5786   22.4701 H   0  0  0  0  0  0
  -23.9995   -7.4689   22.7519 H   0  0  0  0  0  0
  -21.0759   -8.8549   19.8986 H   0  0  0  0  0  0
  -22.3456  -10.9525   19.6125 H   0  0  0  0  0  0
  -21.2048   -7.6141   23.9641 H   0  0  0  0  0  0
  -21.1481   -6.0549   25.9037 H   0  0  0  0  0  0
  -22.0615   -2.7585   23.2823 H   0  0  0  0  0  0
  -22.4159  -11.9838   22.4705 H   0  0  0  0  0  0
  -21.1090  -13.1133   22.2598 H   0  0  0  0  0  0
  -24.6275  -15.8234   20.5195 H   0  0  0  0  0  0
  -26.2563  -15.6386   20.0887 H   0  0  0  0  0  0
  -26.7063  -32.5424   23.0985 H   0  0  0  0  0  0
  -25.0253  -33.9841   25.0489 H   0  0  0  0  0  0
  -22.7207  -31.2862   21.3810 H   0  0  0  0  0  0
  -23.3790  -35.9496   23.3352 H   0  0  0  0  0  0
  -24.3534  -36.8772   22.2053 H   0  0  0  0  0  0
  -23.7107  -37.6394   23.6639 H   0  0  0  0  0  0
  -26.1130  -31.4801   20.5696 H   0  0  0  0  0  0
  -26.8599  -30.8187   21.9930 H   0  0  0  0  0  0
  -28.1293  -28.9200   21.1985 H   0  0  0  0  0  0
  -25.9855  -25.8558   19.0515 H   0  0  0  0  0  0
  -23.9747  -27.2657   19.0366 H   0  0  0  0  0  0
  -23.7859  -30.5691   19.3871 H   0  0  0  0  0  0
  -22.7720  -29.2265   19.8414 H   0  0  0  0  0  0
  -25.1282  -36.1929   25.0838 H   0  0  0  0  0  0
  -21.0012  -28.3166   24.1398 H   0  0  0  0  0  0
  -20.5723  -26.2213   23.3555 H   0  0  0  0  0  0
  -21.6702  -26.7426   22.1156 H   0  0  0  0  0  0
  -19.6902  -25.6270   21.1241 H   0  0  0  0  0  0
  -19.6803  -27.3231   20.6759 H   0  0  0  0  0  0
  -17.4239  -26.6754   21.3991 H   0  0  0  0  0  0
  -18.0369  -26.0130   22.9016 H   0  0  0  0  0  0
  -19.7963  -30.7437   24.2092 H   0  0  0  0  0  0
  -17.5042  -31.6312   24.5231 H   0  0  0  0  0  0
  -15.5386  -30.3070   23.7727 H   0  0  0  0  0  0
  -15.8694  -28.0969   22.6976 H   0  0  0  0  0  0
  -24.5993  -30.6864   25.7858 H   0  0  0  0  0  0
  -24.8827  -32.2870   26.4714 H   0  0  0  0  0  0
  -25.8181  -30.9066   27.0222 H   0  0  0  0  0  0
  -26.2726  -29.6933   24.0904 H   0  0  0  0  0  0
  -27.3949  -29.7147   25.4317 H   0  0  0  0  0  0
  -27.8614  -30.4426   23.9131 H   0  0  0  0  0  0
  -27.2448  -33.3765   26.1755 H   0  0  0  0  0  0
  -28.3837  -32.6774   25.0291 H   0  0  0  0  0  0
  -28.0445  -31.8629   26.5493 H   0  0  0  0  0  0
  -28.2616  -38.0076   24.7634 H   0  0  0  0  0  0
  -28.1015  -36.2613   24.6288 H   0  0  0  0  0  0
  -27.2316  -37.1401   25.8934 H   0  0  0  0  0  0
  -20.9303  -29.8660   21.6914 H   0  0  0  0  0  0
  -26.0108  -38.2832   24.1608 H   0  0  0  0  0  0
  -26.8352  -24.0333   20.7289 H   0  0  0  0  0  0
  -23.4840  -20.6071   24.1034 H   0  0  0  0  0  0
  -24.1469  -22.2282   24.0164 H   0  0  0  0  0  0
  -25.0121  -20.9776   24.8900 H   0  0  0  0  0  0
  -28.4914  -21.6494   23.3618 H   0  0  0  0  0  0
  -27.8129  -20.0352   23.2997 H   0  0  0  0  0  0
  -27.2684  -21.1812   24.5091 H   0  0  0  0  0  0
  -30.8336  -23.1227   21.0494 H   0  0  0  0  0  0
  -30.5539  -22.7479   19.3491 H   0  0  0  0  0  0
  -31.5724  -21.7057   20.3461 H   0  0  0  0  0  0
  -29.7340  -24.9371   20.5216 H   0  0  0  0  0  0
  -28.7060  -25.4363   21.8324 H   0  0  0  0  0  0
  -27.1053  -20.4497   20.7382 H   0  0  0  0  0  0
  -26.1435  -21.8126   20.3228 H   0  0  0  0  0  0
  -24.4525  -20.9966   21.8659 H   0  0  0  0  0  0
  -25.3182  -19.7232   22.6791 H   0  0  0  0  0  0
  -30.2068  -18.8784   21.7175 H   0  0  0  0  0  0
  -28.5648  -18.5554   21.2884 H   0  0  0  0  0  0
  -31.1266  -17.4312   19.9169 H   0  0  0  0  0  0
  -29.5792  -17.2933   19.1512 H   0  0  0  0  0  0
  -28.7125  -20.0738   19.2705 H   0  0  0  0  0  0
  -30.4133  -20.0839   19.4012 H   0  0  0  0  0  0
  -26.2566  -22.6131   22.7098 H   0  0  0  0  0  0
  -28.8688  -15.6986   20.9409 H   0  0  0  0  0  0
  -29.6577  -21.2668   21.6727 H   0  0  0  0  0  0
  1 25  1  0  0  0
  1 30  2  0  0  0
  1 83  1  0  0  0
  2  3  1  0  0  0
  2 25  1  0  0  0
  2 85  1  0  0  0
  2 86  1  0  0  0
  3  4  1  0  0  0
  3 87  1  0  0  0
  3 88  1  0  0  0
  4  5  1  0  0  0
  4 89  1  0  0  0
  4 90  1  0  0  0
  5  6  1  0  0  0
  5 26  1  0  0  0
  5 91  1  0  0  0
  6 25  1  0  0  0
  6 92  1  0  0  0
  6 93  1  0  0  0
  7  8  2  0  0  0
  7 26  1  0  0  0
  7 29  1  0  0  0
  8  9  1  0  0  0
  8 22  1  0  0  0
  9 10  1  0  0  0
  9 27  2  0  0  0
 10 11  2  0  0  0
 10 15  1  0  0  0
 11 12  1  0  0  0
 11 94  1  0  0  0
 12 13  2  0  0  0
 12 95  1  0  0  0
 13 14  1  0  0  0
 13 31  1  0  0  0
 14 15  2  0  0  0
 14 96  1  0  0  0
 15 97  1  0  0  0
 16 17  2  0  0  0
 16 21  1  0  0  0
 16 31  1  0  0  0
 17 18  1  0  0  0
 17 98  1  0  0  0
 18 19  2  0  0  0
 18 99  1  0  0  0
 19 20  1  0  0  0
 19 24  1  0  0  0
 20 21  2  0  0  0
 20100  1  0  0  0
 21 23  1  0  0  0
 22 28  1  0  0  0
 22 32  2  0  0  0
 26 27  1  0  0  0
 28101  1  0  0  0
 28102  1  0  0  0
 29103  1  0  0  0
 29104  1  0  0  0
 33 34  1  0  0  0
 33 66  1  0  0  0
 33 70  2  0  0  0
 34 36  1  0  0  0
 34 59  1  0  0  0
 34105  1  0  0  0
 35 44  2  0  0  0
 35 45  1  0  0  0
 35 68  1  0  0  0
 36 56  1  0  0  0
 36106  1  0  0  0
 37 39  1  0  0  0
 37 47  1  0  0  0
 37 66  1  0  0  0
 37107  1  0  0  0
 38 43  2  0  0  0
 38 46  1  0  0  0
 38 47  1  0  0  0
 39 64  1  0  0  0
 39 67  2  0  0  0
 40 52  1  0  0  0
 40 53  2  0  0  0
 40 58  1  0  0  0
 41108  1  0  0  0
 41109  1  0  0  0
 41110  1  0  0  0
 41 48  1  0  0  0
 42 43  1  0  0  0
 42 66  1  0  0  0
 42111  1  0  0  0
 42112  1  0  0  0
 43 44  1  0  0  0
 44113  1  0  0  0
 45 46  2  0  0  0
 45114  1  0  0  0
 46115  1  0  0  0
 47116  1  0  0  0
 47117  1  0  0  0
 48 56  1  0  0  0
 48 65  1  0  0  0
 48118  1  0  0  0
 49 50  1  0  0  0
 49 53  1  0  0  0
 49 64  1  0  0  0
 49119  1  0  0  0
 50 51  1  0  0  0
 50120  1  0  0  0
 50121  1  0  0  0
 51 52  1  0  0  0
 51122  1  0  0  0
 51123  1  0  0  0
 52124  1  0  0  0
 52125  1  0  0  0
 53 54  1  0  0  0
 54 55  2  0  0  0
 54126  1  0  0  0
 55 57  1  0  0  0
 55127  1  0  0  0
 56 69  2  0  0  0
 57 58  2  0  0  0
 57128  1  0  0  0
 58129  1  0  0  0
 59 60  1  0  0  0
 59 61  1  0  0  0
 59 62  1  0  0  0
 60130  1  0  0  0
 60131  1  0  0  0
 60132  1  0  0  0
 61133  1  0  0  0
 61134  1  0  0  0
 61135  1  0  0  0
 62136  1  0  0  0
 62137  1  0  0  0
 62138  1  0  0  0
 63 65  1  0  0  0
 63139  1  0  0  0
 63140  1  0  0  0
 63141  1  0  0  0
 64142  1  0  0  0
 65143  1  0  0  0
 68 76  1  0  0  0
 71 72  2  0  0  0
 71 76  1  0  0  0
 71144  1  0  0  0
 72 77  1  0  0  0
 72 84  1  0  0  0
 73 78  1  0  0  0
 73145  1  0  0  0
 73146  1  0  0  0
 73147  1  0  0  0
 74148  1  0  0  0
 74149  1  0  0  0
 74150  1  0  0  0
 74 82  1  0  0  0
 75151  1  0  0  0
 75152  1  0  0  0
 75153  1  0  0  0
 75 84  1  0  0  0
 76154  1  0  0  0
 76155  1  0  0  0
 77 82  1  0  0  0
 77156  1  0  0  0
 77157  1  0  0  0
 78 82  1  0  0  0
 78158  1  0  0  0
 78159  1  0  0  0
 79 80  1  0  0  0
 79 81  1  0  0  0
 79160  1  0  0  0
 79161  1  0  0  0
 80 83  1  0  0  0
 80162  1  0  0  0
 80163  1  0  0  0
 81 84  1  0  0  0
 81164  1  0  0  0
 81165  1  0  0  0
 82166  1  0  0  0
 83167  1  0  0  0
 84168  1  0  0  0
M  CHG  1  84   1
M  ISO  4   1 100  68 101  76 101  83 100
M  END
> <chiral flag>
0

> <version>
0

> <s_m_source_file>
/data/baiqing/PycharmProjects/Reinvent-master-3.2/result/LINK_invent/BTK/process_docking_weight1_custom_sum_contain_oxygen_bond_distance_aromatic_linkinvent_7_9_3/rearranged_h_0092.sdf

> <i_m_source_file_index>
93

> <r_mmod_Potential_Energy-OPLS-2005>
198.127853393555

> <r_mmod_Stretch_Energy-OPLS-2005>
157.527114868164

> <r_mmod_Bend_Energy-OPLS-2005>
260.367889404297

> <r_mmod_Torsional_Energy-OPLS-2005>
251.769927978516

> <r_mmod_Improper_Torsional_Energy-OPLS-2005>
10.2509517669678

> <r_mmod_Van_der_Waal_Energy-OPLS-2005>
116.178245544434

> <r_mmod_Electrostatic_Energy-OPLS-2005>
-242.473571777344

> <r_mmod_Solvation_Energy-OPLS-2005>
-444.178192138672

> <b_mmod_Minimization_Converged-OPLS-2005>
0

> <r_mmod_RMS_Derivative-OPLS-2005>
8.29241275787354

$$$$
95
                    3D
 Structure written by MMmdl.
157165  0  0  1  0            999 V2000
  -30.6294  -14.7288   20.4619 C   0  0  0  0  0  0
  -30.4283  -12.4480   19.4633 C   0  0  0  0  0  0
  -29.5075  -12.5013   18.2268 C   0  0  0  0  0  0
  -28.0322  -12.3350   18.6393 C   0  0  0  0  0  0
  -27.6395  -13.2341   19.8431 C   0  0  2  0  0  0
  -28.6859  -13.1700   20.9763 C   0  0  0  0  0  0
  -25.2496  -13.8200   20.5680 C   0  0  0  0  0  0
  -24.1801  -13.0433   20.9205 C   0  0  0  0  0  0
  -24.6398  -11.6914   20.8735 C   0  0  0  0  0  0
  -23.9081  -10.4287   21.0392 C   0  0  0  0  0  0
  -24.3640   -9.4201   21.9168 C   0  0  0  0  0  0
  -23.6311   -8.2240   22.0747 C   0  0  0  0  0  0
  -22.4288   -8.0280   21.3546 C   0  0  0  0  0  0
  -21.9922   -9.0247   20.4646 C   0  0  0  0  0  0
  -22.7251  -10.2121   20.3042 C   0  0  0  0  0  0
  -21.6855   -6.0736   22.5277 C   0  0  0  0  0  0
  -21.4016   -6.5639   23.8212 C   0  0  0  0  0  0
  -21.3662   -5.6789   24.9175 C   0  0  0  0  0  0
  -21.6045   -4.3052   24.7222 C   0  0  0  0  0  0
  -21.8825   -3.8148   23.4342 C   0  0  0  0  0  0
  -21.9201   -4.6967   22.3399 C   0  0  0  0  0  0
  -22.7821  -13.5206   21.1877 C   0  0  0  0  0  0
  -22.1666   -4.2160   21.0971 F   0  0  0  0  0  0
  -21.5634   -3.4528   25.7730 F   0  0  0  0  0  0
  -29.9848  -13.5152   20.3885 N   0  0  0  0  0  0
  -26.2928  -12.9416   20.3239 N   0  0  0  0  0  0
  -25.9329  -11.6556   20.5738 N   0  0  0  0  0  0
  -22.0475  -12.8188   22.0434 N   0  0  0  0  0  0
  -25.4150  -15.1925   20.4097 N   0  0  0  0  0  0
  -31.8240  -14.8045   20.1645 O   0  0  0  0  0  0
  -21.6648   -6.8876   21.4239 O   0  0  0  0  0  0
  -22.3486  -14.5497   20.6712 O   0  0  0  0  0  0
  -24.6326  -31.8547   23.1990 C   0  0  0  0  0  0
  -25.9153  -32.4747   23.8337 C   0  0  1  0  0  0
  -27.2133  -27.2542   20.1279 C   0  0  0  0  0  0
  -25.5951  -33.8551   24.2265 N   0  0  0  0  0  0
  -23.4293  -30.4791   21.5416 C   0  0  2  0  0  0
  -24.8764  -28.9297   20.1064 C   0  0  0  0  0  0
  -22.7513  -29.4605   22.4897 C   0  0  0  0  0  0
  -18.0298  -28.1396   22.8472 C   0  0  0  0  0  0
  -24.1495  -36.7278   23.2640 C   0  0  0  0  0  0
  -25.9784  -30.7639   21.3832 C   0  0  0  0  0  0
  -26.0481  -29.3879   20.7218 C   0  0  0  0  0  0
  -27.2199  -28.5623   20.7228 C   0  0  0  0  0  0
  -26.0208  -26.8743   19.4703 C   0  0  0  0  0  0
  -24.8695  -27.6821   19.4677 C   0  0  0  0  0  0
  -23.6488  -29.8185   20.1553 C   0  0  0  0  0  0
  -25.4117  -36.3066   24.0332 C   0  0  1  0  0  0
  -20.5906  -28.3713   23.1259 C   0  0  2  0  0  0
  -20.6797  -26.9428   22.5410 C   0  0  0  0  0  0
  -19.5776  -26.6387   21.5214 C   0  0  0  0  0  0
  -18.1949  -26.7939   22.1612 C   0  0  0  0  0  0
  -19.1554  -28.8869   23.2867 C   0  0  0  0  0  0
  -18.9472  -30.1465   23.8893 C   0  0  0  0  0  0
  -17.6469  -30.6590   24.0563 C   0  0  0  0  0  0
  -25.9059  -34.9434   23.5097 C   0  0  0  0  0  0
  -16.5360  -29.9088   23.6328 C   0  0  0  0  0  0
  -16.7287  -28.6511   23.0342 C   0  0  0  0  0  0
  -26.4516  -31.6569   25.0726 C   0  0  0  0  0  0
  -25.3738  -31.3719   26.1445 C   0  0  0  0  0  0
  -27.0369  -30.2987   24.6224 C   0  0  0  0  0  0
  -27.6075  -32.4304   25.7497 C   0  0  0  0  0  0
  -27.5587  -37.1790   24.8464 C   0  0  0  0  0  0
  -21.4222  -29.3050   22.3638 N   0  0  0  0  0  0
  -26.4295  -37.3767   23.9409 N   0  0  0  0  0  0
  -24.6989  -31.0505   22.0972 N   0  0  0  0  0  0
  -23.4206  -28.8141   23.3001 O   0  0  0  0  0  0
  -28.2930  -26.3381   20.2060 O   0  0  0  0  0  0
  -26.5625  -34.8908   22.4667 O   0  0  0  0  0  0
  -23.5474  -32.1381   23.7272 O   0  0  0  0  0  0
  -28.2517  -20.2677   23.3819 C   0  0  0  0  0  0
  -28.8524  -19.2301   22.6424 C   0  0  0  0  0  0
  -28.0879  -21.3374   22.5560 C   0  0  0  0  0  0
  -29.0645  -19.6509   21.3590 C   0  0  0  0  0  0
  -27.3519  -22.5956   22.9037 C   0  0  0  0  0  0
  -29.5535  -18.6355   20.2754 C   0  0  0  0  0  0
  -29.0169  -23.6827   20.4917 C   0  0  0  0  0  0
  -28.6714  -22.1076   20.1935 C   0  0  0  0  0  0
  -30.4121  -17.3206   20.7228 C   0  0  0  0  0  0
  -28.0129  -24.8659   20.0217 C   0  0  0  0  0  0
  -28.6758  -21.0623   21.3090 N   0  0  0  0  0  0
  -29.8888  -15.8828   20.6657 N   0  0  0  0  0  0
  -31.4688  -12.5685   19.1570 H   0  0  0  0  0  0
  -30.3718  -11.4726   19.9480 H   0  0  0  0  0  0
  -29.7860  -11.7262   17.5121 H   0  0  0  0  0  0
  -29.6409  -13.4544   17.7126 H   0  0  0  0  0  0
  -27.8795  -11.2858   18.8950 H   0  0  0  0  0  0
  -27.3803  -12.5386   17.7886 H   0  0  0  0  0  0
  -27.6305  -14.2557   19.4615 H   0  0  0  0  0  0
  -28.7210  -12.1734   21.4180 H   0  0  0  0  0  0
  -28.4267  -13.8573   21.7838 H   0  0  0  0  0  0
  -25.2786   -9.5684   22.4737 H   0  0  0  0  0  0
  -24.0032   -7.4629   22.7453 H   0  0  0  0  0  0
  -21.0864   -8.8756   19.8942 H   0  0  0  0  0  0
  -22.3708  -10.9660   19.6153 H   0  0  0  0  0  0
  -21.1992   -7.6143   23.9723 H   0  0  0  0  0  0
  -21.1484   -6.0512   25.9081 H   0  0  0  0  0  0
  -22.0605   -2.7614   23.2834 H   0  0  0  0  0  0
  -22.4117  -11.9868   22.4838 H   0  0  0  0  0  0
  -21.1071  -13.1173   22.2605 H   0  0  0  0  0  0
  -24.6456  -15.8427   20.5286 H   0  0  0  0  0  0
  -26.2585  -15.6397   20.0742 H   0  0  0  0  0  0
  -26.7221  -32.5384   23.1072 H   0  0  0  0  0  0
  -25.0105  -33.9687   25.0417 H   0  0  0  0  0  0
  -22.7267  -31.3019   21.3962 H   0  0  0  0  0  0
  -23.3763  -35.9603   23.3288 H   0  0  0  0  0  0
  -24.3592  -36.8912   22.2060 H   0  0  0  0  0  0
  -23.7239  -37.6474   23.6666 H   0  0  0  0  0  0
  -26.1249  -31.5257   20.6154 H   0  0  0  0  0  0
  -26.8532  -30.8063   22.0195 H   0  0  0  0  0  0
  -28.1126  -28.9028   21.2285 H   0  0  0  0  0  0
  -25.9400  -25.9254   18.9624 H   0  0  0  0  0  0
  -23.9765  -27.3282   18.9713 H   0  0  0  0  0  0
  -23.7772  -30.5984   19.4034 H   0  0  0  0  0  0
  -22.7661  -29.2565   19.8459 H   0  0  0  0  0  0
  -25.1301  -36.1915   25.0825 H   0  0  0  0  0  0
  -21.0002  -28.3299   24.1379 H   0  0  0  0  0  0
  -20.5711  -26.2323   23.3618 H   0  0  0  0  0  0
  -21.6664  -26.7460   22.1196 H   0  0  0  0  0  0
  -19.6945  -25.6298   21.1250 H   0  0  0  0  0  0
  -19.6724  -27.3192   20.6740 H   0  0  0  0  0  0
  -17.4230  -26.6688   21.4006 H   0  0  0  0  0  0
  -18.0342  -26.0087   22.9013 H   0  0  0  0  0  0
  -19.7950  -30.7283   24.2264 H   0  0  0  0  0  0
  -17.5024  -31.6268   24.5172 H   0  0  0  0  0  0
  -15.5366  -30.2988   23.7661 H   0  0  0  0  0  0
  -15.8685  -28.0832   22.7053 H   0  0  0  0  0  0
  -24.5925  -30.7054   25.7778 H   0  0  0  0  0  0
  -24.8914  -32.2884   26.4855 H   0  0  0  0  0  0
  -25.8054  -30.8915   27.0235 H   0  0  0  0  0  0
  -26.2960  -29.6715   24.1258 H   0  0  0  0  0  0
  -27.4071  -29.7267   25.4744 H   0  0  0  0  0  0
  -27.8827  -30.4269   23.9462 H   0  0  0  0  0  0
  -27.2699  -33.3609   26.2068 H   0  0  0  0  0  0
  -28.3885  -32.6851   25.0320 H   0  0  0  0  0  0
  -28.0743  -31.8432   26.5415 H   0  0  0  0  0  0
  -28.2595  -38.0098   24.7515 H   0  0  0  0  0  0
  -28.1094  -36.2630   24.6278 H   0  0  0  0  0  0
  -27.2307  -37.1424   25.8868 H   0  0  0  0  0  0
  -20.9411  -29.8761   21.6830 H   0  0  0  0  0  0
  -26.0176  -38.2841   24.1405 H   0  0  0  0  0  0
  -27.9150  -20.2143   24.4085 H   0  0  0  0  0  0
  -29.0484  -18.2321   23.0109 H   0  0  0  0  0  0
  -26.6217  -22.4024   23.6905 H   0  0  0  0  0  0
  -26.7928  -22.9878   22.0570 H   0  0  0  0  0  0
  -28.0224  -23.3641   23.2859 H   0  0  0  0  0  0
  -30.1702  -19.1942   19.5708 H   0  0  0  0  0  0
  -28.6973  -18.3087   19.6854 H   0  0  0  0  0  0
  -29.9684  -23.8796   19.9982 H   0  0  0  0  0  0
  -29.2609  -23.8211   21.5415 H   0  0  0  0  0  0
  -29.3499  -21.7520   19.4179 H   0  0  0  0  0  0
  -27.6837  -22.0642   19.7341 H   0  0  0  0  0  0
  -30.8425  -17.4826   21.7112 H   0  0  0  0  0  0
  -31.2857  -17.3253   20.0682 H   0  0  0  0  0  0
  -27.0594  -24.6538   20.5074 H   0  0  0  0  0  0
  -27.8404  -24.7163   18.9552 H   0  0  0  0  0  0
  -28.9024  -15.7539   20.8383 H   0  0  0  0  0  0
  1 25  1  0  0  0
  1 30  2  0  0  0
  1 82  1  0  0  0
  2  3  1  0  0  0
  2 25  1  0  0  0
  2 83  1  0  0  0
  2 84  1  0  0  0
  3  4  1  0  0  0
  3 85  1  0  0  0
  3 86  1  0  0  0
  4  5  1  0  0  0
  4 87  1  0  0  0
  4 88  1  0  0  0
  5  6  1  0  0  0
  5 26  1  0  0  0
  5 89  1  0  0  0
  6 25  1  0  0  0
  6 90  1  0  0  0
  6 91  1  0  0  0
  7  8  2  0  0  0
  7 26  1  0  0  0
  7 29  1  0  0  0
  8  9  1  0  0  0
  8 22  1  0  0  0
  9 10  1  0  0  0
  9 27  2  0  0  0
 10 11  2  0  0  0
 10 15  1  0  0  0
 11 12  1  0  0  0
 11 92  1  0  0  0
 12 13  2  0  0  0
 12 93  1  0  0  0
 13 14  1  0  0  0
 13 31  1  0  0  0
 14 15  2  0  0  0
 14 94  1  0  0  0
 15 95  1  0  0  0
 16 17  2  0  0  0
 16 21  1  0  0  0
 16 31  1  0  0  0
 17 18  1  0  0  0
 17 96  1  0  0  0
 18 19  2  0  0  0
 18 97  1  0  0  0
 19 20  1  0  0  0
 19 24  1  0  0  0
 20 21  2  0  0  0
 20 98  1  0  0  0
 21 23  1  0  0  0
 22 28  1  0  0  0
 22 32  2  0  0  0
 26 27  1  0  0  0
 28 99  1  0  0  0
 28100  1  0  0  0
 29101  1  0  0  0
 29102  1  0  0  0
 33 34  1  0  0  0
 33 66  1  0  0  0
 33 70  2  0  0  0
 34 36  1  0  0  0
 34 59  1  0  0  0
 34103  1  0  0  0
 35 44  2  0  0  0
 35 45  1  0  0  0
 35 68  1  0  0  0
 36 56  1  0  0  0
 36104  1  0  0  0
 37 39  1  0  0  0
 37 47  1  0  0  0
 37 66  1  0  0  0
 37105  1  0  0  0
 38 43  2  0  0  0
 38 46  1  0  0  0
 38 47  1  0  0  0
 39 64  1  0  0  0
 39 67  2  0  0  0
 40 52  1  0  0  0
 40 53  2  0  0  0
 40 58  1  0  0  0
 41106  1  0  0  0
 41107  1  0  0  0
 41108  1  0  0  0
 41 48  1  0  0  0
 42 43  1  0  0  0
 42 66  1  0  0  0
 42109  1  0  0  0
 42110  1  0  0  0
 43 44  1  0  0  0
 44111  1  0  0  0
 45 46  2  0  0  0
 45112  1  0  0  0
 46113  1  0  0  0
 47114  1  0  0  0
 47115  1  0  0  0
 48 56  1  0  0  0
 48 65  1  0  0  0
 48116  1  0  0  0
 49 50  1  0  0  0
 49 53  1  0  0  0
 49 64  1  0  0  0
 49117  1  0  0  0
 50 51  1  0  0  0
 50118  1  0  0  0
 50119  1  0  0  0
 51 52  1  0  0  0
 51120  1  0  0  0
 51121  1  0  0  0
 52122  1  0  0  0
 52123  1  0  0  0
 53 54  1  0  0  0
 54 55  2  0  0  0
 54124  1  0  0  0
 55 57  1  0  0  0
 55125  1  0  0  0
 56 69  2  0  0  0
 57 58  2  0  0  0
 57126  1  0  0  0
 58127  1  0  0  0
 59 60  1  0  0  0
 59 61  1  0  0  0
 59 62  1  0  0  0
 60128  1  0  0  0
 60129  1  0  0  0
 60130  1  0  0  0
 61131  1  0  0  0
 61132  1  0  0  0
 61133  1  0  0  0
 62134  1  0  0  0
 62135  1  0  0  0
 62136  1  0  0  0
 63 65  1  0  0  0
 63137  1  0  0  0
 63138  1  0  0  0
 63139  1  0  0  0
 64140  1  0  0  0
 65141  1  0  0  0
 68 80  1  0  0  0
 71 72  1  0  0  0
 71 73  2  0  0  0
 71142  1  0  0  0
 72 74  2  0  0  0
 72143  1  0  0  0
 73 75  1  0  0  0
 73 81  1  0  0  0
 74 76  1  0  0  0
 74 81  1  0  0  0
 75144  1  0  0  0
 75145  1  0  0  0
 75146  1  0  0  0
 76 79  1  0  0  0
 76147  1  0  0  0
 76148  1  0  0  0
 77 78  1  0  0  0
 77 80  1  0  0  0
 77149  1  0  0  0
 77150  1  0  0  0
 78 81  1  0  0  0
 78151  1  0  0  0
 78152  1  0  0  0
 79 82  1  0  0  0
 79153  1  0  0  0
 79154  1  0  0  0
 80155  1  0  0  0
 80156  1  0  0  0
 82157  1  0  0  0
M  ISO  4   1 100  68 101  80 101  82 100
M  END
> <chiral flag>
0

> <version>
0

> <s_m_source_file>
/data/baiqing/PycharmProjects/Reinvent-master-3.2/result/LINK_invent/BTK/process_docking_weight1_custom_sum_contain_oxygen_bond_distance_aromatic_linkinvent_7_9_3/rearranged_h_0092.sdf

> <i_m_source_file_index>
94

> <r_mmod_Potential_Energy-OPLS-2005>
182.677200317383

> <r_mmod_Stretch_Energy-OPLS-2005>
138.081069946289

> <r_mmod_Bend_Energy-OPLS-2005>
196.662628173828

> <r_mmod_Torsional_Energy-OPLS-2005>
246.998123168945

> <r_mmod_Improper_Torsional_Energy-OPLS-2005>
5.28321552276611

> <r_mmod_Van_der_Waal_Energy-OPLS-2005>
124.732269287109

> <r_mmod_Electrostatic_Energy-OPLS-2005>
-401.623046875

> <r_mmod_Solvation_Energy-OPLS-2005>
-214.880187988281

> <b_mmod_Minimization_Converged-OPLS-2005>
0

> <r_mmod_RMS_Derivative-OPLS-2005>
1.61097002029419

$$$$
