0
                    3D
 Structure written by MMmdl.
163171  0  0  1  0            999 V2000
  -30.5973  -14.7403   20.4858 C   0  0  0  0  0  0
  -30.4428  -12.4612   19.4518 C   0  0  0  0  0  0
  -29.5103  -12.4988   18.2212 C   0  0  0  0  0  0
  -28.0366  -12.3194   18.6406 C   0  0  0  0  0  0
  -27.6403  -13.2233   19.8401 C   0  0  2  0  0  0
  -28.6876  -13.1446   20.9702 C   0  0  0  0  0  0
  -25.2531  -13.8181   20.5658 C   0  0  0  0  0  0
  -24.1821  -13.0438   20.9218 C   0  0  0  0  0  0
  -24.6393  -11.6914   20.8754 C   0  0  0  0  0  0
  -23.9078  -10.4285   21.0414 C   0  0  0  0  0  0
  -24.3621   -9.4201   21.9193 C   0  0  0  0  0  0
  -23.6293   -8.2240   22.0758 C   0  0  0  0  0  0
  -22.4275   -8.0281   21.3550 C   0  0  0  0  0  0
  -21.9915   -9.0259   20.4651 C   0  0  0  0  0  0
  -22.7257  -10.2134   20.3058 C   0  0  0  0  0  0
  -21.6845   -6.0729   22.5286 C   0  0  0  0  0  0
  -21.4014   -6.5633   23.8220 C   0  0  0  0  0  0
  -21.3651   -5.6789   24.9183 C   0  0  0  0  0  0
  -21.6043   -4.3055   24.7232 C   0  0  0  0  0  0
  -21.8823   -3.8143   23.4356 C   0  0  0  0  0  0
  -21.9197   -4.6960   22.3411 C   0  0  0  0  0  0
  -22.7844  -13.5236   21.1878 C   0  0  0  0  0  0
  -22.1665   -4.2139   21.0992 F   0  0  0  0  0  0
  -21.5618   -3.4541   25.7744 F   0  0  0  0  0  0
  -29.9810  -13.5144   20.3817 N   0  0  0  0  0  0
  -26.2932  -12.9363   20.3215 N   0  0  0  0  0  0
  -25.9314  -11.6516   20.5724 N   0  0  0  0  0  0
  -22.0469  -12.8212   22.0412 N   0  0  0  0  0  0
  -25.4239  -15.1899   20.4006 N   0  0  0  0  0  0
  -31.7966  -14.8548   20.2249 O   0  0  0  0  0  0
  -21.6640   -6.8876   21.4245 O   0  0  0  0  0  0
  -22.3537  -14.5542   20.6728 O   0  0  0  0  0  0
  -24.6341  -31.8565   23.1980 C   0  0  0  0  0  0
  -25.9136  -32.4758   23.8360 C   0  0  1  0  0  0
  -27.2117  -27.2561   20.1122 C   0  0  0  0  0  0
  -25.5941  -33.8563   24.2277 N   0  0  0  0  0  0
  -23.4312  -30.4834   21.5415 C   0  0  2  0  0  0
  -24.8749  -28.9337   20.1114 C   0  0  0  0  0  0
  -22.7531  -29.4608   22.4882 C   0  0  0  0  0  0
  -18.0320  -28.1375   22.8492 C   0  0  0  0  0  0
  -24.1500  -36.7297   23.2645 C   0  0  0  0  0  0
  -25.9825  -30.7678   21.3808 C   0  0  0  0  0  0
  -26.0529  -29.3918   20.7177 C   0  0  0  0  0  0
  -27.2238  -28.5645   20.7083 C   0  0  0  0  0  0
  -26.0058  -26.8731   19.4813 C   0  0  0  0  0  0
  -24.8561  -27.6804   19.4872 C   0  0  0  0  0  0
  -23.6497  -29.8234   20.1577 C   0  0  0  0  0  0
  -25.4119  -36.3071   24.0333 C   0  0  1  0  0  0
  -20.5936  -28.3690   23.1260 C   0  0  2  0  0  0
  -20.6799  -26.9387   22.5417 C   0  0  0  0  0  0
  -19.5762  -26.6371   21.5238 C   0  0  0  0  0  0
  -18.1939  -26.7923   22.1633 C   0  0  0  0  0  0
  -19.1580  -28.8843   23.2880 C   0  0  0  0  0  0
  -18.9482  -30.1452   23.8868 C   0  0  0  0  0  0
  -17.6473  -30.6565   24.0554 C   0  0  0  0  0  0
  -25.9059  -34.9442   23.5115 C   0  0  0  0  0  0
  -16.5366  -29.9047   23.6336 C   0  0  0  0  0  0
  -16.7306  -28.6484   23.0333 C   0  0  0  0  0  0
  -26.4486  -31.6570   25.0744 C   0  0  0  0  0  0
  -25.3688  -31.3731   26.1452 C   0  0  0  0  0  0
  -27.0347  -30.2991   24.6238 C   0  0  0  0  0  0
  -27.6059  -32.4312   25.7488 C   0  0  0  0  0  0
  -27.5577  -37.1794   24.8462 C   0  0  0  0  0  0
  -21.4232  -29.3047   22.3635 N   0  0  0  0  0  0
  -26.4288  -37.3760   23.9419 N   0  0  0  0  0  0
  -24.7022  -31.0537   22.0965 N   0  0  0  0  0  0
  -23.4231  -28.8120   23.2956 O   0  0  0  0  0  0
  -28.2982  -26.3453   20.1531 O   0  0  0  0  0  0
  -26.5621  -34.8901   22.4675 O   0  0  0  0  0  0
  -23.5484  -32.1409   23.7264 O   0  0  0  0  0  0
  -29.6221  -20.9436   19.9635 C   0  0  0  0  0  0
  -30.7444  -19.4165   23.1920 C   0  0  0  0  0  0
  -29.2513  -17.4205   22.6869 C   0  0  0  0  0  0
  -31.5276  -19.1374   21.8733 C   0  0  1  0  0  0
  -30.1375  -17.1546   21.4524 C   0  0  2  0  0  0
  -30.5343  -18.5944   20.7780 C   0  0  1  0  0  0
  -32.4096  -20.3377   21.4835 C   0  0  0  0  0  0
  -28.5844  -22.1432   20.1522 C   0  0  0  0  0  0
  -29.0860  -23.6891   20.1947 C   0  0  0  0  0  0
  -27.9990  -24.8728   20.0256 C   0  0  0  0  0  0
  -29.4852  -19.7064   20.5815 N   0  0  0  0  0  0
  -29.8038  -15.8553   20.7201 N   0  0  0  0  0  0
  -29.9772  -18.2447   23.6937 N   0  3  0  0  0  0
  -30.5782  -21.1539   19.2174 O   0  0  0  0  0  0
  -31.4786  -12.6116   19.1419 H   0  0  0  0  0  0
  -30.4138  -11.4828   19.9346 H   0  0  0  0  0  0
  -29.7944  -11.7198   17.5124 H   0  0  0  0  0  0
  -29.6333  -13.4480   17.6985 H   0  0  0  0  0  0
  -27.8973  -11.2718   18.9124 H   0  0  0  0  0  0
  -27.3787  -12.5025   17.7897 H   0  0  0  0  0  0
  -27.6363  -14.2455   19.4606 H   0  0  0  0  0  0
  -28.7293  -12.1364   21.3856 H   0  0  0  0  0  0
  -28.4233  -13.8037   21.7992 H   0  0  0  0  0  0
  -25.2758   -9.5668   22.4783 H   0  0  0  0  0  0
  -23.9991   -7.4621   22.7469 H   0  0  0  0  0  0
  -21.0847   -8.8797   19.8945 H   0  0  0  0  0  0
  -22.3735  -10.9678   19.6167 H   0  0  0  0  0  0
  -21.2008   -7.6138   23.9723 H   0  0  0  0  0  0
  -21.1463   -6.0516   25.9085 H   0  0  0  0  0  0
  -22.0607   -2.7602   23.2870 H   0  0  0  0  0  0
  -22.4046  -11.9861   22.4801 H   0  0  0  0  0  0
  -21.1081  -13.1240   22.2573 H   0  0  0  0  0  0
  -24.6477  -15.8379   20.4837 H   0  0  0  0  0  0
  -26.2396  -15.6117   19.9764 H   0  0  0  0  0  0
  -26.7206  -32.5393   23.1107 H   0  0  0  0  0  0
  -25.0073  -33.9714   25.0411 H   0  0  0  0  0  0
  -22.7306  -31.3079   21.3932 H   0  0  0  0  0  0
  -23.3746  -35.9644   23.3298 H   0  0  0  0  0  0
  -24.3605  -36.8925   22.2061 H   0  0  0  0  0  0
  -23.7258  -37.6498   23.6679 H   0  0  0  0  0  0
  -26.1327  -31.5295   20.6143 H   0  0  0  0  0  0
  -26.8574  -30.8112   22.0170 H   0  0  0  0  0  0
  -28.1246  -28.9036   21.2025 H   0  0  0  0  0  0
  -25.9026  -25.9237   18.9822 H   0  0  0  0  0  0
  -23.9528  -27.3238   19.0127 H   0  0  0  0  0  0
  -23.7768  -30.6034   19.4058 H   0  0  0  0  0  0
  -22.7676  -29.2610   19.8484 H   0  0  0  0  0  0
  -25.1289  -36.1939   25.0822 H   0  0  0  0  0  0
  -21.0077  -28.3269   24.1364 H   0  0  0  0  0  0
  -20.5720  -26.2263   23.3625 H   0  0  0  0  0  0
  -21.6644  -26.7391   22.1157 H   0  0  0  0  0  0
  -19.6901  -25.6297   21.1224 H   0  0  0  0  0  0
  -19.6689  -27.3211   20.6795 H   0  0  0  0  0  0
  -17.4213  -26.6734   21.4020 H   0  0  0  0  0  0
  -18.0259  -26.0069   22.9014 H   0  0  0  0  0  0
  -19.7953  -30.7309   24.2181 H   0  0  0  0  0  0
  -17.5008  -31.6223   24.5180 H   0  0  0  0  0  0
  -15.5356  -30.2909   23.7668 H   0  0  0  0  0  0
  -15.8730  -28.0801   22.7001 H   0  0  0  0  0  0
  -24.5869  -30.7082   25.7775 H   0  0  0  0  0  0
  -24.8863  -32.2892   26.4872 H   0  0  0  0  0  0
  -25.7973  -30.8907   27.0247 H   0  0  0  0  0  0
  -26.2949  -29.6721   24.1250 H   0  0  0  0  0  0
  -27.4019  -29.7274   25.4772 H   0  0  0  0  0  0
  -27.8816  -30.4265   23.9493 H   0  0  0  0  0  0
  -27.2706  -33.3653   26.2019 H   0  0  0  0  0  0
  -28.3862  -32.6827   25.0284 H   0  0  0  0  0  0
  -28.0728  -31.8455   26.5430 H   0  0  0  0  0  0
  -28.2564  -38.0111   24.7510 H   0  0  0  0  0  0
  -28.1089  -36.2638   24.6261 H   0  0  0  0  0  0
  -27.2302  -37.1408   25.8862 H   0  0  0  0  0  0
  -20.9401  -29.8815   21.6879 H   0  0  0  0  0  0
  -26.0170  -38.2840   24.1412 H   0  0  0  0  0  0
  -30.0580  -20.2539   23.0593 H   0  0  0  0  0  0
  -31.4331  -19.7327   23.9776 H   0  0  0  0  0  0
  -28.9428  -16.4912   23.1644 H   0  0  0  0  0  0
  -28.3352  -17.9310   22.3879 H   0  0  0  0  0  0
  -32.2783  -18.3749   22.0891 H   0  0  0  0  0  0
  -31.0544  -16.7722   21.9006 H   0  0  0  0  0  0
  -31.0716  -18.4268   19.8430 H   0  0  0  0  0  0
  -31.8699  -21.2831   21.5178 H   0  0  0  0  0  0
  -32.8259  -20.2149   20.4829 H   0  0  0  0  0  0
  -33.2479  -20.4417   22.1744 H   0  0  0  0  0  0
  -27.9751  -21.9388   21.0323 H   0  0  0  0  0  0
  -27.8998  -22.0544   19.3075 H   0  0  0  0  0  0
  -29.8464  -23.8249   19.4230 H   0  0  0  0  0  0
  -29.6074  -23.8361   21.1388 H   0  0  0  0  0  0
  -27.1948  -24.6567   20.7328 H   0  0  0  0  0  0
  -27.5857  -24.7133   19.0310 H   0  0  0  0  0  0
  -28.6033  -19.5710   21.0564 H   0  0  0  0  0  0
  -28.8168  -15.6505   20.6864 H   0  0  0  0  0  0
  -29.3211  -18.5632   24.3906 H   0  0  0  0  0  0
  -30.6265  -17.6427   24.1735 H   0  0  0  0  0  0
  1 25  1  0  0  0
  1 30  2  0  0  0
  1 82  1  0  0  0
  2  3  1  0  0  0
  2 25  1  0  0  0
  2 85  1  0  0  0
  2 86  1  0  0  0
  3  4  1  0  0  0
  3 87  1  0  0  0
  3 88  1  0  0  0
  4  5  1  0  0  0
  4 89  1  0  0  0
  4 90  1  0  0  0
  5  6  1  0  0  0
  5 26  1  0  0  0
  5 91  1  0  0  0
  6 25  1  0  0  0
  6 92  1  0  0  0
  6 93  1  0  0  0
  7  8  2  0  0  0
  7 26  1  0  0  0
  7 29  1  0  0  0
  8  9  1  0  0  0
  8 22  1  0  0  0
  9 10  1  0  0  0
  9 27  2  0  0  0
 10 11  2  0  0  0
 10 15  1  0  0  0
 11 12  1  0  0  0
 11 94  1  0  0  0
 12 13  2  0  0  0
 12 95  1  0  0  0
 13 14  1  0  0  0
 13 31  1  0  0  0
 14 15  2  0  0  0
 14 96  1  0  0  0
 15 97  1  0  0  0
 16 17  2  0  0  0
 16 21  1  0  0  0
 16 31  1  0  0  0
 17 18  1  0  0  0
 17 98  1  0  0  0
 18 19  2  0  0  0
 18 99  1  0  0  0
 19 20  1  0  0  0
 19 24  1  0  0  0
 20 21  2  0  0  0
 20100  1  0  0  0
 21 23  1  0  0  0
 22 28  1  0  0  0
 22 32  2  0  0  0
 26 27  1  0  0  0
 28101  1  0  0  0
 28102  1  0  0  0
 29103  1  0  0  0
 29104  1  0  0  0
 33 34  1  0  0  0
 33 66  1  0  0  0
 33 70  2  0  0  0
 34 36  1  0  0  0
 34 59  1  0  0  0
 34105  1  0  0  0
 35 44  2  0  0  0
 35 45  1  0  0  0
 35 68  1  0  0  0
 36 56  1  0  0  0
 36106  1  0  0  0
 37 39  1  0  0  0
 37 47  1  0  0  0
 37 66  1  0  0  0
 37107  1  0  0  0
 38 43  2  0  0  0
 38 46  1  0  0  0
 38 47  1  0  0  0
 39 64  1  0  0  0
 39 67  2  0  0  0
 40 52  1  0  0  0
 40 53  2  0  0  0
 40 58  1  0  0  0
 41108  1  0  0  0
 41109  1  0  0  0
 41110  1  0  0  0
 41 48  1  0  0  0
 42 43  1  0  0  0
 42 66  1  0  0  0
 42111  1  0  0  0
 42112  1  0  0  0
 43 44  1  0  0  0
 44113  1  0  0  0
 45 46  2  0  0  0
 45114  1  0  0  0
 46115  1  0  0  0
 47116  1  0  0  0
 47117  1  0  0  0
 48 56  1  0  0  0
 48 65  1  0  0  0
 48118  1  0  0  0
 49 50  1  0  0  0
 49 53  1  0  0  0
 49 64  1  0  0  0
 49119  1  0  0  0
 50 51  1  0  0  0
 50120  1  0  0  0
 50121  1  0  0  0
 51 52  1  0  0  0
 51122  1  0  0  0
 51123  1  0  0  0
 52124  1  0  0  0
 52125  1  0  0  0
 53 54  1  0  0  0
 54 55  2  0  0  0
 54126  1  0  0  0
 55 57  1  0  0  0
 55127  1  0  0  0
 56 69  2  0  0  0
 57 58  2  0  0  0
 57128  1  0  0  0
 58129  1  0  0  0
 59 60  1  0  0  0
 59 61  1  0  0  0
 59 62  1  0  0  0
 60130  1  0  0  0
 60131  1  0  0  0
 60132  1  0  0  0
 61133  1  0  0  0
 61134  1  0  0  0
 61135  1  0  0  0
 62136  1  0  0  0
 62137  1  0  0  0
 62138  1  0  0  0
 63 65  1  0  0  0
 63139  1  0  0  0
 63140  1  0  0  0
 63141  1  0  0  0
 64142  1  0  0  0
 65143  1  0  0  0
 68 80  1  0  0  0
 71 78  1  0  0  0
 71 81  1  0  0  0
 71 84  2  0  0  0
 72 74  1  0  0  0
 72 83  1  0  0  0
 72144  1  0  0  0
 72145  1  0  0  0
 73 75  1  0  0  0
 73 83  1  0  0  0
 73146  1  0  0  0
 73147  1  0  0  0
 74 76  1  0  0  0
 74 77  1  0  0  0
 74148  1  0  0  0
 75 76  1  0  0  0
 75 82  1  0  0  0
 75149  1  0  0  0
 76 81  1  0  0  0
 76150  1  0  0  0
 77151  1  0  0  0
 77152  1  0  0  0
 77153  1  0  0  0
 78 79  1  0  0  0
 78154  1  0  0  0
 78155  1  0  0  0
 79 80  1  0  0  0
 79156  1  0  0  0
 79157  1  0  0  0
 80158  1  0  0  0
 80159  1  0  0  0
 81160  1  0  0  0
 82161  1  0  0  0
 83162  1  0  0  0
 83163  1  0  0  0
M  CHG  1  83   1
M  ISO  4   1 100  68 101  80 101  82 100
M  END
> <chiral flag>
0

> <version>
0

> <s_m_source_file>
/data/baiqing/PycharmProjects/Reinvent-master-3.2/result/LINK_invent/BTK/process_docking_weight1_custom_sum_contain_oxygen_bond_distance_aromatic_linkinvent_7_9_3/rearranged_h_0119.sdf

> <i_m_source_file_index>
1

> <r_mmod_Potential_Energy-OPLS-2005>
-87.1493225097656

> <r_mmod_Stretch_Energy-OPLS-2005>
133.924987792969

> <r_mmod_Bend_Energy-OPLS-2005>
220.318969726562

> <r_mmod_Torsional_Energy-OPLS-2005>
264.067413330078

> <r_mmod_Improper_Torsional_Energy-OPLS-2005>
5.31317234039307

> <r_mmod_Van_der_Waal_Energy-OPLS-2005>
141.942733764648

> <r_mmod_Electrostatic_Energy-OPLS-2005>
-395.106781005859

> <r_mmod_Solvation_Energy-OPLS-2005>
-546.364562988281

> <b_mmod_Minimization_Converged-OPLS-2005>
0

> <r_mmod_RMS_Derivative-OPLS-2005>
2.80424427986145

$$$$
1
                    3D
 Structure written by MMmdl.
180188  0  0  1  0            999 V2000
  -30.7694  -14.3622   20.6862 C   0  0  0  0  0  0
  -30.4160  -12.2903   19.3972 C   0  0  0  0  0  0
  -29.4835  -12.5250   18.1944 C   0  0  0  0  0  0
  -28.0088  -12.3773   18.6117 C   0  0  0  0  0  0
  -27.6662  -13.2013   19.8800 C   0  0  2  0  0  0
  -28.7034  -12.9479   20.9972 C   0  0  0  0  0  0
  -25.2604  -13.8144   20.5666 C   0  0  0  0  0  0
  -24.1852  -13.0436   20.9183 C   0  0  0  0  0  0
  -24.6393  -11.6900   20.8739 C   0  0  0  0  0  0
  -23.9055  -10.4291   21.0410 C   0  0  0  0  0  0
  -24.3610   -9.4206   21.9184 C   0  0  0  0  0  0
  -23.6287   -8.2241   22.0755 C   0  0  0  0  0  0
  -22.4269   -8.0281   21.3545 C   0  0  0  0  0  0
  -21.9903   -9.0255   20.4647 C   0  0  0  0  0  0
  -22.7230  -10.2135   20.3057 C   0  0  0  0  0  0
  -21.6850   -6.0735   22.5278 C   0  0  0  0  0  0
  -21.4013   -6.5640   23.8213 C   0  0  0  0  0  0
  -21.3659   -5.6792   24.9175 C   0  0  0  0  0  0
  -21.6043   -4.3055   24.7225 C   0  0  0  0  0  0
  -21.8820   -3.8146   23.4346 C   0  0  0  0  0  0
  -21.9194   -4.6962   22.3403 C   0  0  0  0  0  0
  -22.7877  -13.5248   21.1841 C   0  0  0  0  0  0
  -22.1661   -4.2148   21.0980 F   0  0  0  0  0  0
  -21.5629   -3.4539   25.7738 F   0  0  0  0  0  0
  -30.0484  -13.2343   20.4629 N   0  0  0  0  0  0
  -26.3041  -12.9308   20.3370 N   0  0  0  0  0  0
  -25.9316  -11.6473   20.5761 N   0  0  0  0  0  0
  -22.0509  -12.8244   22.0392 N   0  0  0  0  0  0
  -25.4337  -15.1848   20.4019 N   0  0  0  0  0  0
  -31.7769  -14.6648   20.0410 O   0  0  0  0  0  0
  -21.6636   -6.8877   21.4239 O   0  0  0  0  0  0
  -22.3573  -14.5561   20.6692 O   0  0  0  0  0  0
  -24.6109  -31.8705   23.2128 C   0  0  0  0  0  0
  -25.9020  -32.4839   23.8410 C   0  0  1  0  0  0
  -27.2366  -27.4708   20.0898 C   0  0  0  0  0  0
  -25.5891  -33.8637   24.2343 N   0  0  0  0  0  0
  -23.3983  -30.4923   21.5523 C   0  0  2  0  0  0
  -24.8475  -28.9618   20.1156 C   0  0  0  0  0  0
  -22.7394  -29.4659   22.5005 C   0  0  0  0  0  0
  -18.0270  -28.1368   22.8492 C   0  0  0  0  0  0
  -24.1486  -36.7321   23.2635 C   0  0  0  0  0  0
  -25.9229  -30.8451   21.3625 C   0  0  0  0  0  0
  -26.0034  -29.4802   20.7145 C   0  0  0  0  0  0
  -27.2033  -28.7379   20.7073 C   0  0  0  0  0  0
  -26.0737  -26.9607   19.4811 C   0  0  0  0  0  0
  -24.8746  -27.6976   19.4990 C   0  0  0  0  0  0
  -23.6065  -29.8236   20.1664 C   0  0  0  0  0  0
  -25.4105  -36.3123   24.0339 C   0  0  1  0  0  0
  -20.5856  -28.3648   23.1328 C   0  0  2  0  0  0
  -20.6761  -26.9389   22.5419 C   0  0  0  0  0  0
  -19.5743  -26.6379   21.5210 C   0  0  0  0  0  0
  -18.1919  -26.7918   22.1618 C   0  0  0  0  0  0
  -19.1517  -28.8824   23.2908 C   0  0  0  0  0  0
  -18.9449  -30.1433   23.8914 C   0  0  0  0  0  0
  -17.6452  -30.6578   24.0561 C   0  0  0  0  0  0
  -25.9029  -34.9487   23.5135 C   0  0  0  0  0  0
  -16.5343  -29.9083   23.6319 C   0  0  0  0  0  0
  -16.7260  -28.6498   23.0343 C   0  0  0  0  0  0
  -26.4466  -31.6607   25.0722 C   0  0  0  0  0  0
  -25.3745  -31.3703   26.1480 C   0  0  0  0  0  0
  -27.0287  -30.3053   24.6067 C   0  0  0  0  0  0
  -27.6055  -32.4316   25.7479 C   0  0  0  0  0  0
  -27.5587  -37.1807   24.8460 C   0  0  0  0  0  0
  -21.4124  -29.3020   22.3740 N   0  0  0  0  0  0
  -26.4293  -37.3805   23.9415 N   0  0  0  0  0  0
  -24.6619  -31.0828   22.1017 N   0  0  0  0  0  0
  -23.4180  -28.8204   23.3036 O   0  0  0  0  0  0
  -28.3810  -26.7193   20.0725 O   0  0  0  0  0  0
  -26.5587  -34.8931   22.4695 O   0  0  0  0  0  0
  -23.5311  -32.1444   23.7537 O   0  0  0  0  0  0
  -24.7056  -21.8331   19.1152 C   0  0  0  0  0  0
  -25.6041  -22.8637   18.4222 C   0  0  0  0  0  0
  -25.3664  -21.2432   20.3733 C   0  0  0  0  0  0
  -26.9981  -22.2798   18.1370 C   0  0  0  0  0  0
  -26.7691  -20.6411   20.0669 C   0  0  1  0  0  0
  -27.6818  -21.7411   19.4191 C   0  0  2  0  0  0
  -26.3622  -18.6160   21.5562 C   0  0  0  0  0  0
  -27.6567  -20.5413   22.5027 C   0  0  0  0  0  0
  -29.5290  -24.7792   20.9934 C   0  0  0  0  0  0
  -31.0188  -16.3436   22.1655 C   0  0  0  0  0  0
  -29.1019  -23.7575   19.9174 C   0  0  0  0  0  0
  -30.6263  -17.5979   21.3566 C   0  0  0  0  0  0
  -28.7140  -19.0693   20.7184 C   0  0  0  0  0  0
  -28.5240  -25.9170   21.2408 C   0  0  0  0  0  0
  -27.3844  -19.7350   21.2100 C   0  0  0  0  0  0
  -30.3393  -15.1320   21.6963 N   0  0  0  0  0  0
  -28.0114  -22.8484   20.3589 N   0  3  0  0  0  0
  -29.2356  -18.0208   21.6290 N   0  3  0  0  0  0
  -31.4591  -12.3909   19.0914 H   0  0  0  0  0  0
  -30.3152  -11.2671   19.7629 H   0  0  0  0  0  0
  -29.7169  -11.8217   17.3937 H   0  0  0  0  0  0
  -29.6526  -13.5224   17.7853 H   0  0  0  0  0  0
  -27.8182  -11.3189   18.7944 H   0  0  0  0  0  0
  -27.3540  -12.6653   17.7882 H   0  0  0  0  0  0
  -27.7236  -14.2545   19.6045 H   0  0  0  0  0  0
  -28.6632  -11.9063   21.3190 H   0  0  0  0  0  0
  -28.4490  -13.5305   21.8825 H   0  0  0  0  0  0
  -25.2758   -9.5681   22.4755 H   0  0  0  0  0  0
  -23.9998   -7.4632   22.7473 H   0  0  0  0  0  0
  -21.0835   -8.8773   19.8953 H   0  0  0  0  0  0
  -22.3689  -10.9675   19.6167 H   0  0  0  0  0  0
  -21.2005   -7.6147   23.9715 H   0  0  0  0  0  0
  -21.1480   -6.0523   25.9078 H   0  0  0  0  0  0
  -22.0600   -2.7608   23.2847 H   0  0  0  0  0  0
  -22.4109  -11.9893   22.4771 H   0  0  0  0  0  0
  -21.1127  -13.1275   22.2593 H   0  0  0  0  0  0
  -24.6572  -15.8320   20.4800 H   0  0  0  0  0  0
  -26.2624  -15.6025   20.0017 H   0  0  0  0  0  0
  -26.7094  -32.5571   23.1183 H   0  0  0  0  0  0
  -25.0067  -33.9808   25.0505 H   0  0  0  0  0  0
  -22.6849  -31.3071   21.4138 H   0  0  0  0  0  0
  -23.3751  -35.9652   23.3302 H   0  0  0  0  0  0
  -24.3585  -36.8929   22.2049 H   0  0  0  0  0  0
  -23.7232  -37.6526   23.6641 H   0  0  0  0  0  0
  -26.0278  -31.6103   20.5921 H   0  0  0  0  0  0
  -26.8132  -30.9033   21.9764 H   0  0  0  0  0  0
  -28.0978  -29.1313   21.1700 H   0  0  0  0  0  0
  -26.0990  -25.9981   18.9935 H   0  0  0  0  0  0
  -23.9875  -27.2941   19.0307 H   0  0  0  0  0  0
  -23.7099  -30.5978   19.4054 H   0  0  0  0  0  0
  -22.7325  -29.2392   19.8738 H   0  0  0  0  0  0
  -25.1277  -36.1995   25.0830 H   0  0  0  0  0  0
  -20.9945  -28.3213   24.1450 H   0  0  0  0  0  0
  -20.5666  -26.2253   23.3600 H   0  0  0  0  0  0
  -21.6634  -26.7442   22.1212 H   0  0  0  0  0  0
  -19.6908  -25.6297   21.1224 H   0  0  0  0  0  0
  -19.6687  -27.3199   20.6749 H   0  0  0  0  0  0
  -17.4193  -26.6669   21.4015 H   0  0  0  0  0  0
  -18.0319  -26.0054   22.9004 H   0  0  0  0  0  0
  -19.7926  -30.7238   24.2297 H   0  0  0  0  0  0
  -17.5011  -31.6262   24.5158 H   0  0  0  0  0  0
  -15.5344  -30.2992   23.7633 H   0  0  0  0  0  0
  -15.8659  -28.0823   22.7050 H   0  0  0  0  0  0
  -24.5913  -30.7056   25.7817 H   0  0  0  0  0  0
  -24.8943  -32.2858   26.4944 H   0  0  0  0  0  0
  -25.8110  -30.8862   27.0224 H   0  0  0  0  0  0
  -26.2814  -29.6823   24.1139 H   0  0  0  0  0  0
  -27.4090  -29.7279   25.4503 H   0  0  0  0  0  0
  -27.8636  -30.4383   23.9184 H   0  0  0  0  0  0
  -27.2686  -33.3605   26.2093 H   0  0  0  0  0  0
  -28.3847  -32.6892   25.0293 H   0  0  0  0  0  0
  -28.0742  -31.8415   26.5365 H   0  0  0  0  0  0
  -28.2593  -38.0118   24.7542 H   0  0  0  0  0  0
  -28.1096  -36.2653   24.6242 H   0  0  0  0  0  0
  -27.2310  -37.1405   25.8863 H   0  0  0  0  0  0
  -20.9280  -29.8750   21.6973 H   0  0  0  0  0  0
  -26.0188  -38.2881   24.1437 H   0  0  0  0  0  0
  -24.4722  -21.0280   18.4162 H   0  0  0  0  0  0
  -23.7498  -22.2901   19.3763 H   0  0  0  0  0  0
  -25.6848  -23.7538   19.0448 H   0  0  0  0  0  0
  -25.1402  -23.1894   17.4901 H   0  0  0  0  0  0
  -24.6789  -20.4910   20.7532 H   0  0  0  0  0  0
  -25.4287  -22.0055   21.1497 H   0  0  0  0  0  0
  -27.6174  -23.0188   17.6296 H   0  0  0  0  0  0
  -26.8958  -21.4631   17.4206 H   0  0  0  0  0  0
  -26.5872  -19.9340   19.2544 H   0  0  0  0  0  0
  -28.6182  -21.2801   19.1050 H   0  0  0  0  0  0
  -25.4709  -19.0085   22.0436 H   0  0  0  0  0  0
  -26.7487  -17.8798   22.2598 H   0  0  0  0  0  0
  -26.0385  -18.0757   20.6658 H   0  0  0  0  0  0
  -26.7740  -21.0884   22.8348 H   0  0  0  0  0  0
  -28.4741  -21.2529   22.3965 H   0  0  0  0  0  0
  -27.9312  -19.8854   23.3297 H   0  0  0  0  0  0
  -30.4761  -25.2264   20.6898 H   0  0  0  0  0  0
  -29.7380  -24.2640   21.9315 H   0  0  0  0  0  0
  -30.7999  -16.4884   23.2244 H   0  0  0  0  0  0
  -32.1002  -16.2028   22.1096 H   0  0  0  0  0  0
  -29.9711  -23.1520   19.6560 H   0  0  0  0  0  0
  -28.8157  -24.2897   19.0103 H   0  0  0  0  0  0
  -30.7623  -17.4129   20.2896 H   0  0  0  0  0  0
  -31.2965  -18.4201   21.6127 H   0  0  0  0  0  0
  -29.4888  -19.8287   20.6041 H   0  0  0  0  0  0
  -28.5742  -18.6228   19.7318 H   0  0  0  0  0  0
  -28.8785  -26.5475   22.0576 H   0  0  0  0  0  0
  -27.5654  -25.5022   21.5594 H   0  0  0  0  0  0
  -29.5559  -14.7827   22.2297 H   0  0  0  0  0  0
  -28.2879  -22.4342   21.2352 H   0  0  0  0  0  0
  -27.1751  -23.3839   20.5281 H   0  0  0  0  0  0
  -29.1949  -18.3597   22.5771 H   0  0  0  0  0  0
  -28.6365  -17.2143   21.5649 H   0  0  0  0  0  0
  1 25  1  0  0  0
  1 30  2  0  0  0
  1 86  1  0  0  0
  2  3  1  0  0  0
  2 25  1  0  0  0
  2 89  1  0  0  0
  2 90  1  0  0  0
  3  4  1  0  0  0
  3 91  1  0  0  0
  3 92  1  0  0  0
  4  5  1  0  0  0
  4 93  1  0  0  0
  4 94  1  0  0  0
  5  6  1  0  0  0
  5 26  1  0  0  0
  5 95  1  0  0  0
  6 25  1  0  0  0
  6 96  1  0  0  0
  6 97  1  0  0  0
  7  8  2  0  0  0
  7 26  1  0  0  0
  7 29  1  0  0  0
  8  9  1  0  0  0
  8 22  1  0  0  0
  9 10  1  0  0  0
  9 27  2  0  0  0
 10 11  2  0  0  0
 10 15  1  0  0  0
 11 12  1  0  0  0
 11 98  1  0  0  0
 12 13  2  0  0  0
 12 99  1  0  0  0
 13 14  1  0  0  0
 13 31  1  0  0  0
 14 15  2  0  0  0
 14100  1  0  0  0
 15101  1  0  0  0
 16 17  2  0  0  0
 16 21  1  0  0  0
 16 31  1  0  0  0
 17 18  1  0  0  0
 17102  1  0  0  0
 18 19  2  0  0  0
 18103  1  0  0  0
 19 20  1  0  0  0
 19 24  1  0  0  0
 20 21  2  0  0  0
 20104  1  0  0  0
 21 23  1  0  0  0
 22 28  1  0  0  0
 22 32  2  0  0  0
 26 27  1  0  0  0
 28105  1  0  0  0
 28106  1  0  0  0
 29107  1  0  0  0
 29108  1  0  0  0
 33 34  1  0  0  0
 33 66  1  0  0  0
 33 70  2  0  0  0
 34 36  1  0  0  0
 34 59  1  0  0  0
 34109  1  0  0  0
 35 44  2  0  0  0
 35 45  1  0  0  0
 35 68  1  0  0  0
 36 56  1  0  0  0
 36110  1  0  0  0
 37 39  1  0  0  0
 37 47  1  0  0  0
 37 66  1  0  0  0
 37111  1  0  0  0
 38 43  2  0  0  0
 38 46  1  0  0  0
 38 47  1  0  0  0
 39 64  1  0  0  0
 39 67  2  0  0  0
 40 52  1  0  0  0
 40 53  2  0  0  0
 40 58  1  0  0  0
 41112  1  0  0  0
 41113  1  0  0  0
 41114  1  0  0  0
 41 48  1  0  0  0
 42 43  1  0  0  0
 42 66  1  0  0  0
 42115  1  0  0  0
 42116  1  0  0  0
 43 44  1  0  0  0
 44117  1  0  0  0
 45 46  2  0  0  0
 45118  1  0  0  0
 46119  1  0  0  0
 47120  1  0  0  0
 47121  1  0  0  0
 48 56  1  0  0  0
 48 65  1  0  0  0
 48122  1  0  0  0
 49 50  1  0  0  0
 49 53  1  0  0  0
 49 64  1  0  0  0
 49123  1  0  0  0
 50 51  1  0  0  0
 50124  1  0  0  0
 50125  1  0  0  0
 51 52  1  0  0  0
 51126  1  0  0  0
 51127  1  0  0  0
 52128  1  0  0  0
 52129  1  0  0  0
 53 54  1  0  0  0
 54 55  2  0  0  0
 54130  1  0  0  0
 55 57  1  0  0  0
 55131  1  0  0  0
 56 69  2  0  0  0
 57 58  2  0  0  0
 57132  1  0  0  0
 58133  1  0  0  0
 59 60  1  0  0  0
 59 61  1  0  0  0
 59 62  1  0  0  0
 60134  1  0  0  0
 60135  1  0  0  0
 60136  1  0  0  0
 61137  1  0  0  0
 61138  1  0  0  0
 61139  1  0  0  0
 62140  1  0  0  0
 62141  1  0  0  0
 62142  1  0  0  0
 63 65  1  0  0  0
 63143  1  0  0  0
 63144  1  0  0  0
 63145  1  0  0  0
 64146  1  0  0  0
 65147  1  0  0  0
 68 84  1  0  0  0
 71 72  1  0  0  0
 71 73  1  0  0  0
 71148  1  0  0  0
 71149  1  0  0  0
 72 74  1  0  0  0
 72150  1  0  0  0
 72151  1  0  0  0
 73152  1  0  0  0
 73153  1  0  0  0
 73 75  1  0  0  0
 74 76  1  0  0  0
 74154  1  0  0  0
 74155  1  0  0  0
 75 76  1  0  0  0
 75 85  1  0  0  0
 75156  1  0  0  0
 76 87  1  0  0  0
 76157  1  0  0  0
 77158  1  0  0  0
 77159  1  0  0  0
 77160  1  0  0  0
 77 85  1  0  0  0
 78 85  1  0  0  0
 78161  1  0  0  0
 78162  1  0  0  0
 78163  1  0  0  0
 79 81  1  0  0  0
 79 84  1  0  0  0
 79164  1  0  0  0
 79165  1  0  0  0
 80 82  1  0  0  0
 80 86  1  0  0  0
 80166  1  0  0  0
 80167  1  0  0  0
 81 87  1  0  0  0
 81168  1  0  0  0
 81169  1  0  0  0
 82 88  1  0  0  0
 82170  1  0  0  0
 82171  1  0  0  0
 83 85  1  0  0  0
 83 88  1  0  0  0
 83172  1  0  0  0
 83173  1  0  0  0
 84174  1  0  0  0
 84175  1  0  0  0
 86176  1  0  0  0
 87177  1  0  0  0
 87178  1  0  0  0
 88179  1  0  0  0
 88180  1  0  0  0
M  CHG  2  87   1  88   1
M  ISO  4   1 100  68 101  84 101  86 100
M  END
> <chiral flag>
0

> <version>
0

> <s_m_source_file>
/data/baiqing/PycharmProjects/Reinvent-master-3.2/result/LINK_invent/BTK/process_docking_weight1_custom_sum_contain_oxygen_bond_distance_aromatic_linkinvent_7_9_3/rearranged_h_0119.sdf

> <i_m_source_file_index>
2

> <r_mmod_Potential_Energy-OPLS-2005>
-297.058959960938

> <r_mmod_Stretch_Energy-OPLS-2005>
39.9687957763672

> <r_mmod_Bend_Energy-OPLS-2005>
105.310958862305

> <r_mmod_Torsional_Energy-OPLS-2005>
337.280944824219

> <r_mmod_Improper_Torsional_Energy-OPLS-2005>
2.33060193061829

> <r_mmod_Van_der_Waal_Energy-OPLS-2005>
133.435958862305

> <r_mmod_Electrostatic_Energy-OPLS-2005>
20.1593971252441

> <r_mmod_Solvation_Energy-OPLS-2005>
-942.163452148438

> <b_mmod_Minimization_Converged-OPLS-2005>
0

> <r_mmod_RMS_Derivative-OPLS-2005>
0.464846462011337

$$$$
2
                    3D
 Structure written by MMmdl.
169178  0  0  1  0            999 V2000
  -30.6951  -14.4867   20.5004 C   0  0  0  0  0  0
  -30.4274  -12.2824   19.4504 C   0  0  0  0  0  0
  -29.5083  -12.4658   18.2224 C   0  0  0  0  0  0
  -28.0224  -12.3499   18.6232 C   0  0  0  0  0  0
  -27.6612  -13.2000   19.8721 C   0  0  2  0  0  0
  -28.7064  -13.0085   20.9954 C   0  0  0  0  0  0
  -25.2612  -13.8143   20.5683 C   0  0  0  0  0  0
  -24.1851  -13.0426   20.9182 C   0  0  0  0  0  0
  -24.6400  -11.6896   20.8742 C   0  0  0  0  0  0
  -23.9056  -10.4282   21.0411 C   0  0  0  0  0  0
  -24.3613   -9.4199   21.9189 C   0  0  0  0  0  0
  -23.6287   -8.2236   22.0761 C   0  0  0  0  0  0
  -22.4266   -8.0280   21.3546 C   0  0  0  0  0  0
  -21.9908   -9.0253   20.4637 C   0  0  0  0  0  0
  -22.7238  -10.2133   20.3046 C   0  0  0  0  0  0
  -21.6851   -6.0743   22.5286 C   0  0  0  0  0  0
  -21.4017   -6.5647   23.8221 C   0  0  0  0  0  0
  -21.3659   -5.6795   24.9179 C   0  0  0  0  0  0
  -21.6037   -4.3055   24.7229 C   0  0  0  0  0  0
  -21.8816   -3.8148   23.4350 C   0  0  0  0  0  0
  -21.9189   -4.6968   22.3403 C   0  0  0  0  0  0
  -22.7874  -13.5236   21.1829 C   0  0  0  0  0  0
  -22.1658   -4.2158   21.0979 F   0  0  0  0  0  0
  -21.5622   -3.4531   25.7741 F   0  0  0  0  0  0
  -30.0400  -13.2938   20.4460 N   0  0  0  0  0  0
  -26.3035  -12.9289   20.3366 N   0  0  0  0  0  0
  -25.9324  -11.6456   20.5774 N   0  0  0  0  0  0
  -22.0502  -12.8238   22.0389 N   0  0  0  0  0  0
  -25.4337  -15.1853   20.4095 N   0  0  0  0  0  0
  -31.8675  -14.6019   20.1332 O   0  0  0  0  0  0
  -21.6626   -6.8881   21.4249 O   0  0  0  0  0  0
  -22.3569  -14.5548   20.6683 O   0  0  0  0  0  0
  -24.6142  -31.8750   23.2112 C   0  0  0  0  0  0
  -25.9052  -32.4846   23.8420 C   0  0  1  0  0  0
  -27.2326  -27.4580   20.0957 C   0  0  0  0  0  0
  -25.5943  -33.8642   24.2358 N   0  0  0  0  0  0
  -23.3997  -30.4952   21.5528 C   0  0  2  0  0  0
  -24.8476  -28.9619   20.1171 C   0  0  0  0  0  0
  -22.7430  -29.4690   22.5015 C   0  0  0  0  0  0
  -18.0305  -28.1344   22.8461 C   0  0  0  0  0  0
  -24.1516  -36.7281   23.2639 C   0  0  0  0  0  0
  -25.9276  -30.8392   21.3660 C   0  0  0  0  0  0
  -26.0047  -29.4716   20.7235 C   0  0  0  0  0  0
  -27.2016  -28.7221   20.7240 C   0  0  0  0  0  0
  -26.0700  -26.9659   19.4690 C   0  0  0  0  0  0
  -24.8728  -27.7032   19.4909 C   0  0  0  0  0  0
  -23.6093  -29.8277   20.1672 C   0  0  0  0  0  0
  -25.4129  -36.3115   24.0344 C   0  0  1  0  0  0
  -20.5884  -28.3657   23.1307 C   0  0  2  0  0  0
  -20.6826  -26.9400   22.5412 C   0  0  0  0  0  0
  -19.5810  -26.6371   21.5197 C   0  0  0  0  0  0
  -18.1976  -26.7903   22.1589 C   0  0  0  0  0  0
  -19.1537  -28.8815   23.2899 C   0  0  0  0  0  0
  -18.9480  -30.1423   23.8908 C   0  0  0  0  0  0
  -17.6483  -30.6570   24.0541 C   0  0  0  0  0  0
  -25.9046  -34.9487   23.5125 C   0  0  0  0  0  0
  -16.5371  -29.9063   23.6303 C   0  0  0  0  0  0
  -16.7292  -28.6474   23.0312 C   0  0  0  0  0  0
  -26.4490  -31.6600   25.0713 C   0  0  0  0  0  0
  -25.3730  -31.3674   26.1444 C   0  0  0  0  0  0
  -27.0355  -30.3075   24.6001 C   0  0  0  0  0  0
  -27.6101  -32.4302   25.7464 C   0  0  0  0  0  0
  -27.5600  -37.1803   24.8476 C   0  0  0  0  0  0
  -21.4168  -29.3018   22.3734 N   0  0  0  0  0  0
  -26.4324  -37.3782   23.9409 N   0  0  0  0  0  0
  -24.6639  -31.0854   22.1010 N   0  0  0  0  0  0
  -23.4216  -28.8274   23.3079 O   0  0  0  0  0  0
  -28.3752  -26.7059   20.0234 O   0  0  0  0  0  0
  -26.5581  -34.8935   22.4673 O   0  0  0  0  0  0
  -23.5350  -32.1546   23.7490 O   0  0  0  0  0  0
  -28.2383  -21.1839   22.0175 C   0  0  0  0  0  0
  -27.7515  -22.4287   21.5772 C   0  0  0  0  0  0
  -29.8166  -22.3965   23.3806 C   0  0  0  0  0  0
  -29.3004  -21.1576   22.9431 C   0  0  0  0  0  0
  -28.3117  -23.6157   22.0911 C   0  0  0  0  0  0
  -31.0577  -16.6031   22.9532 C   0  0  0  0  0  0
  -31.4304  -17.9783   23.5252 C   0  0  0  0  0  0
  -30.0399  -18.2835   21.6106 C   0  0  0  0  0  0
  -30.7307  -16.9061   21.4928 C   0  0  2  0  0  0
  -26.8742  -25.5389   22.8964 C   0  0  0  0  0  0
  -29.4948  -16.3658   19.3546 C   0  0  0  0  0  0
  -29.7904  -19.8477   23.5721 C   0  0  0  0  0  0
  -28.7596  -26.0057   21.2104 C   0  0  0  0  0  0
  -27.7123  -24.9783   21.7293 C   0  0  1  0  0  0
  -29.9123  -15.8112   20.7372 C   0  0  1  0  0  0
  -29.3277  -23.5931   22.9828 N   0  0  0  0  0  0
  -30.6902  -18.9995   22.7395 N   0  3  1  0  0  0
  -31.4763  -12.3572   19.1578 H   0  0  0  0  0  0
  -30.3101  -11.2824   19.8713 H   0  0  0  0  0  0
  -29.7464  -11.7143   17.4679 H   0  0  0  0  0  0
  -29.6977  -13.4338   17.7571 H   0  0  0  0  0  0
  -27.8216  -11.2973   18.8267 H   0  0  0  0  0  0
  -27.3837  -12.6235   17.7831 H   0  0  0  0  0  0
  -27.6851  -14.2410   19.5624 H   0  0  0  0  0  0
  -28.6775  -11.9808   21.3602 H   0  0  0  0  0  0
  -28.4780  -13.6242   21.8646 H   0  0  0  0  0  0
  -25.2764   -9.5680   22.4761 H   0  0  0  0  0  0
  -23.9997   -7.4633   22.7485 H   0  0  0  0  0  0
  -21.0844   -8.8766   19.8934 H   0  0  0  0  0  0
  -22.3706  -10.9670   19.6150 H   0  0  0  0  0  0
  -21.2019   -7.6156   23.9735 H   0  0  0  0  0  0
  -21.1477   -6.0522   25.9096 H   0  0  0  0  0  0
  -22.0592   -2.7612   23.2840 H   0  0  0  0  0  0
  -22.4107  -11.9903   22.4790 H   0  0  0  0  0  0
  -21.1118  -13.1272   22.2571 H   0  0  0  0  0  0
  -24.6673  -15.8402   20.5178 H   0  0  0  0  0  0
  -26.2849  -15.6228   20.0827 H   0  0  0  0  0  0
  -26.7126  -32.5597   23.1212 H   0  0  0  0  0  0
  -25.0233  -33.9836   25.0597 H   0  0  0  0  0  0
  -22.6867  -31.3115   21.4144 H   0  0  0  0  0  0
  -23.3796  -35.9604   23.3309 H   0  0  0  0  0  0
  -24.3621  -36.8868   22.2057 H   0  0  0  0  0  0
  -23.7252  -37.6477   23.6638 H   0  0  0  0  0  0
  -26.0386  -31.6036   20.5940 H   0  0  0  0  0  0
  -26.8142  -30.8984   21.9852 H   0  0  0  0  0  0
  -28.0994  -29.1103   21.1863 H   0  0  0  0  0  0
  -26.0925  -26.0107   18.9618 H   0  0  0  0  0  0
  -23.9864  -27.3078   19.0121 H   0  0  0  0  0  0
  -23.7220  -30.6056   19.4120 H   0  0  0  0  0  0
  -22.7335  -29.2478   19.8661 H   0  0  0  0  0  0
  -25.1307  -36.1990   25.0840 H   0  0  0  0  0  0
  -20.9981  -28.3255   24.1414 H   0  0  0  0  0  0
  -20.5786  -26.2270   23.3614 H   0  0  0  0  0  0
  -21.6704  -26.7533   22.1154 H   0  0  0  0  0  0
  -19.7005  -25.6281   21.1222 H   0  0  0  0  0  0
  -19.6718  -27.3206   20.6738 H   0  0  0  0  0  0
  -17.4256  -26.6662   21.3968 H   0  0  0  0  0  0
  -18.0352  -26.0047   22.8973 H   0  0  0  0  0  0
  -19.7968  -30.7218   24.2292 H   0  0  0  0  0  0
  -17.5038  -31.6238   24.5176 H   0  0  0  0  0  0
  -15.5364  -30.2949   23.7606 H   0  0  0  0  0  0
  -15.8717  -28.0802   22.6967 H   0  0  0  0  0  0
  -24.5937  -30.6987   25.7744 H   0  0  0  0  0  0
  -24.8875  -32.2818   26.4868 H   0  0  0  0  0  0
  -25.8064  -30.8866   27.0217 H   0  0  0  0  0  0
  -26.2880  -29.6785   24.1132 H   0  0  0  0  0  0
  -27.4310  -29.7340   25.4394 H   0  0  0  0  0  0
  -27.8630  -30.4474   23.9039 H   0  0  0  0  0  0
  -27.2760  -33.3626   26.2030 H   0  0  0  0  0  0
  -28.3899  -32.6796   25.0247 H   0  0  0  0  0  0
  -28.0759  -31.8391   26.5371 H   0  0  0  0  0  0
  -28.2617  -38.0105   24.7545 H   0  0  0  0  0  0
  -28.1105  -36.2633   24.6289 H   0  0  0  0  0  0
  -27.2318  -37.1424   25.8881 H   0  0  0  0  0  0
  -20.9371  -29.8686   21.6882 H   0  0  0  0  0  0
  -26.0224  -38.2872   24.1357 H   0  0  0  0  0  0
  -27.7754  -20.2718   21.6710 H   0  0  0  0  0  0
  -26.9224  -22.4599   20.8847 H   0  0  0  0  0  0
  -30.6210  -22.4327   24.1015 H   0  0  0  0  0  0
  -30.1740  -16.2223   23.4669 H   0  0  0  0  0  0
  -31.8552  -15.8683   23.0716 H   0  0  0  0  0  0
  -32.4987  -18.1600   23.3970 H   0  0  0  0  0  0
  -31.2288  -18.0241   24.5966 H   0  0  0  0  0  0
  -28.9776  -18.1460   21.8163 H   0  0  0  0  0  0
  -30.1200  -18.8616   20.6889 H   0  0  0  0  0  0
  -31.6774  -17.0628   20.9678 H   0  0  0  0  0  0
  -26.1036  -24.8305   23.2008 H   0  0  0  0  0  0
  -26.3770  -26.4701   22.6264 H   0  0  0  0  0  0
  -27.4962  -25.7378   23.7687 H   0  0  0  0  0  0
  -28.6715  -17.0754   19.4403 H   0  0  0  0  0  0
  -29.1705  -15.5856   18.6654 H   0  0  0  0  0  0
  -30.3265  -16.8776   18.8656 H   0  0  0  0  0  0
  -28.9342  -19.2649   23.9152 H   0  0  0  0  0  0
  -30.3320  -20.1261   24.4782 H   0  0  0  0  0  0
  -29.6687  -25.4721   20.9325 H   0  0  0  0  0  0
  -29.0555  -26.7029   21.9947 H   0  0  0  0  0  0
  -27.0258  -24.7773   20.9058 H   0  0  0  0  0  0
  -29.0095  -15.6155   21.3089 H   0  0  0  0  0  0
  -31.4001  -19.6020   22.3493 H   0  0  0  0  0  0
  1 25  1  0  0  0
  1 30  2  0  0  0
  1 85  1  0  0  0
  2  3  1  0  0  0
  2 25  1  0  0  0
  2 88  1  0  0  0
  2 89  1  0  0  0
  3  4  1  0  0  0
  3 90  1  0  0  0
  3 91  1  0  0  0
  4  5  1  0  0  0
  4 92  1  0  0  0
  4 93  1  0  0  0
  5  6  1  0  0  0
  5 26  1  0  0  0
  5 94  1  0  0  0
  6 25  1  0  0  0
  6 95  1  0  0  0
  6 96  1  0  0  0
  7  8  2  0  0  0
  7 26  1  0  0  0
  7 29  1  0  0  0
  8  9  1  0  0  0
  8 22  1  0  0  0
  9 10  1  0  0  0
  9 27  2  0  0  0
 10 11  2  0  0  0
 10 15  1  0  0  0
 11 12  1  0  0  0
 11 97  1  0  0  0
 12 13  2  0  0  0
 12 98  1  0  0  0
 13 14  1  0  0  0
 13 31  1  0  0  0
 14 15  2  0  0  0
 14 99  1  0  0  0
 15100  1  0  0  0
 16 17  2  0  0  0
 16 21  1  0  0  0
 16 31  1  0  0  0
 17 18  1  0  0  0
 17101  1  0  0  0
 18 19  2  0  0  0
 18102  1  0  0  0
 19 20  1  0  0  0
 19 24  1  0  0  0
 20 21  2  0  0  0
 20103  1  0  0  0
 21 23  1  0  0  0
 22 28  1  0  0  0
 22 32  2  0  0  0
 26 27  1  0  0  0
 28104  1  0  0  0
 28105  1  0  0  0
 29106  1  0  0  0
 29107  1  0  0  0
 33 34  1  0  0  0
 33 66  1  0  0  0
 33 70  2  0  0  0
 34 36  1  0  0  0
 34 59  1  0  0  0
 34108  1  0  0  0
 35 44  2  0  0  0
 35 45  1  0  0  0
 35 68  1  0  0  0
 36 56  1  0  0  0
 36109  1  0  0  0
 37 39  1  0  0  0
 37 47  1  0  0  0
 37 66  1  0  0  0
 37110  1  0  0  0
 38 43  2  0  0  0
 38 46  1  0  0  0
 38 47  1  0  0  0
 39 64  1  0  0  0
 39 67  2  0  0  0
 40 52  1  0  0  0
 40 53  2  0  0  0
 40 58  1  0  0  0
 41111  1  0  0  0
 41112  1  0  0  0
 41113  1  0  0  0
 41 48  1  0  0  0
 42 43  1  0  0  0
 42 66  1  0  0  0
 42114  1  0  0  0
 42115  1  0  0  0
 43 44  1  0  0  0
 44116  1  0  0  0
 45 46  2  0  0  0
 45117  1  0  0  0
 46118  1  0  0  0
 47119  1  0  0  0
 47120  1  0  0  0
 48 56  1  0  0  0
 48 65  1  0  0  0
 48121  1  0  0  0
 49 50  1  0  0  0
 49 53  1  0  0  0
 49 64  1  0  0  0
 49122  1  0  0  0
 50 51  1  0  0  0
 50123  1  0  0  0
 50124  1  0  0  0
 51 52  1  0  0  0
 51125  1  0  0  0
 51126  1  0  0  0
 52127  1  0  0  0
 52128  1  0  0  0
 53 54  1  0  0  0
 54 55  2  0  0  0
 54129  1  0  0  0
 55 57  1  0  0  0
 55130  1  0  0  0
 56 69  2  0  0  0
 57 58  2  0  0  0
 57131  1  0  0  0
 58132  1  0  0  0
 59 60  1  0  0  0
 59 61  1  0  0  0
 59 62  1  0  0  0
 60133  1  0  0  0
 60134  1  0  0  0
 60135  1  0  0  0
 61136  1  0  0  0
 61137  1  0  0  0
 61138  1  0  0  0
 62139  1  0  0  0
 62140  1  0  0  0
 62141  1  0  0  0
 63 65  1  0  0  0
 63142  1  0  0  0
 63143  1  0  0  0
 63144  1  0  0  0
 64145  1  0  0  0
 65146  1  0  0  0
 68 83  1  0  0  0
 71 72  2  0  0  0
 71 74  1  0  0  0
 71147  1  0  0  0
 72 75  1  0  0  0
 72148  1  0  0  0
 73 74  2  0  0  0
 73 86  1  0  0  0
 73149  1  0  0  0
 74 82  1  0  0  0
 75 84  1  0  0  0
 75 86  2  0  0  0
 76 77  1  0  0  0
 76150  1  0  0  0
 76151  1  0  0  0
 76 79  1  0  0  0
 77 87  1  0  0  0
 77152  1  0  0  0
 77153  1  0  0  0
 78 79  1  0  0  0
 78 87  1  0  0  0
 78154  1  0  0  0
 78155  1  0  0  0
 79 85  1  0  0  0
 79156  1  0  0  0
 80157  1  0  0  0
 80158  1  0  0  0
 80159  1  0  0  0
 80 84  1  0  0  0
 81160  1  0  0  0
 81161  1  0  0  0
 81162  1  0  0  0
 81 85  1  0  0  0
 82163  1  0  0  0
 82164  1  0  0  0
 82 87  1  0  0  0
 83 84  1  0  0  0
 83165  1  0  0  0
 83166  1  0  0  0
 84167  1  0  0  0
 85168  1  0  0  0
 87169  1  0  0  0
M  CHG  1  87   1
M  ISO  4   1 100  68 101  83 101  85 100
M  END
> <chiral flag>
0

> <version>
0

> <s_m_source_file>
/data/baiqing/PycharmProjects/Reinvent-master-3.2/result/LINK_invent/BTK/process_docking_weight1_custom_sum_contain_oxygen_bond_distance_aromatic_linkinvent_7_9_3/rearranged_h_0119.sdf

> <i_m_source_file_index>
3

> <r_mmod_Potential_Energy-OPLS-2005>
-172.607711791992

> <r_mmod_Stretch_Energy-OPLS-2005>
38.0253105163574

> <r_mmod_Bend_Energy-OPLS-2005>
126.259452819824

> <r_mmod_Torsional_Energy-OPLS-2005>
259.094635009766

> <r_mmod_Improper_Torsional_Energy-OPLS-2005>
7.05380582809448

> <r_mmod_Van_der_Waal_Energy-OPLS-2005>
141.70329284668

> <r_mmod_Electrostatic_Energy-OPLS-2005>
-323.668548583984

> <r_mmod_Solvation_Energy-OPLS-2005>
-436.775573730469

> <b_mmod_Minimization_Converged-OPLS-2005>
0

> <r_mmod_RMS_Derivative-OPLS-2005>
3.38102293014526

$$$$
3
                    3D
 Structure written by MMmdl.
173181  0  0  1  0            999 V2000
  -30.5029  -14.9739   20.4293 C   0  0  0  0  0  0
  -30.4541  -12.6093   19.4839 C   0  0  0  0  0  0
  -29.5228  -12.5287   18.2507 C   0  0  0  0  0  0
  -28.0565  -12.3121   18.6747 C   0  0  0  0  0  0
  -27.6295  -13.2438   19.8368 C   0  0  2  0  0  0
  -28.6766  -13.2668   20.9691 C   0  0  0  0  0  0
  -25.2479  -13.8205   20.5722 C   0  0  0  0  0  0
  -24.1789  -13.0430   20.9233 C   0  0  0  0  0  0
  -24.6396  -11.6916   20.8761 C   0  0  0  0  0  0
  -23.9081  -10.4290   21.0413 C   0  0  0  0  0  0
  -24.3633   -9.4208   21.9182 C   0  0  0  0  0  0
  -23.6311   -8.2242   22.0749 C   0  0  0  0  0  0
  -22.4291   -8.0287   21.3540 C   0  0  0  0  0  0
  -21.9929   -9.0260   20.4642 C   0  0  0  0  0  0
  -22.7256  -10.2134   20.3057 C   0  0  0  0  0  0
  -21.6858   -6.0744   22.5283 C   0  0  0  0  0  0
  -21.4014   -6.5643   23.8215 C   0  0  0  0  0  0
  -21.3664   -5.6792   24.9174 C   0  0  0  0  0  0
  -21.6043   -4.3059   24.7221 C   0  0  0  0  0  0
  -21.8824   -3.8152   23.4344 C   0  0  0  0  0  0
  -21.9196   -4.6971   22.3400 C   0  0  0  0  0  0
  -22.7814  -13.5201   21.1878 C   0  0  0  0  0  0
  -22.1664   -4.2162   21.0978 F   0  0  0  0  0  0
  -21.5629   -3.4540   25.7730 F   0  0  0  0  0  0
  -29.9438  -13.6980   20.3634 N   0  0  0  0  0  0
  -26.2891  -12.9421   20.3248 N   0  0  0  0  0  0
  -25.9325  -11.6555   20.5739 N   0  0  0  0  0  0
  -22.0466  -12.8192   22.0446 N   0  0  0  0  0  0
  -25.4125  -15.1930   20.4123 N   0  0  0  0  0  0
  -31.7174  -15.0782   20.2307 O   0  0  0  0  0  0
  -21.6651   -6.8889   21.4243 O   0  0  0  0  0  0
  -22.3504  -14.5508   20.6730 O   0  0  0  0  0  0
  -24.6448  -31.8424   23.1848 C   0  0  0  0  0  0
  -25.9209  -32.4686   23.8252 C   0  0  1  0  0  0
  -27.2214  -27.1207   20.1671 C   0  0  0  0  0  0
  -25.5950  -33.8495   24.2176 N   0  0  0  0  0  0
  -23.4498  -30.4588   21.5314 C   0  0  2  0  0  0
  -24.8992  -28.8743   20.1177 C   0  0  0  0  0  0
  -22.7572  -29.4539   22.4864 C   0  0  0  0  0  0
  -18.0305  -28.1396   22.8476 C   0  0  0  0  0  0
  -24.1492  -36.7252   23.2644 C   0  0  0  0  0  0
  -26.0054  -30.7117   21.3835 C   0  0  0  0  0  0
  -26.0769  -29.3187   20.7317 C   0  0  0  0  0  0
  -27.2418  -28.4607   20.7316 C   0  0  0  0  0  0
  -26.0165  -26.7725   19.5213 C   0  0  0  0  0  0
  -24.8822  -27.6154   19.4955 C   0  0  0  0  0  0
  -23.6772  -29.7802   20.1538 C   0  0  0  0  0  0
  -25.4123  -36.3028   24.0316 C   0  0  1  0  0  0
  -20.5916  -28.3723   23.1235 C   0  0  2  0  0  0
  -20.6788  -26.9426   22.5405 C   0  0  0  0  0  0
  -19.5761  -26.6381   21.5213 C   0  0  0  0  0  0
  -18.1944  -26.7935   22.1625 C   0  0  0  0  0  0
  -19.1563  -28.8879   23.2848 C   0  0  0  0  0  0
  -18.9479  -30.1474   23.8873 C   0  0  0  0  0  0
  -17.6474  -30.6593   24.0558 C   0  0  0  0  0  0
  -25.9075  -34.9405   23.5057 C   0  0  0  0  0  0
  -16.5365  -29.9084   23.6337 C   0  0  0  0  0  0
  -16.7290  -28.6502   23.0357 C   0  0  0  0  0  0
  -26.4527  -31.6562   25.0705 C   0  0  0  0  0  0
  -25.3707  -31.3753   26.1398 C   0  0  0  0  0  0
  -27.0395  -30.2957   24.6290 C   0  0  0  0  0  0
  -27.6055  -32.4332   25.7493 C   0  0  0  0  0  0
  -27.5574  -37.1781   24.8463 C   0  0  0  0  0  0
  -21.4261  -29.3048   22.3607 N   0  0  0  0  0  0
  -26.4282  -37.3743   23.9412 N   0  0  0  0  0  0
  -24.7198  -31.0262   22.0884 N   0  0  0  0  0  0
  -23.4209  -28.8102   23.3031 O   0  0  0  0  0  0
  -28.2922  -26.1527   20.1711 O   0  0  0  0  0  0
  -26.5667  -34.8907   22.4640 O   0  0  0  0  0  0
  -23.5563  -32.1306   23.7066 O   0  0  0  0  0  0
  -30.1115  -21.0543   18.4388 C   0  0  0  0  0  0
  -30.2948  -18.2298   18.4754 C   0  0  0  0  0  0
  -30.0280  -18.9664   19.8167 C   0  0  2  0  0  0
  -30.3156  -20.2326   17.1533 C   0  0  1  0  0  0
  -28.2168  -17.9740   21.4066 C   0  0  0  0  0  0
  -31.3478  -20.1252   14.8010 C   0  0  0  0  0  0
  -30.2877  -22.2663   15.5611 C   0  0  0  0  0  0
  -30.0441  -21.6849   21.5740 C   0  0  0  0  0  0
  -28.7744  -23.2660   19.8518 C   0  0  0  0  0  0
  -28.1177  -24.6504   20.5808 C   0  0  0  0  0  0
  -29.6052  -17.6787   20.8245 C   0  0  1  0  0  0
  -31.0570  -21.0141   16.0287 C   0  0  0  0  0  0
  -28.9997  -21.6564   20.4499 C   0  0  1  0  0  0
  -29.3506  -20.4067   19.5387 N   0  0  0  0  0  0
  -29.6381  -16.1071   20.5020 N   0  0  0  0  0  0
  -31.0662  -19.0354   17.5261 N   0  3  0  0  0  0
  -31.4790  -12.8029   19.1628 H   0  0  0  0  0  0
  -30.4784  -11.6584   20.0199 H   0  0  0  0  0  0
  -29.8406  -11.7230   17.5876 H   0  0  0  0  0  0
  -29.6053  -13.4526   17.6754 H   0  0  0  0  0  0
  -27.9544  -11.2719   18.9853 H   0  0  0  0  0  0
  -27.3903  -12.4366   17.8209 H   0  0  0  0  0  0
  -27.5914  -14.2456   19.4069 H   0  0  0  0  0  0
  -28.7738  -12.2854   21.4366 H   0  0  0  0  0  0
  -28.3746  -13.9585   21.7587 H   0  0  0  0  0  0
  -25.2773   -9.5693   22.4770 H   0  0  0  0  0  0
  -24.0020   -7.4636   22.7468 H   0  0  0  0  0  0
  -21.0857   -8.8782   19.8958 H   0  0  0  0  0  0
  -22.3708  -10.9681   19.6183 H   0  0  0  0  0  0
  -21.2009   -7.6154   23.9722 H   0  0  0  0  0  0
  -21.1474   -6.0521   25.9078 H   0  0  0  0  0  0
  -22.0599   -2.7619   23.2834 H   0  0  0  0  0  0
  -22.4082  -11.9858   22.4840 H   0  0  0  0  0  0
  -21.1083  -13.1226   22.2656 H   0  0  0  0  0  0
  -24.6362  -15.8361   20.5210 H   0  0  0  0  0  0
  -26.2408  -15.6373   20.0405 H   0  0  0  0  0  0
  -26.7279  -32.5290   23.0986 H   0  0  0  0  0  0
  -25.0067  -33.9600   25.0303 H   0  0  0  0  0  0
  -22.7534  -31.2847   21.3723 H   0  0  0  0  0  0
  -23.3760  -35.9574   23.3282 H   0  0  0  0  0  0
  -24.3578  -36.8910   22.2062 H   0  0  0  0  0  0
  -23.7234  -37.6437   23.6696 H   0  0  0  0  0  0
  -26.1587  -31.4615   20.6069 H   0  0  0  0  0  0
  -26.8758  -30.7673   22.0247 H   0  0  0  0  0  0
  -28.1451  -28.8022   21.2170 H   0  0  0  0  0  0
  -25.9412  -25.8075   19.0412 H   0  0  0  0  0  0
  -23.9837  -27.2699   19.0032 H   0  0  0  0  0  0
  -23.8169  -30.5504   19.3940 H   0  0  0  0  0  0
  -22.7913  -29.2223   19.8446 H   0  0  0  0  0  0
  -25.1310  -36.1852   25.0806 H   0  0  0  0  0  0
  -21.0010  -28.3314   24.1356 H   0  0  0  0  0  0
  -20.5677  -26.2341   23.3627 H   0  0  0  0  0  0
  -21.6654  -26.7428   22.1205 H   0  0  0  0  0  0
  -19.6922  -25.6286   21.1258 H   0  0  0  0  0  0
  -19.6695  -27.3178   20.6731 H   0  0  0  0  0  0
  -17.4212  -26.6681   21.4028 H   0  0  0  0  0  0
  -18.0341  -26.0081   22.9025 H   0  0  0  0  0  0
  -19.7953  -30.7296   24.2234 H   0  0  0  0  0  0
  -17.5027  -31.6268   24.5164 H   0  0  0  0  0  0
  -15.5364  -30.2976   23.7672 H   0  0  0  0  0  0
  -15.8693  -28.0811   22.7087 H   0  0  0  0  0  0
  -24.5888  -30.7103   25.7713 H   0  0  0  0  0  0
  -24.8896  -32.2936   26.4773 H   0  0  0  0  0  0
  -25.7985  -30.8954   27.0208 H   0  0  0  0  0  0
  -26.3013  -29.6675   24.1293 H   0  0  0  0  0  0
  -27.4002  -29.7264   25.4867 H   0  0  0  0  0  0
  -27.8921  -30.4195   23.9611 H   0  0  0  0  0  0
  -27.2646  -33.3657   26.2001 H   0  0  0  0  0  0
  -28.3900  -32.6849   25.0345 H   0  0  0  0  0  0
  -28.0681  -31.8500   26.5464 H   0  0  0  0  0  0
  -28.2578  -38.0093   24.7522 H   0  0  0  0  0  0
  -28.1087  -36.2621   24.6274 H   0  0  0  0  0  0
  -27.2296  -37.1407   25.8868 H   0  0  0  0  0  0
  -20.9485  -29.8751   21.6770 H   0  0  0  0  0  0
  -26.0149  -38.2810   24.1417 H   0  0  0  0  0  0
  -29.5683  -21.9148   18.0758 H   0  0  0  0  0  0
  -31.0710  -21.4193   18.8122 H   0  0  0  0  0  0
  -29.3603  -17.8882   18.0276 H   0  0  0  0  0  0
  -30.9010  -17.3409   18.6454 H   0  0  0  0  0  0
  -31.0140  -19.2478   20.1907 H   0  0  0  0  0  0
  -29.3402  -19.9305   16.7673 H   0  0  0  0  0  0
  -28.1617  -18.9875   21.8059 H   0  0  0  0  0  0
  -27.9717  -17.2925   22.2218 H   0  0  0  0  0  0
  -27.4417  -17.8824   20.6455 H   0  0  0  0  0  0
  -32.0394  -19.3143   15.0336 H   0  0  0  0  0  0
  -31.8097  -20.7038   13.9993 H   0  0  0  0  0  0
  -30.4329  -19.6848   14.3997 H   0  0  0  0  0  0
  -30.2058  -23.0206   16.3440 H   0  0  0  0  0  0
  -29.2792  -22.0166   15.2283 H   0  0  0  0  0  0
  -30.7955  -22.7504   14.7260 H   0  0  0  0  0  0
  -29.7997  -22.4482   22.3131 H   0  0  0  0  0  0
  -31.0401  -21.9060   21.1901 H   0  0  0  0  0  0
  -30.0909  -20.7312   22.1005 H   0  0  0  0  0  0
  -29.7562  -23.5953   19.5102 H   0  0  0  0  0  0
  -28.1713  -23.1716   18.9477 H   0  0  0  0  0  0
  -28.4864  -24.6318   21.6069 H   0  0  0  0  0  0
  -27.0488  -24.4667   20.6873 H   0  0  0  0  0  0
  -30.2914  -17.7651   21.6694 H   0  0  0  0  0  0
  -32.0166  -21.3573   16.4197 H   0  0  0  0  0  0
  -28.0536  -21.3865   20.9237 H   0  0  0  0  0  0
  -28.6935  -15.7559   20.4904 H   0  0  0  0  0  0
  -31.2563  -18.4913   16.7017 H   0  0  0  0  0  0
  -31.9427  -19.3006   17.9433 H   0  0  0  0  0  0
  1 25  1  0  0  0
  1 30  2  0  0  0
  1 85  1  0  0  0
  2  3  1  0  0  0
  2 25  1  0  0  0
  2 87  1  0  0  0
  2 88  1  0  0  0
  3  4  1  0  0  0
  3 89  1  0  0  0
  3 90  1  0  0  0
  4  5  1  0  0  0
  4 91  1  0  0  0
  4 92  1  0  0  0
  5  6  1  0  0  0
  5 26  1  0  0  0
  5 93  1  0  0  0
  6 25  1  0  0  0
  6 94  1  0  0  0
  6 95  1  0  0  0
  7  8  2  0  0  0
  7 26  1  0  0  0
  7 29  1  0  0  0
  8  9  1  0  0  0
  8 22  1  0  0  0
  9 10  1  0  0  0
  9 27  2  0  0  0
 10 11  2  0  0  0
 10 15  1  0  0  0
 11 12  1  0  0  0
 11 96  1  0  0  0
 12 13  2  0  0  0
 12 97  1  0  0  0
 13 14  1  0  0  0
 13 31  1  0  0  0
 14 15  2  0  0  0
 14 98  1  0  0  0
 15 99  1  0  0  0
 16 17  2  0  0  0
 16 21  1  0  0  0
 16 31  1  0  0  0
 17 18  1  0  0  0
 17100  1  0  0  0
 18 19  2  0  0  0
 18101  1  0  0  0
 19 20  1  0  0  0
 19 24  1  0  0  0
 20 21  2  0  0  0
 20102  1  0  0  0
 21 23  1  0  0  0
 22 28  1  0  0  0
 22 32  2  0  0  0
 26 27  1  0  0  0
 28103  1  0  0  0
 28104  1  0  0  0
 29105  1  0  0  0
 29106  1  0  0  0
 33 34  1  0  0  0
 33 66  1  0  0  0
 33 70  2  0  0  0
 34 36  1  0  0  0
 34 59  1  0  0  0
 34107  1  0  0  0
 35 44  2  0  0  0
 35 45  1  0  0  0
 35 68  1  0  0  0
 36 56  1  0  0  0
 36108  1  0  0  0
 37 39  1  0  0  0
 37 47  1  0  0  0
 37 66  1  0  0  0
 37109  1  0  0  0
 38 43  2  0  0  0
 38 46  1  0  0  0
 38 47  1  0  0  0
 39 64  1  0  0  0
 39 67  2  0  0  0
 40 52  1  0  0  0
 40 53  2  0  0  0
 40 58  1  0  0  0
 41110  1  0  0  0
 41111  1  0  0  0
 41112  1  0  0  0
 41 48  1  0  0  0
 42 43  1  0  0  0
 42 66  1  0  0  0
 42113  1  0  0  0
 42114  1  0  0  0
 43 44  1  0  0  0
 44115  1  0  0  0
 45 46  2  0  0  0
 45116  1  0  0  0
 46117  1  0  0  0
 47118  1  0  0  0
 47119  1  0  0  0
 48 56  1  0  0  0
 48 65  1  0  0  0
 48120  1  0  0  0
 49 50  1  0  0  0
 49 53  1  0  0  0
 49 64  1  0  0  0
 49121  1  0  0  0
 50 51  1  0  0  0
 50122  1  0  0  0
 50123  1  0  0  0
 51 52  1  0  0  0
 51124  1  0  0  0
 51125  1  0  0  0
 52126  1  0  0  0
 52127  1  0  0  0
 53 54  1  0  0  0
 54 55  2  0  0  0
 54128  1  0  0  0
 55 57  1  0  0  0
 55129  1  0  0  0
 56 69  2  0  0  0
 57 58  2  0  0  0
 57130  1  0  0  0
 58131  1  0  0  0
 59 60  1  0  0  0
 59 61  1  0  0  0
 59 62  1  0  0  0
 60132  1  0  0  0
 60133  1  0  0  0
 60134  1  0  0  0
 61135  1  0  0  0
 61136  1  0  0  0
 61137  1  0  0  0
 62138  1  0  0  0
 62139  1  0  0  0
 62140  1  0  0  0
 63 65  1  0  0  0
 63141  1  0  0  0
 63142  1  0  0  0
 63143  1  0  0  0
 64144  1  0  0  0
 65145  1  0  0  0
 68 80  1  0  0  0
 71 84  1  0  0  0
 71146  1  0  0  0
 71147  1  0  0  0
 71 74  1  0  0  0
 72 86  1  0  0  0
 72148  1  0  0  0
 72149  1  0  0  0
 72 73  1  0  0  0
 73 81  1  0  0  0
 73 84  1  0  0  0
 73150  1  0  0  0
 74 82  1  0  0  0
 74 86  1  0  0  0
 74151  1  0  0  0
 75152  1  0  0  0
 75153  1  0  0  0
 75154  1  0  0  0
 75 81  1  0  0  0
 76155  1  0  0  0
 76156  1  0  0  0
 76157  1  0  0  0
 76 82  1  0  0  0
 77 82  1  0  0  0
 77158  1  0  0  0
 77159  1  0  0  0
 77160  1  0  0  0
 78161  1  0  0  0
 78162  1  0  0  0
 78163  1  0  0  0
 78 83  1  0  0  0
 79 80  1  0  0  0
 79 83  1  0  0  0
 79164  1  0  0  0
 79165  1  0  0  0
 80166  1  0  0  0
 80167  1  0  0  0
 81 85  1  0  0  0
 81168  1  0  0  0
 82169  1  0  0  0
 83 84  1  0  0  0
 83170  1  0  0  0
 85171  1  0  0  0
 86172  1  0  0  0
 86173  1  0  0  0
M  CHG  1  86   1
M  ISO  4   1 100  68 101  80 101  85 100
M  END
> <chiral flag>
0

> <version>
0

> <s_m_source_file>
/data/baiqing/PycharmProjects/Reinvent-master-3.2/result/LINK_invent/BTK/process_docking_weight1_custom_sum_contain_oxygen_bond_distance_aromatic_linkinvent_7_9_3/rearranged_h_0119.sdf

> <i_m_source_file_index>
4

> <r_mmod_Potential_Energy-OPLS-2005>
611.657775878906

> <r_mmod_Stretch_Energy-OPLS-2005>
333.594787597656

> <r_mmod_Bend_Energy-OPLS-2005>
396.683563232422

> <r_mmod_Torsional_Energy-OPLS-2005>
287.187561035156

> <r_mmod_Improper_Torsional_Energy-OPLS-2005>
5.15904235839844

> <r_mmod_Van_der_Waal_Energy-OPLS-2005>
125.367393493652

> <r_mmod_Electrostatic_Energy-OPLS-2005>
-309.88720703125

> <r_mmod_Solvation_Energy-OPLS-2005>
-434.478576660156

> <b_mmod_Minimization_Converged-OPLS-2005>
0

> <r_mmod_RMS_Derivative-OPLS-2005>
1.75041997432709

$$$$
4
                    3D
 Structure written by MMmdl.
167175  0  0  1  0            999 V2000
  -30.4840  -15.0481   20.3840 C   0  0  0  0  0  0
  -30.4406  -12.6433   19.5283 C   0  0  0  0  0  0
  -29.5311  -12.5551   18.2786 C   0  0  0  0  0  0
  -28.0690  -12.3139   18.6963 C   0  0  0  0  0  0
  -27.6297  -13.2482   19.8522 C   0  0  2  0  0  0
  -28.6678  -13.3138   20.9933 C   0  0  0  0  0  0
  -25.2441  -13.8161   20.5853 C   0  0  0  0  0  0
  -24.1743  -13.0387   20.9212 C   0  0  0  0  0  0
  -24.6377  -11.6885   20.8714 C   0  0  0  0  0  0
  -23.9078  -10.4267   21.0388 C   0  0  0  0  0  0
  -24.3628   -9.4190   21.9179 C   0  0  0  0  0  0
  -23.6298   -8.2229   22.0763 C   0  0  0  0  0  0
  -22.4274   -8.0273   21.3559 C   0  0  0  0  0  0
  -21.9901   -9.0245   20.4656 C   0  0  0  0  0  0
  -22.7242  -10.2112   20.3060 C   0  0  0  0  0  0
  -21.6858   -6.0725   22.5288 C   0  0  0  0  0  0
  -21.4014   -6.5644   23.8216 C   0  0  0  0  0  0
  -21.3665   -5.6798   24.9179 C   0  0  0  0  0  0
  -21.6051   -4.3058   24.7224 C   0  0  0  0  0  0
  -21.8824   -3.8144   23.4349 C   0  0  0  0  0  0
  -21.9184   -4.6952   22.3400 C   0  0  0  0  0  0
  -22.7772  -13.5167   21.1884 C   0  0  0  0  0  0
  -22.1660   -4.2140   21.0973 F   0  0  0  0  0  0
  -21.5623   -3.4551   25.7735 F   0  0  0  0  0  0
  -29.9364  -13.7553   20.3978 N   0  0  0  0  0  0
  -26.2880  -12.9431   20.3338 N   0  0  0  0  0  0
  -25.9321  -11.6551   20.5723 N   0  0  0  0  0  0
  -22.0419  -12.8174   22.0438 N   0  0  0  0  0  0
  -25.4029  -15.1911   20.4570 N   0  0  0  0  0  0
  -31.6676  -15.1226   20.0279 O   0  0  0  0  0  0
  -21.6637   -6.8870   21.4254 O   0  0  0  0  0  0
  -22.3488  -14.5488   20.6728 O   0  0  0  0  0  0
  -24.6467  -31.8362   23.1816 C   0  0  0  0  0  0
  -25.9211  -32.4663   23.8227 C   0  0  1  0  0  0
  -27.2184  -27.0789   20.1581 C   0  0  0  0  0  0
  -25.5935  -33.8479   24.2143 N   0  0  0  0  0  0
  -23.4548  -30.4511   21.5265 C   0  0  2  0  0  0
  -24.9072  -28.8664   20.1034 C   0  0  0  0  0  0
  -22.7588  -29.4491   22.4825 C   0  0  0  0  0  0
  -18.0304  -28.1390   22.8476 C   0  0  0  0  0  0
  -24.1489  -36.7254   23.2638 C   0  0  0  0  0  0
  -26.0125  -30.6939   21.3860 C   0  0  0  0  0  0
  -26.0825  -29.2979   20.7300 C   0  0  0  0  0  0
  -27.2334  -28.4179   20.7412 C   0  0  0  0  0  0
  -26.0192  -26.7590   19.4872 C   0  0  0  0  0  0
  -24.8920  -27.6148   19.4654 C   0  0  0  0  0  0
  -23.6855  -29.7742   20.1468 C   0  0  0  0  0  0
  -25.4125  -36.3020   24.0304 C   0  0  1  0  0  0
  -20.5920  -28.3711   23.1234 C   0  0  2  0  0  0
  -20.6784  -26.9408   22.5406 C   0  0  0  0  0  0
  -19.5762  -26.6371   21.5208 C   0  0  0  0  0  0
  -18.1945  -26.7923   22.1624 C   0  0  0  0  0  0
  -19.1561  -28.8869   23.2848 C   0  0  0  0  0  0
  -18.9469  -30.1464   23.8884 C   0  0  0  0  0  0
  -17.6466  -30.6587   24.0555 C   0  0  0  0  0  0
  -25.9075  -34.9394   23.5041 C   0  0  0  0  0  0
  -16.5359  -29.9083   23.6330 C   0  0  0  0  0  0
  -16.7286  -28.6495   23.0361 C   0  0  0  0  0  0
  -26.4518  -31.6563   25.0696 C   0  0  0  0  0  0
  -25.3679  -31.3800   26.1380 C   0  0  0  0  0  0
  -27.0369  -30.2944   24.6302 C   0  0  0  0  0  0
  -27.6039  -32.4333   25.7495 C   0  0  0  0  0  0
  -27.5577  -37.1783   24.8461 C   0  0  0  0  0  0
  -21.4272  -29.3031   22.3599 N   0  0  0  0  0  0
  -26.4284  -37.3735   23.9407 N   0  0  0  0  0  0
  -24.7252  -31.0161   22.0877 N   0  0  0  0  0  0
  -23.4209  -28.8036   23.2984 O   0  0  0  0  0  0
  -28.2706  -26.0860   20.2946 O   0  0  0  0  0  0
  -26.5667  -34.8901   22.4626 O   0  0  0  0  0  0
  -23.5572  -32.1257   23.7005 O   0  0  0  0  0  0
  -29.6336  -18.8594   20.9426 C   0  0  0  0  0  0
  -29.2728  -20.0718   20.1289 C   0  0  0  0  0  0
  -28.9475  -19.4474   18.9389 C   0  0  0  0  0  0
  -29.5915  -17.6175   20.2396 C   0  0  0  0  0  0
  -28.4712  -20.1631   17.7055 C   0  0  0  0  0  0
  -30.3637  -22.0040   21.4926 C   0  0  0  0  0  0
  -27.0403  -15.6008   16.8468 C   0  0  0  0  0  0
  -25.4483  -18.0407   18.4322 C   0  0  0  0  0  0
  -28.2379  -23.0201   20.3702 C   0  0  0  0  0  0
  -28.8317  -17.1051   17.8844 C   0  0  0  0  0  0
  -28.3687  -24.6144   19.7217 C   0  0  0  0  0  0
  -29.3980  -21.7553   20.3307 C   0  0  2  0  0  0
  -27.3428  -16.7080   17.8603 C   0  0  1  0  0  0
  -29.1295  -18.0258   18.9812 N   0  0  0  0  0  0
  -29.7003  -16.2239   20.6821 N   0  0  0  0  0  0
  -26.5273  -17.8288   17.5326 O   0  0  0  0  0  0
  -31.4757  -12.8003   19.2232 H   0  0  0  0  0  0
  -30.4370  -11.6961   20.0701 H   0  0  0  0  0  0
  -29.8666  -11.7600   17.6121 H   0  0  0  0  0  0
  -29.6096  -13.4840   17.7105 H   0  0  0  0  0  0
  -27.9891  -11.2741   19.0172 H   0  0  0  0  0  0
  -27.4012  -12.4215   17.8404 H   0  0  0  0  0  0
  -27.5820  -14.2428   19.4175 H   0  0  0  0  0  0
  -28.7750  -12.3466   21.4869 H   0  0  0  0  0  0
  -28.3441  -14.0180   21.7602 H   0  0  0  0  0  0
  -25.2780   -9.5655   22.4758 H   0  0  0  0  0  0
  -24.0000   -7.4618   22.7504 H   0  0  0  0  0  0
  -21.0814   -8.8779   19.8973 H   0  0  0  0  0  0
  -22.3715  -10.9657   19.6169 H   0  0  0  0  0  0
  -21.2029   -7.6160   23.9712 H   0  0  0  0  0  0
  -21.1486   -6.0537   25.9080 H   0  0  0  0  0  0
  -22.0590   -2.7606   23.2862 H   0  0  0  0  0  0
  -22.4035  -11.9824   22.4821 H   0  0  0  0  0  0
  -21.1047  -13.1228   22.2654 H   0  0  0  0  0  0
  -24.6306  -15.8278   20.6215 H   0  0  0  0  0  0
  -26.2667  -15.6573   20.2307 H   0  0  0  0  0  0
  -26.7279  -32.5244   23.0955 H   0  0  0  0  0  0
  -25.0069  -33.9589   25.0283 H   0  0  0  0  0  0
  -22.7582  -31.2766   21.3659 H   0  0  0  0  0  0
  -23.3750  -35.9585   23.3277 H   0  0  0  0  0  0
  -24.3571  -36.8911   22.2057 H   0  0  0  0  0  0
  -23.7239  -37.6441   23.6696 H   0  0  0  0  0  0
  -26.1653  -31.4437   20.6083 H   0  0  0  0  0  0
  -26.8844  -30.7539   22.0261 H   0  0  0  0  0  0
  -28.1271  -28.7388   21.2579 H   0  0  0  0  0  0
  -25.9106  -25.7946   19.0139 H   0  0  0  0  0  0
  -23.9928  -27.2805   18.9661 H   0  0  0  0  0  0
  -23.8245  -30.5464   19.3889 H   0  0  0  0  0  0
  -22.7995  -29.2175   19.8357 H   0  0  0  0  0  0
  -25.1314  -36.1845   25.0791 H   0  0  0  0  0  0
  -21.0004  -28.3292   24.1359 H   0  0  0  0  0  0
  -20.5664  -26.2310   23.3619 H   0  0  0  0  0  0
  -21.6647  -26.7401   22.1208 H   0  0  0  0  0  0
  -19.6922  -25.6272   21.1259 H   0  0  0  0  0  0
  -19.6712  -27.3159   20.6723 H   0  0  0  0  0  0
  -17.4204  -26.6648   21.4042 H   0  0  0  0  0  0
  -18.0364  -26.0079   22.9039 H   0  0  0  0  0  0
  -19.7944  -30.7277   24.2256 H   0  0  0  0  0  0
  -17.5017  -31.6265   24.5160 H   0  0  0  0  0  0
  -15.5358  -30.2983   23.7654 H   0  0  0  0  0  0
  -15.8683  -28.0804   22.7102 H   0  0  0  0  0  0
  -24.5850  -30.7155   25.7707 H   0  0  0  0  0  0
  -24.8880  -32.3010   26.4708 H   0  0  0  0  0  0
  -25.7933  -30.9034   27.0219 H   0  0  0  0  0  0
  -26.2982  -29.6675   24.1293 H   0  0  0  0  0  0
  -27.3944  -29.7250   25.4892 H   0  0  0  0  0  0
  -27.8913  -30.4166   23.9639 H   0  0  0  0  0  0
  -27.2626  -33.3662   26.1998 H   0  0  0  0  0  0
  -28.3905  -32.6839   25.0365 H   0  0  0  0  0  0
  -28.0637  -31.8493   26.5480 H   0  0  0  0  0  0
  -28.2574  -38.0099   24.7503 H   0  0  0  0  0  0
  -28.1087  -36.2619   24.6286 H   0  0  0  0  0  0
  -27.2286  -37.1427   25.8861 H   0  0  0  0  0  0
  -20.9477  -29.8750   21.6792 H   0  0  0  0  0  0
  -26.0143  -38.2796   24.1420 H   0  0  0  0  0  0
  -29.9373  -18.9113   21.9791 H   0  0  0  0  0  0
  -29.1791  -20.9357   17.4074 H   0  0  0  0  0  0
  -27.5174  -20.6582   17.8967 H   0  0  0  0  0  0
  -28.3297  -19.5189   16.8423 H   0  0  0  0  0  0
  -31.3160  -21.5004   21.3279 H   0  0  0  0  0  0
  -29.9471  -21.6344   22.4292 H   0  0  0  0  0  0
  -30.5716  -23.0667   21.6155 H   0  0  0  0  0  0
  -27.6671  -14.7262   17.0144 H   0  0  0  0  0  0
  -27.2132  -15.9415   15.8267 H   0  0  0  0  0  0
  -26.0020  -15.2764   16.9228 H   0  0  0  0  0  0
  -24.8757  -18.9139   18.1174 H   0  0  0  0  0  0
  -25.8134  -18.2273   19.4440 H   0  0  0  0  0  0
  -24.7759  -17.1815   18.4536 H   0  0  0  0  0  0
  -27.3714  -22.6033   19.8568 H   0  0  0  0  0  0
  -27.8827  -23.1141   21.3968 H   0  0  0  0  0  0
  -29.1455  -17.5332   16.9336 H   0  0  0  0  0  0
  -29.4450  -16.2127   18.0039 H   0  0  0  0  0  0
  -27.7532  -24.6097   18.8226 H   0  0  0  0  0  0
  -29.3770  -24.6203   19.3055 H   0  0  0  0  0  0
  -29.9608  -22.0174   19.4346 H   0  0  0  0  0  0
  -27.1031  -16.3413   18.8552 H   0  0  0  0  0  0
  -28.8942  -15.9515   21.2237 H   0  0  0  0  0  0
  1 25  1  0  0  0
  1 30  2  0  0  0
  1 85  1  0  0  0
  2  3  1  0  0  0
  2 25  1  0  0  0
  2 87  1  0  0  0
  2 88  1  0  0  0
  3  4  1  0  0  0
  3 89  1  0  0  0
  3 90  1  0  0  0
  4  5  1  0  0  0
  4 91  1  0  0  0
  4 92  1  0  0  0
  5  6  1  0  0  0
  5 26  1  0  0  0
  5 93  1  0  0  0
  6 25  1  0  0  0
  6 94  1  0  0  0
  6 95  1  0  0  0
  7  8  2  0  0  0
  7 26  1  0  0  0
  7 29  1  0  0  0
  8  9  1  0  0  0
  8 22  1  0  0  0
  9 10  1  0  0  0
  9 27  2  0  0  0
 10 11  2  0  0  0
 10 15  1  0  0  0
 11 12  1  0  0  0
 11 96  1  0  0  0
 12 13  2  0  0  0
 12 97  1  0  0  0
 13 14  1  0  0  0
 13 31  1  0  0  0
 14 15  2  0  0  0
 14 98  1  0  0  0
 15 99  1  0  0  0
 16 17  2  0  0  0
 16 21  1  0  0  0
 16 31  1  0  0  0
 17 18  1  0  0  0
 17100  1  0  0  0
 18 19  2  0  0  0
 18101  1  0  0  0
 19 20  1  0  0  0
 19 24  1  0  0  0
 20 21  2  0  0  0
 20102  1  0  0  0
 21 23  1  0  0  0
 22 28  1  0  0  0
 22 32  2  0  0  0
 26 27  1  0  0  0
 28103  1  0  0  0
 28104  1  0  0  0
 29105  1  0  0  0
 29106  1  0  0  0
 33 34  1  0  0  0
 33 66  1  0  0  0
 33 70  2  0  0  0
 34 36  1  0  0  0
 34 59  1  0  0  0
 34107  1  0  0  0
 35 44  2  0  0  0
 35 45  1  0  0  0
 35 68  1  0  0  0
 36 56  1  0  0  0
 36108  1  0  0  0
 37 39  1  0  0  0
 37 47  1  0  0  0
 37 66  1  0  0  0
 37109  1  0  0  0
 38 43  2  0  0  0
 38 46  1  0  0  0
 38 47  1  0  0  0
 39 64  1  0  0  0
 39 67  2  0  0  0
 40 52  1  0  0  0
 40 53  2  0  0  0
 40 58  1  0  0  0
 41110  1  0  0  0
 41111  1  0  0  0
 41112  1  0  0  0
 41 48  1  0  0  0
 42 43  1  0  0  0
 42 66  1  0  0  0
 42113  1  0  0  0
 42114  1  0  0  0
 43 44  1  0  0  0
 44115  1  0  0  0
 45 46  2  0  0  0
 45116  1  0  0  0
 46117  1  0  0  0
 47118  1  0  0  0
 47119  1  0  0  0
 48 56  1  0  0  0
 48 65  1  0  0  0
 48120  1  0  0  0
 49 50  1  0  0  0
 49 53  1  0  0  0
 49 64  1  0  0  0
 49121  1  0  0  0
 50 51  1  0  0  0
 50122  1  0  0  0
 50123  1  0  0  0
 51 52  1  0  0  0
 51124  1  0  0  0
 51125  1  0  0  0
 52126  1  0  0  0
 52127  1  0  0  0
 53 54  1  0  0  0
 54 55  2  0  0  0
 54128  1  0  0  0
 55 57  1  0  0  0
 55129  1  0  0  0
 56 69  2  0  0  0
 57 58  2  0  0  0
 57130  1  0  0  0
 58131  1  0  0  0
 59 60  1  0  0  0
 59 61  1  0  0  0
 59 62  1  0  0  0
 60132  1  0  0  0
 60133  1  0  0  0
 60134  1  0  0  0
 61135  1  0  0  0
 61136  1  0  0  0
 61137  1  0  0  0
 62138  1  0  0  0
 62139  1  0  0  0
 62140  1  0  0  0
 63 65  1  0  0  0
 63141  1  0  0  0
 63142  1  0  0  0
 63143  1  0  0  0
 64144  1  0  0  0
 65145  1  0  0  0
 68 81  1  0  0  0
 71 72  1  0  0  0
 71 74  2  0  0  0
 71146  1  0  0  0
 72 73  2  0  0  0
 72 82  1  0  0  0
 73 75  1  0  0  0
 73 84  1  0  0  0
 74 84  1  0  0  0
 74 85  1  0  0  0
 75147  1  0  0  0
 75148  1  0  0  0
 75149  1  0  0  0
 76150  1  0  0  0
 76151  1  0  0  0
 76152  1  0  0  0
 76 82  1  0  0  0
 77153  1  0  0  0
 77154  1  0  0  0
 77155  1  0  0  0
 77 83  1  0  0  0
 78 86  1  0  0  0
 78156  1  0  0  0
 78157  1  0  0  0
 78158  1  0  0  0
 79 81  1  0  0  0
 79 82  1  0  0  0
 79159  1  0  0  0
 79160  1  0  0  0
 80 83  1  0  0  0
 80 84  1  0  0  0
 80161  1  0  0  0
 80162  1  0  0  0
 81163  1  0  0  0
 81164  1  0  0  0
 82165  1  0  0  0
 83 86  1  0  0  0
 83166  1  0  0  0
 85167  1  0  0  0
M  ISO  4   1 100  68 101  81 101  85 100
M  END
> <chiral flag>
0

> <version>
0

> <s_m_source_file>
/data/baiqing/PycharmProjects/Reinvent-master-3.2/result/LINK_invent/BTK/process_docking_weight1_custom_sum_contain_oxygen_bond_distance_aromatic_linkinvent_7_9_3/rearranged_h_0119.sdf

> <i_m_source_file_index>
5

> <r_mmod_Potential_Energy-OPLS-2005>
729.214599609375

> <r_mmod_Stretch_Energy-OPLS-2005>
324.677703857422

> <r_mmod_Bend_Energy-OPLS-2005>
367.021057128906

> <r_mmod_Torsional_Energy-OPLS-2005>
275.837280273438

> <r_mmod_Improper_Torsional_Energy-OPLS-2005>
6.10698080062866

> <r_mmod_Van_der_Waal_Energy-OPLS-2005>
91.036506652832

> <r_mmod_Electrostatic_Energy-OPLS-2005>
-383.093170166016

> <r_mmod_Solvation_Energy-OPLS-2005>
-212.607528686523

> <b_mmod_Minimization_Converged-OPLS-2005>
0

> <r_mmod_RMS_Derivative-OPLS-2005>
2.6443510055542

$$$$
5
                    3D
 Structure written by MMmdl.
175184  0  0  1  0            999 V2000
  -30.6837  -14.5129   20.4677 C   0  0  0  0  0  0
  -30.4190  -12.3051   19.4368 C   0  0  0  0  0  0
  -29.4960  -12.4832   18.2118 C   0  0  0  0  0  0
  -28.0171  -12.3472   18.6240 C   0  0  0  0  0  0
  -27.6540  -13.2093   19.8629 C   0  0  2  0  0  0
  -28.7010  -13.0464   20.9904 C   0  0  0  0  0  0
  -25.2568  -13.8162   20.5687 C   0  0  0  0  0  0
  -24.1826  -13.0430   20.9194 C   0  0  0  0  0  0
  -24.6389  -11.6899   20.8740 C   0  0  0  0  0  0
  -23.9055  -10.4282   21.0404 C   0  0  0  0  0  0
  -24.3609   -9.4195   21.9181 C   0  0  0  0  0  0
  -23.6279   -8.2237   22.0749 C   0  0  0  0  0  0
  -22.4262   -8.0276   21.3542 C   0  0  0  0  0  0
  -21.9900   -9.0249   20.4643 C   0  0  0  0  0  0
  -22.7231  -10.2125   20.3052 C   0  0  0  0  0  0
  -21.6849   -6.0730   22.5277 C   0  0  0  0  0  0
  -21.4017   -6.5637   23.8211 C   0  0  0  0  0  0
  -21.3652   -5.6793   24.9173 C   0  0  0  0  0  0
  -21.6036   -4.3055   24.7228 C   0  0  0  0  0  0
  -21.8818   -3.8141   23.4351 C   0  0  0  0  0  0
  -21.9191   -4.6954   22.3404 C   0  0  0  0  0  0
  -22.7849  -13.5219   21.1866 C   0  0  0  0  0  0
  -22.1669   -4.2138   21.0981 F   0  0  0  0  0  0
  -21.5617   -3.4543   25.7743 F   0  0  0  0  0  0
  -30.0278  -13.3236   20.4223 N   0  0  0  0  0  0
  -26.2989  -12.9331   20.3333 N   0  0  0  0  0  0
  -25.9313  -11.6493   20.5770 N   0  0  0  0  0  0
  -22.0494  -12.8194   22.0415 N   0  0  0  0  0  0
  -25.4271  -15.1881   20.4087 N   0  0  0  0  0  0
  -31.8777  -14.6279   20.1887 O   0  0  0  0  0  0
  -21.6632   -6.8872   21.4240 O   0  0  0  0  0  0
  -22.3530  -14.5533   20.6727 O   0  0  0  0  0  0
  -24.6159  -31.8665   23.2082 C   0  0  0  0  0  0
  -25.9045  -32.4816   23.8389 C   0  0  1  0  0  0
  -27.2370  -27.4202   20.1080 C   0  0  0  0  0  0
  -25.5895  -33.8615   24.2321 N   0  0  0  0  0  0
  -23.4059  -30.4883   21.5482 C   0  0  2  0  0  0
  -24.8548  -28.9487   20.1173 C   0  0  0  0  0  0
  -22.7419  -29.4653   22.4979 C   0  0  0  0  0  0
  -18.0276  -28.1374   22.8497 C   0  0  0  0  0  0
  -24.1486  -36.7311   23.2641 C   0  0  0  0  0  0
  -25.9353  -30.8288   21.3623 C   0  0  0  0  0  0
  -26.0155  -29.4604   20.7126 C   0  0  0  0  0  0
  -27.2131  -28.7053   20.7010 C   0  0  0  0  0  0
  -26.0624  -26.9238   19.5070 C   0  0  0  0  0  0
  -24.8737  -27.6798   19.5102 C   0  0  0  0  0  0
  -23.6161  -29.8167   20.1648 C   0  0  0  0  0  0
  -25.4108  -36.3109   24.0339 C   0  0  1  0  0  0
  -20.5867  -28.3670   23.1312 C   0  0  2  0  0  0
  -20.6762  -26.9402   22.5420 C   0  0  0  0  0  0
  -19.5739  -26.6380   21.5215 C   0  0  0  0  0  0
  -18.1917  -26.7921   22.1625 C   0  0  0  0  0  0
  -19.1525  -28.8837   23.2902 C   0  0  0  0  0  0
  -18.9452  -30.1445   23.8908 C   0  0  0  0  0  0
  -17.6455  -30.6583   24.0565 C   0  0  0  0  0  0
  -25.9035  -34.9475   23.5128 C   0  0  0  0  0  0
  -16.5347  -29.9085   23.6328 C   0  0  0  0  0  0
  -16.7265  -28.6501   23.0351 C   0  0  0  0  0  0
  -26.4473  -31.6598   25.0717 C   0  0  0  0  0  0
  -25.3745  -31.3685   26.1467 C   0  0  0  0  0  0
  -27.0311  -30.3046   24.6087 C   0  0  0  0  0  0
  -27.6049  -32.4318   25.7480 C   0  0  0  0  0  0
  -27.5582  -37.1808   24.8465 C   0  0  0  0  0  0
  -21.4144  -29.3032   22.3713 N   0  0  0  0  0  0
  -26.4294  -37.3793   23.9410 N   0  0  0  0  0  0
  -24.6706  -31.0761   22.0979 N   0  0  0  0  0  0
  -23.4181  -28.8202   23.3035 O   0  0  0  0  0  0
  -28.3859  -26.6576   20.0805 O   0  0  0  0  0  0
  -26.5602  -34.8929   22.4691 O   0  0  0  0  0  0
  -23.5348  -32.1414   23.7473 O   0  0  0  0  0  0
  -32.9545  -20.6438   16.5735 C   0  0  0  0  0  0
  -31.5873  -21.1700   17.0134 C   0  0  0  0  0  0
  -32.8963  -19.7002   17.7738 C   0  0  0  0  0  0
  -29.8904  -23.4688   21.4834 C   0  0  0  0  0  0
  -28.2762  -23.2897   19.6015 C   0  0  0  0  0  0
  -30.7393  -22.3090   20.9017 C   0  0  0  0  0  0
  -29.0918  -22.1152   19.0075 C   0  0  0  0  0  0
  -29.1652  -24.2804   20.3841 C   0  0  1  0  0  0
  -31.8861  -20.6625   18.4388 C   0  0  0  0  0  0
  -29.9179  -21.3014   20.0464 C   0  0  1  0  0  0
  -30.8464  -16.8141   18.5057 C   0  0  0  0  0  0
  -28.3788  -25.5061   20.9482 C   0  0  0  0  0  0
  -30.7241  -17.9771   20.8782 C   0  0  0  0  0  0
  -30.7588  -20.1400   19.3710 C   0  0  2  0  0  0
  -30.1293  -16.9349   19.8698 C   0  0  2  0  0  0
  -29.8771  -15.5998   20.4864 N   0  0  0  0  0  0
  -31.4022  -19.2030   20.3413 N   0  3  0  0  0  0
  -31.4658  -12.3900   19.1386 H   0  0  0  0  0  0
  -30.3072  -11.3070   19.8631 H   0  0  0  0  0  0
  -29.7392  -11.7473   17.4442 H   0  0  0  0  0  0
  -29.6630  -13.4614   17.7586 H   0  0  0  0  0  0
  -27.8323  -11.2945   18.8389 H   0  0  0  0  0  0
  -27.3677  -12.6015   17.7857 H   0  0  0  0  0  0
  -27.6761  -14.2451   19.5265 H   0  0  0  0  0  0
  -28.6755  -12.0330   21.3948 H   0  0  0  0  0  0
  -28.4810  -13.7099   21.8279 H   0  0  0  0  0  0
  -25.2759   -9.5673   22.4745 H   0  0  0  0  0  0
  -23.9983   -7.4625   22.7466 H   0  0  0  0  0  0
  -21.0839   -8.8773   19.8938 H   0  0  0  0  0  0
  -22.3702  -10.9664   19.6156 H   0  0  0  0  0  0
  -21.2023   -7.6151   23.9715 H   0  0  0  0  0  0
  -21.1475   -6.0529   25.9079 H   0  0  0  0  0  0
  -22.0604   -2.7600   23.2861 H   0  0  0  0  0  0
  -22.4128  -11.9852   22.4782 H   0  0  0  0  0  0
  -21.1114  -13.1199   22.2652 H   0  0  0  0  0  0
  -24.6550  -15.8390   20.5097 H   0  0  0  0  0  0
  -26.2689  -15.6278   20.0595 H   0  0  0  0  0  0
  -26.7118  -32.5530   23.1157 H   0  0  0  0  0  0
  -25.0052  -33.9777   25.0472 H   0  0  0  0  0  0
  -22.6954  -31.3054   21.4070 H   0  0  0  0  0  0
  -23.3746  -35.9644   23.3307 H   0  0  0  0  0  0
  -24.3577  -36.8922   22.2053 H   0  0  0  0  0  0
  -23.7241  -37.6518   23.6653 H   0  0  0  0  0  0
  -26.0476  -31.5929   20.5919 H   0  0  0  0  0  0
  -26.8228  -30.8853   21.9812 H   0  0  0  0  0  0
  -28.1120  -29.0983   21.1549 H   0  0  0  0  0  0
  -26.0685  -25.9500   19.0374 H   0  0  0  0  0  0
  -23.9824  -27.2804   19.0464 H   0  0  0  0  0  0
  -23.7237  -30.5898   19.4027 H   0  0  0  0  0  0
  -22.7396  -29.2358   19.8711 H   0  0  0  0  0  0
  -25.1284  -36.1972   25.0832 H   0  0  0  0  0  0
  -20.9963  -28.3235   24.1431 H   0  0  0  0  0  0
  -20.5664  -26.2273   23.3609 H   0  0  0  0  0  0
  -21.6634  -26.7438   22.1215 H   0  0  0  0  0  0
  -19.6902  -25.6295   21.1233 H   0  0  0  0  0  0
  -19.6680  -27.3200   20.6752 H   0  0  0  0  0  0
  -17.4192  -26.6682   21.4021 H   0  0  0  0  0  0
  -18.0314  -26.0060   22.9015 H   0  0  0  0  0  0
  -19.7927  -30.7260   24.2275 H   0  0  0  0  0  0
  -17.5010  -31.6263   24.5166 H   0  0  0  0  0  0
  -15.5345  -30.2989   23.7645 H   0  0  0  0  0  0
  -15.8665  -28.0823   22.7057 H   0  0  0  0  0  0
  -24.5921  -30.7030   25.7798 H   0  0  0  0  0  0
  -24.8930  -32.2829   26.4941 H   0  0  0  0  0  0
  -25.8107  -30.8836   27.0210 H   0  0  0  0  0  0
  -26.2849  -29.6796   24.1163 H   0  0  0  0  0  0
  -27.4117  -29.7291   25.4536 H   0  0  0  0  0  0
  -27.8668  -30.4375   23.9211 H   0  0  0  0  0  0
  -27.2671  -33.3610   26.2080 H   0  0  0  0  0  0
  -28.3844  -32.6889   25.0294 H   0  0  0  0  0  0
  -28.0734  -31.8427   26.5374 H   0  0  0  0  0  0
  -28.2598  -38.0107   24.7524 H   0  0  0  0  0  0
  -28.1079  -36.2640   24.6276 H   0  0  0  0  0  0
  -27.2300  -37.1445   25.8868 H   0  0  0  0  0  0
  -20.9303  -29.8748   21.6933 H   0  0  0  0  0  0
  -26.0181  -38.2869   24.1415 H   0  0  0  0  0  0
  -33.7482  -21.3888   16.6578 H   0  0  0  0  0  0
  -32.9638  -20.1488   15.6014 H   0  0  0  0  0  0
  -30.7588  -20.6455   16.5327 H   0  0  0  0  0  0
  -31.4905  -22.2516   16.9146 H   0  0  0  0  0  0
  -33.8470  -19.5901   18.2995 H   0  0  0  0  0  0
  -32.4926  -18.7338   17.4849 H   0  0  0  0  0  0
  -30.5416  -24.1316   22.0557 H   0  0  0  0  0  0
  -29.1626  -23.0737   22.1937 H   0  0  0  0  0  0
  -27.4957  -22.8947   20.2537 H   0  0  0  0  0  0
  -27.7611  -23.8188   18.7984 H   0  0  0  0  0  0
  -31.2369  -21.7860   21.7189 H   0  0  0  0  0  0
  -31.5297  -22.7618   20.3050 H   0  0  0  0  0  0
  -29.7548  -22.5475   18.2637 H   0  0  0  0  0  0
  -28.4221  -21.4474   18.4641 H   0  0  0  0  0  0
  -29.9301  -24.6717   19.7120 H   0  0  0  0  0  0
  -32.4916  -21.4134   18.9473 H   0  0  0  0  0  0
  -29.1977  -20.8253   20.7136 H   0  0  0  0  0  0
  -30.6325  -17.6635   17.8615 H   0  0  0  0  0  0
  -30.4982  -15.9425   17.9503 H   0  0  0  0  0  0
  -31.9276  -16.7226   18.6156 H   0  0  0  0  0  0
  -28.8459  -25.8349   21.8772 H   0  0  0  0  0  0
  -27.3680  -25.1997   21.2251 H   0  0  0  0  0  0
  -31.4693  -17.4723   21.4941 H   0  0  0  0  0  0
  -29.9411  -18.2912   21.5689 H   0  0  0  0  0  0
  -30.0596  -19.5620   18.7689 H   0  0  0  0  0  0
  -29.1287  -17.2970   19.6267 H   0  0  0  0  0  0
  -28.9174  -15.4083   20.7322 H   0  0  0  0  0  0
  -32.2277  -18.8677   19.8721 H   0  0  0  0  0  0
  -31.7351  -19.7389   21.1264 H   0  0  0  0  0  0
  1 25  1  0  0  0
  1 30  2  0  0  0
  1 86  1  0  0  0
  2  3  1  0  0  0
  2 25  1  0  0  0
  2 88  1  0  0  0
  2 89  1  0  0  0
  3  4  1  0  0  0
  3 90  1  0  0  0
  3 91  1  0  0  0
  4  5  1  0  0  0
  4 92  1  0  0  0
  4 93  1  0  0  0
  5  6  1  0  0  0
  5 26  1  0  0  0
  5 94  1  0  0  0
  6 25  1  0  0  0
  6 95  1  0  0  0
  6 96  1  0  0  0
  7  8  2  0  0  0
  7 26  1  0  0  0
  7 29  1  0  0  0
  8  9  1  0  0  0
  8 22  1  0  0  0
  9 10  1  0  0  0
  9 27  2  0  0  0
 10 11  2  0  0  0
 10 15  1  0  0  0
 11 12  1  0  0  0
 11 97  1  0  0  0
 12 13  2  0  0  0
 12 98  1  0  0  0
 13 14  1  0  0  0
 13 31  1  0  0  0
 14 15  2  0  0  0
 14 99  1  0  0  0
 15100  1  0  0  0
 16 17  2  0  0  0
 16 21  1  0  0  0
 16 31  1  0  0  0
 17 18  1  0  0  0
 17101  1  0  0  0
 18 19  2  0  0  0
 18102  1  0  0  0
 19 20  1  0  0  0
 19 24  1  0  0  0
 20 21  2  0  0  0
 20103  1  0  0  0
 21 23  1  0  0  0
 22 28  1  0  0  0
 22 32  2  0  0  0
 26 27  1  0  0  0
 28104  1  0  0  0
 28105  1  0  0  0
 29106  1  0  0  0
 29107  1  0  0  0
 33 34  1  0  0  0
 33 66  1  0  0  0
 33 70  2  0  0  0
 34 36  1  0  0  0
 34 59  1  0  0  0
 34108  1  0  0  0
 35 44  2  0  0  0
 35 45  1  0  0  0
 35 68  1  0  0  0
 36 56  1  0  0  0
 36109  1  0  0  0
 37 39  1  0  0  0
 37 47  1  0  0  0
 37 66  1  0  0  0
 37110  1  0  0  0
 38 43  2  0  0  0
 38 46  1  0  0  0
 38 47  1  0  0  0
 39 64  1  0  0  0
 39 67  2  0  0  0
 40 52  1  0  0  0
 40 53  2  0  0  0
 40 58  1  0  0  0
 41111  1  0  0  0
 41112  1  0  0  0
 41113  1  0  0  0
 41 48  1  0  0  0
 42 43  1  0  0  0
 42 66  1  0  0  0
 42114  1  0  0  0
 42115  1  0  0  0
 43 44  1  0  0  0
 44116  1  0  0  0
 45 46  2  0  0  0
 45117  1  0  0  0
 46118  1  0  0  0
 47119  1  0  0  0
 47120  1  0  0  0
 48 56  1  0  0  0
 48 65  1  0  0  0
 48121  1  0  0  0
 49 50  1  0  0  0
 49 53  1  0  0  0
 49 64  1  0  0  0
 49122  1  0  0  0
 50 51  1  0  0  0
 50123  1  0  0  0
 50124  1  0  0  0
 51 52  1  0  0  0
 51125  1  0  0  0
 51126  1  0  0  0
 52127  1  0  0  0
 52128  1  0  0  0
 53 54  1  0  0  0
 54 55  2  0  0  0
 54129  1  0  0  0
 55 57  1  0  0  0
 55130  1  0  0  0
 56 69  2  0  0  0
 57 58  2  0  0  0
 57131  1  0  0  0
 58132  1  0  0  0
 59 60  1  0  0  0
 59 61  1  0  0  0
 59 62  1  0  0  0
 60133  1  0  0  0
 60134  1  0  0  0
 60135  1  0  0  0
 61136  1  0  0  0
 61137  1  0  0  0
 61138  1  0  0  0
 62139  1  0  0  0
 62140  1  0  0  0
 62141  1  0  0  0
 63 65  1  0  0  0
 63142  1  0  0  0
 63143  1  0  0  0
 63144  1  0  0  0
 64145  1  0  0  0
 65146  1  0  0  0
 68 82  1  0  0  0
 71 72  1  0  0  0
 71 73  1  0  0  0
 71147  1  0  0  0
 71148  1  0  0  0
 72149  1  0  0  0
 72150  1  0  0  0
 72 79  1  0  0  0
 73 79  1  0  0  0
 73151  1  0  0  0
 73152  1  0  0  0
 74 76  1  0  0  0
 74 78  1  0  0  0
 74153  1  0  0  0
 74154  1  0  0  0
 75 77  1  0  0  0
 75 78  1  0  0  0
 75155  1  0  0  0
 75156  1  0  0  0
 76157  1  0  0  0
 76158  1  0  0  0
 76 80  1  0  0  0
 77 80  1  0  0  0
 77159  1  0  0  0
 77160  1  0  0  0
 78 82  1  0  0  0
 78161  1  0  0  0
 79 84  1  0  0  0
 79162  1  0  0  0
 80 84  1  0  0  0
 80163  1  0  0  0
 81164  1  0  0  0
 81165  1  0  0  0
 81166  1  0  0  0
 81 85  1  0  0  0
 82167  1  0  0  0
 82168  1  0  0  0
 83 85  1  0  0  0
 83 87  1  0  0  0
 83169  1  0  0  0
 83170  1  0  0  0
 84 87  1  0  0  0
 84171  1  0  0  0
 85 86  1  0  0  0
 85172  1  0  0  0
 86173  1  0  0  0
 87174  1  0  0  0
 87175  1  0  0  0
M  CHG  1  87   1
M  ISO  4   1 100  68 101  82 101  86 100
M  END
> <chiral flag>
0

> <version>
0

> <s_m_source_file>
/data/baiqing/PycharmProjects/Reinvent-master-3.2/result/LINK_invent/BTK/process_docking_weight1_custom_sum_contain_oxygen_bond_distance_aromatic_linkinvent_7_9_3/rearranged_h_0119.sdf

> <i_m_source_file_index>
6

> <r_mmod_Potential_Energy-OPLS-2005>
-42.4089698791504

> <r_mmod_Stretch_Energy-OPLS-2005>
48.2112121582031

> <r_mmod_Bend_Energy-OPLS-2005>
143.625915527344

> <r_mmod_Torsional_Energy-OPLS-2005>
337.069763183594

> <r_mmod_Improper_Torsional_Energy-OPLS-2005>
9.98026466369629

> <r_mmod_Van_der_Waal_Energy-OPLS-2005>
129.123306274414

> <r_mmod_Electrostatic_Energy-OPLS-2005>
-292.038513183594

> <r_mmod_Solvation_Energy-OPLS-2005>
-440.184173583984

> <b_mmod_Minimization_Converged-OPLS-2005>
0

> <r_mmod_RMS_Derivative-OPLS-2005>
1.28602850437164

$$$$
6
                    3D
 Structure written by MMmdl.
152160  0  0  1  0            999 V2000
  -30.5097  -14.9928   20.4117 C   0  0  0  0  0  0
  -30.4432  -12.6070   19.5345 C   0  0  0  0  0  0
  -29.5373  -12.5388   18.2811 C   0  0  0  0  0  0
  -28.0670  -12.3228   18.6848 C   0  0  0  0  0  0
  -27.6338  -13.2550   19.8474 C   0  0  2  0  0  0
  -28.6673  -13.2883   20.9951 C   0  0  0  0  0  0
  -25.2459  -13.8235   20.5693 C   0  0  0  0  0  0
  -24.1776  -13.0450   20.9209 C   0  0  0  0  0  0
  -24.6405  -11.6936   20.8744 C   0  0  0  0  0  0
  -23.9097  -10.4301   21.0401 C   0  0  0  0  0  0
  -24.3639   -9.4213   21.9178 C   0  0  0  0  0  0
  -23.6308   -8.2248   22.0749 C   0  0  0  0  0  0
  -22.4291   -8.0288   21.3540 C   0  0  0  0  0  0
  -21.9926   -9.0270   20.4648 C   0  0  0  0  0  0
  -22.7261  -10.2142   20.3056 C   0  0  0  0  0  0
  -21.6863   -6.0742   22.5279 C   0  0  0  0  0  0
  -21.4021   -6.5640   23.8212 C   0  0  0  0  0  0
  -21.3659   -5.6785   24.9169 C   0  0  0  0  0  0
  -21.6041   -4.3048   24.7219 C   0  0  0  0  0  0
  -21.8818   -3.8150   23.4339 C   0  0  0  0  0  0
  -21.9189   -4.6968   22.3398 C   0  0  0  0  0  0
  -22.7789  -13.5221   21.1850 C   0  0  0  0  0  0
  -22.1654   -4.2147   21.0977 F   0  0  0  0  0  0
  -21.5626   -3.4530   25.7731 F   0  0  0  0  0  0
  -29.9485  -13.7110   20.4152 N   0  0  0  0  0  0
  -26.2901  -12.9480   20.3254 N   0  0  0  0  0  0
  -25.9344  -11.6607   20.5739 N   0  0  0  0  0  0
  -22.0428  -12.8232   22.0419 N   0  0  0  0  0  0
  -25.4124  -15.1964   20.4096 N   0  0  0  0  0  0
  -31.6825  -15.0776   20.0291 O   0  0  0  0  0  0
  -21.6647   -6.8888   21.4246 O   0  0  0  0  0  0
  -22.3466  -14.5513   20.6678 O   0  0  0  0  0  0
  -24.6464  -31.8371   23.1807 C   0  0  0  0  0  0
  -25.9230  -32.4640   23.8219 C   0  0  1  0  0  0
  -27.2300  -27.1013   20.1585 C   0  0  0  0  0  0
  -25.5954  -33.8451   24.2133 N   0  0  0  0  0  0
  -23.4521  -30.4509   21.5254 C   0  0  2  0  0  0
  -24.9041  -28.8641   20.1037 C   0  0  0  0  0  0
  -22.7587  -29.4503   22.4836 C   0  0  0  0  0  0
  -18.0307  -28.1392   22.8470 C   0  0  0  0  0  0
  -24.1494  -36.7253   23.2646 C   0  0  0  0  0  0
  -26.0071  -30.6992   21.3835 C   0  0  0  0  0  0
  -26.0769  -29.3060   20.7269 C   0  0  0  0  0  0
  -27.2335  -28.4381   20.7380 C   0  0  0  0  0  0
  -26.0346  -26.7610   19.4916 C   0  0  0  0  0  0
  -24.8978  -27.6080   19.4700 C   0  0  0  0  0  0
  -23.6801  -29.7701   20.1463 C   0  0  0  0  0  0
  -25.4122  -36.2995   24.0303 C   0  0  1  0  0  0
  -20.5918  -28.3721   23.1233 C   0  0  2  0  0  0
  -20.6777  -26.9417   22.5411 C   0  0  0  0  0  0
  -19.5757  -26.6371   21.5212 C   0  0  0  0  0  0
  -18.1940  -26.7926   22.1619 C   0  0  0  0  0  0
  -19.1562  -28.8876   23.2835 C   0  0  0  0  0  0
  -18.9479  -30.1475   23.8855 C   0  0  0  0  0  0
  -17.6472  -30.6585   24.0559 C   0  0  0  0  0  0
  -25.9080  -34.9371   23.5034 C   0  0  0  0  0  0
  -16.5364  -29.9079   23.6332 C   0  0  0  0  0  0
  -16.7289  -28.6499   23.0345 C   0  0  0  0  0  0
  -26.4537  -31.6532   25.0691 C   0  0  0  0  0  0
  -25.3722  -31.3750   26.1393 C   0  0  0  0  0  0
  -27.0424  -30.2916   24.6325 C   0  0  0  0  0  0
  -27.6044  -32.4322   25.7494 C   0  0  0  0  0  0
  -27.5563  -37.1778   24.8458 C   0  0  0  0  0  0
  -21.4274  -29.3038   22.3601 N   0  0  0  0  0  0
  -26.4278  -37.3712   23.9398 N   0  0  0  0  0  0
  -24.7213  -31.0197   22.0847 N   0  0  0  0  0  0
  -23.4210  -28.8075   23.3020 O   0  0  0  0  0  0
  -28.3059  -26.1414   20.2935 O   0  0  0  0  0  0
  -26.5681  -34.8887   22.4623 O   0  0  0  0  0  0
  -23.5579  -32.1276   23.7011 O   0  0  0  0  0  0
  -30.7891  -19.4953   21.2970 C   0  0  0  0  0  0
  -28.8451  -20.3465   20.1741 C   0  0  0  0  0  0
  -29.6780  -19.1475   20.5075 C   0  0  0  0  0  0
  -31.0429  -20.8404   21.6591 C   0  0  0  0  0  0
  -29.1443  -21.7545   20.5801 C   0  0  0  0  0  0
  -32.2685  -21.1718   22.4863 C   0  0  0  0  0  0
  -29.5799  -17.5847   19.9403 C   0  0  0  0  0  0
  -28.2079  -23.1449   20.5580 C   0  0  0  0  0  0
  -28.4418  -24.6522   19.7899 C   0  0  0  0  0  0
  -30.2700  -21.9069   21.3159 N   0  0  0  0  0  0
  -29.7226  -16.1630   20.6503 N   0  0  0  0  0  0
  -31.4813  -12.7547   19.2352 H   0  0  0  0  0  0
  -30.4284  -11.6563   20.0698 H   0  0  0  0  0  0
  -29.8689  -11.7368   17.6199 H   0  0  0  0  0  0
  -29.6297  -13.4650   17.7119 H   0  0  0  0  0  0
  -27.9604  -11.2814   18.9918 H   0  0  0  0  0  0
  -27.4133  -12.4535   17.8221 H   0  0  0  0  0  0
  -27.5998  -14.2584   19.4198 H   0  0  0  0  0  0
  -28.7537  -12.3125   21.4762 H   0  0  0  0  0  0
  -28.3549  -13.9854   21.7733 H   0  0  0  0  0  0
  -25.2781   -9.5692   22.4752 H   0  0  0  0  0  0
  -24.0007   -7.4656   22.7487 H   0  0  0  0  0  0
  -21.0840   -8.8810   19.8977 H   0  0  0  0  0  0
  -22.3721  -10.9688   19.6169 H   0  0  0  0  0  0
  -21.2024   -7.6150   23.9715 H   0  0  0  0  0  0
  -21.1477   -6.0516   25.9071 H   0  0  0  0  0  0
  -22.0599   -2.7616   23.2831 H   0  0  0  0  0  0
  -22.4041  -11.9919   22.4862 H   0  0  0  0  0  0
  -21.1050  -13.1266   22.2610 H   0  0  0  0  0  0
  -24.6415  -15.8466   20.5159 H   0  0  0  0  0  0
  -26.2499  -15.6355   20.0503 H   0  0  0  0  0  0
  -26.7304  -32.5227   23.0951 H   0  0  0  0  0  0
  -25.0034  -33.9536   25.0233 H   0  0  0  0  0  0
  -22.7568  -31.2768   21.3646 H   0  0  0  0  0  0
  -23.3730  -35.9613   23.3293 H   0  0  0  0  0  0
  -24.3582  -36.8908   22.2065 H   0  0  0  0  0  0
  -23.7286  -37.6456   23.6706 H   0  0  0  0  0  0
  -26.1667  -31.4506   20.6091 H   0  0  0  0  0  0
  -26.8756  -30.7511   22.0280 H   0  0  0  0  0  0
  -28.1246  -28.7690   21.2522 H   0  0  0  0  0  0
  -25.9498  -25.7922   19.0211 H   0  0  0  0  0  0
  -24.0008  -27.2656   18.9722 H   0  0  0  0  0  0
  -23.8172  -30.5405   19.3867 H   0  0  0  0  0  0
  -22.7948  -29.2119   19.8379 H   0  0  0  0  0  0
  -25.1317  -36.1800   25.0793 H   0  0  0  0  0  0
  -21.0003  -28.3309   24.1358 H   0  0  0  0  0  0
  -20.5656  -26.2336   23.3635 H   0  0  0  0  0  0
  -21.6643  -26.7411   22.1218 H   0  0  0  0  0  0
  -19.6916  -25.6277   21.1250 H   0  0  0  0  0  0
  -19.6686  -27.3174   20.6734 H   0  0  0  0  0  0
  -17.4207  -26.6678   21.4021 H   0  0  0  0  0  0
  -18.0335  -26.0081   22.9027 H   0  0  0  0  0  0
  -19.7957  -30.7307   24.2191 H   0  0  0  0  0  0
  -17.5026  -31.6255   24.5187 H   0  0  0  0  0  0
  -15.5361  -30.2966   23.7679 H   0  0  0  0  0  0
  -15.8691  -28.0814   22.7060 H   0  0  0  0  0  0
  -24.5874  -30.7124   25.7720 H   0  0  0  0  0  0
  -24.8950  -32.2956   26.4769 H   0  0  0  0  0  0
  -25.8009  -30.8944   27.0199 H   0  0  0  0  0  0
  -26.3065  -29.6603   24.1332 H   0  0  0  0  0  0
  -27.4013  -29.7248   25.4927 H   0  0  0  0  0  0
  -27.8973  -30.4117   23.9667 H   0  0  0  0  0  0
  -27.2594  -33.3620   26.2025 H   0  0  0  0  0  0
  -28.3889  -32.6891   25.0365 H   0  0  0  0  0  0
  -28.0685  -31.8490   26.5458 H   0  0  0  0  0  0
  -28.2568  -38.0078   24.7475 H   0  0  0  0  0  0
  -28.1065  -36.2606   24.6312 H   0  0  0  0  0  0
  -27.2288  -37.1461   25.8862 H   0  0  0  0  0  0
  -20.9497  -29.8748   21.6768 H   0  0  0  0  0  0
  -26.0129  -38.2778   24.1378 H   0  0  0  0  0  0
  -31.4882  -18.7230   21.5912 H   0  0  0  0  0  0
  -27.9475  -20.1801   19.5944 H   0  0  0  0  0  0
  -32.6320  -20.2906   23.0152 H   0  0  0  0  0  0
  -32.0453  -21.9344   23.2328 H   0  0  0  0  0  0
  -33.0713  -21.5384   21.8455 H   0  0  0  0  0  0
  -30.2788  -17.5508   19.1044 H   0  0  0  0  0  0
  -28.6017  -17.5396   19.4614 H   0  0  0  0  0  0
  -28.1015  -23.3917   21.6132 H   0  0  0  0  0  0
  -27.2082  -22.8112   20.2775 H   0  0  0  0  0  0
  -27.9356  -24.5953   18.8262 H   0  0  0  0  0  0
  -29.4937  -24.6230   19.5077 H   0  0  0  0  0  0
  -28.8744  -15.9268   21.1429 H   0  0  0  0  0  0
  1 25  1  0  0  0
  1 30  2  0  0  0
  1 81  1  0  0  0
  2  3  1  0  0  0
  2 25  1  0  0  0
  2 82  1  0  0  0
  2 83  1  0  0  0
  3  4  1  0  0  0
  3 84  1  0  0  0
  3 85  1  0  0  0
  4  5  1  0  0  0
  4 86  1  0  0  0
  4 87  1  0  0  0
  5  6  1  0  0  0
  5 26  1  0  0  0
  5 88  1  0  0  0
  6 25  1  0  0  0
  6 89  1  0  0  0
  6 90  1  0  0  0
  7  8  2  0  0  0
  7 26  1  0  0  0
  7 29  1  0  0  0
  8  9  1  0  0  0
  8 22  1  0  0  0
  9 10  1  0  0  0
  9 27  2  0  0  0
 10 11  2  0  0  0
 10 15  1  0  0  0
 11 12  1  0  0  0
 11 91  1  0  0  0
 12 13  2  0  0  0
 12 92  1  0  0  0
 13 14  1  0  0  0
 13 31  1  0  0  0
 14 15  2  0  0  0
 14 93  1  0  0  0
 15 94  1  0  0  0
 16 17  2  0  0  0
 16 21  1  0  0  0
 16 31  1  0  0  0
 17 18  1  0  0  0
 17 95  1  0  0  0
 18 19  2  0  0  0
 18 96  1  0  0  0
 19 20  1  0  0  0
 19 24  1  0  0  0
 20 21  2  0  0  0
 20 97  1  0  0  0
 21 23  1  0  0  0
 22 28  1  0  0  0
 22 32  2  0  0  0
 26 27  1  0  0  0
 28 98  1  0  0  0
 28 99  1  0  0  0
 29100  1  0  0  0
 29101  1  0  0  0
 33 34  1  0  0  0
 33 66  1  0  0  0
 33 70  2  0  0  0
 34 36  1  0  0  0
 34 59  1  0  0  0
 34102  1  0  0  0
 35 44  2  0  0  0
 35 45  1  0  0  0
 35 68  1  0  0  0
 36 56  1  0  0  0
 36103  1  0  0  0
 37 39  1  0  0  0
 37 47  1  0  0  0
 37 66  1  0  0  0
 37104  1  0  0  0
 38 43  2  0  0  0
 38 46  1  0  0  0
 38 47  1  0  0  0
 39 64  1  0  0  0
 39 67  2  0  0  0
 40 52  1  0  0  0
 40 53  2  0  0  0
 40 58  1  0  0  0
 41105  1  0  0  0
 41106  1  0  0  0
 41107  1  0  0  0
 41 48  1  0  0  0
 42 43  1  0  0  0
 42 66  1  0  0  0
 42108  1  0  0  0
 42109  1  0  0  0
 43 44  1  0  0  0
 44110  1  0  0  0
 45 46  2  0  0  0
 45111  1  0  0  0
 46112  1  0  0  0
 47113  1  0  0  0
 47114  1  0  0  0
 48 56  1  0  0  0
 48 65  1  0  0  0
 48115  1  0  0  0
 49 50  1  0  0  0
 49 53  1  0  0  0
 49 64  1  0  0  0
 49116  1  0  0  0
 50 51  1  0  0  0
 50117  1  0  0  0
 50118  1  0  0  0
 51 52  1  0  0  0
 51119  1  0  0  0
 51120  1  0  0  0
 52121  1  0  0  0
 52122  1  0  0  0
 53 54  1  0  0  0
 54 55  2  0  0  0
 54123  1  0  0  0
 55 57  1  0  0  0
 55124  1  0  0  0
 56 69  2  0  0  0
 57 58  2  0  0  0
 57125  1  0  0  0
 58126  1  0  0  0
 59 60  1  0  0  0
 59 61  1  0  0  0
 59 62  1  0  0  0
 60127  1  0  0  0
 60128  1  0  0  0
 60129  1  0  0  0
 61130  1  0  0  0
 61131  1  0  0  0
 61132  1  0  0  0
 62133  1  0  0  0
 62134  1  0  0  0
 62135  1  0  0  0
 63 65  1  0  0  0
 63136  1  0  0  0
 63137  1  0  0  0
 63138  1  0  0  0
 64139  1  0  0  0
 65140  1  0  0  0
 68 79  1  0  0  0
 71 73  2  0  0  0
 71 74  1  0  0  0
 71141  1  0  0  0
 72 73  1  0  0  0
 72 75  2  0  0  0
 72142  1  0  0  0
 73 77  1  0  0  0
 74 76  1  0  0  0
 74 80  2  0  0  0
 75 78  1  0  0  0
 75 80  1  0  0  0
 76143  1  0  0  0
 76144  1  0  0  0
 76145  1  0  0  0
 77 81  1  0  0  0
 77146  1  0  0  0
 77147  1  0  0  0
 78 79  1  0  0  0
 78148  1  0  0  0
 78149  1  0  0  0
 79150  1  0  0  0
 79151  1  0  0  0
 81152  1  0  0  0
M  ISO  4   1 100  68 101  79 101  81 100
M  END
> <chiral flag>
0

> <version>
0

> <s_m_source_file>
/data/baiqing/PycharmProjects/Reinvent-master-3.2/result/LINK_invent/BTK/process_docking_weight1_custom_sum_contain_oxygen_bond_distance_aromatic_linkinvent_7_9_3/rearranged_h_0119.sdf

> <i_m_source_file_index>
7

> <r_mmod_Potential_Energy-OPLS-2005>
385.955352783203

> <r_mmod_Stretch_Energy-OPLS-2005>
297.534942626953

> <r_mmod_Bend_Energy-OPLS-2005>
331.859497070312

> <r_mmod_Torsional_Energy-OPLS-2005>
223.539108276367

> <r_mmod_Improper_Torsional_Energy-OPLS-2005>
7.91971635818481

> <r_mmod_Van_der_Waal_Energy-OPLS-2005>
125.94645690918

> <r_mmod_Electrostatic_Energy-OPLS-2005>
-587.237915039062

> <r_mmod_Solvation_Energy-OPLS-2005>
-237.362884521484

> <b_mmod_Minimization_Converged-OPLS-2005>
0

> <r_mmod_RMS_Derivative-OPLS-2005>
1.91831719875336

$$$$
7
                    3D
 Structure written by MMmdl.
163172  0  0  1  0            999 V2000
  -30.5127  -14.9543   20.4147 C   0  0  0  0  0  0
  -30.4435  -12.5854   19.5129 C   0  0  0  0  0  0
  -29.5260  -12.5326   18.2672 C   0  0  0  0  0  0
  -28.0580  -12.3165   18.6801 C   0  0  0  0  0  0
  -27.6333  -13.2452   19.8473 C   0  0  2  0  0  0
  -28.6721  -13.2602   20.9907 C   0  0  0  0  0  0
  -25.2472  -13.8212   20.5715 C   0  0  0  0  0  0
  -24.1783  -13.0440   20.9233 C   0  0  0  0  0  0
  -24.6390  -11.6923   20.8757 C   0  0  0  0  0  0
  -23.9072  -10.4294   21.0411 C   0  0  0  0  0  0
  -24.3622   -9.4207   21.9187 C   0  0  0  0  0  0
  -23.6295   -8.2242   22.0755 C   0  0  0  0  0  0
  -22.4276   -8.0281   21.3546 C   0  0  0  0  0  0
  -21.9917   -9.0254   20.4647 C   0  0  0  0  0  0
  -22.7246  -10.2134   20.3059 C   0  0  0  0  0  0
  -21.6852   -6.0735   22.5278 C   0  0  0  0  0  0
  -21.4012   -6.5640   23.8211 C   0  0  0  0  0  0
  -21.3660   -5.6793   24.9174 C   0  0  0  0  0  0
  -21.6045   -4.3055   24.7226 C   0  0  0  0  0  0
  -21.8818   -3.8147   23.4347 C   0  0  0  0  0  0
  -21.9192   -4.6963   22.3402 C   0  0  0  0  0  0
  -22.7804  -13.5213   21.1883 C   0  0  0  0  0  0
  -22.1661   -4.2148   21.0980 F   0  0  0  0  0  0
  -21.5631   -3.4540   25.7740 F   0  0  0  0  0  0
  -29.9531  -13.6767   20.4053 N   0  0  0  0  0  0
  -26.2893  -12.9435   20.3266 N   0  0  0  0  0  0
  -25.9323  -11.6568   20.5752 N   0  0  0  0  0  0
  -22.0451  -12.8198   22.0435 N   0  0  0  0  0  0
  -25.4149  -15.1939   20.4122 N   0  0  0  0  0  0
  -31.6927  -15.0584   20.0649 O   0  0  0  0  0  0
  -21.6640   -6.8879   21.4240 O   0  0  0  0  0  0
  -22.3493  -14.5519   20.6729 O   0  0  0  0  0  0
  -24.6425  -31.8412   23.1853 C   0  0  0  0  0  0
  -25.9195  -32.4675   23.8246 C   0  0  1  0  0  0
  -27.2274  -27.1317   20.1495 C   0  0  0  0  0  0
  -25.5939  -33.8483   24.2165 N   0  0  0  0  0  0
  -23.4473  -30.4566   21.5298 C   0  0  2  0  0  0
  -24.8989  -28.8771   20.1050 C   0  0  0  0  0  0
  -22.7563  -29.4519   22.4851 C   0  0  0  0  0  0
  -18.0302  -28.1388   22.8474 C   0  0  0  0  0  0
  -24.1492  -36.7249   23.2644 C   0  0  0  0  0  0
  -26.0002  -30.7124   21.3841 C   0  0  0  0  0  0
  -26.0711  -29.3217   20.7268 C   0  0  0  0  0  0
  -27.2304  -28.4620   20.7358 C   0  0  0  0  0  0
  -26.0308  -26.7827   19.4881 C   0  0  0  0  0  0
  -24.8909  -27.6220   19.4719 C   0  0  0  0  0  0
  -23.6737  -29.7786   20.1503 C   0  0  0  0  0  0
  -25.4125  -36.3018   24.0312 C   0  0  1  0  0  0
  -20.5912  -28.3709   23.1233 C   0  0  2  0  0  0
  -20.6782  -26.9410   22.5406 C   0  0  0  0  0  0
  -19.5760  -26.6374   21.5207 C   0  0  0  0  0  0
  -18.1941  -26.7927   22.1616 C   0  0  0  0  0  0
  -19.1559  -28.8869   23.2844 C   0  0  0  0  0  0
  -18.9478  -30.1466   23.8866 C   0  0  0  0  0  0
  -17.6477  -30.6586   24.0555 C   0  0  0  0  0  0
  -25.9074  -34.9395   23.5053 C   0  0  0  0  0  0
  -16.5367  -29.9078   23.6337 C   0  0  0  0  0  0
  -16.7289  -28.6497   23.0354 C   0  0  0  0  0  0
  -26.4523  -31.6554   25.0698 C   0  0  0  0  0  0
  -25.3706  -31.3740   26.1396 C   0  0  0  0  0  0
  -27.0403  -30.2954   24.6286 C   0  0  0  0  0  0
  -27.6047  -32.4334   25.7484 C   0  0  0  0  0  0
  -27.5574  -37.1776   24.8464 C   0  0  0  0  0  0
  -21.4253  -29.3032   22.3607 N   0  0  0  0  0  0
  -26.4285  -37.3733   23.9406 N   0  0  0  0  0  0
  -24.7163  -31.0256   22.0884 N   0  0  0  0  0  0
  -23.4205  -28.8079   23.3016 O   0  0  0  0  0  0
  -28.3030  -26.1810   20.2817 O   0  0  0  0  0  0
  -26.5668  -34.8897   22.4638 O   0  0  0  0  0  0
  -23.5543  -32.1292   23.7076 O   0  0  0  0  0  0
  -28.9498  -22.9776   21.7792 C   0  0  0  0  0  0
  -28.9902  -21.4318   22.0892 C   0  0  0  0  0  0
  -30.7672  -18.2168   24.5052 C   0  0  0  0  0  0
  -30.2396  -16.8790   24.0382 C   0  0  0  0  0  0
  -28.9315  -21.7873   19.7603 C   0  0  0  0  0  0
  -28.3308  -23.1962   20.3955 C   0  0  2  0  0  0
  -28.8435  -20.5236   20.8102 C   0  0  1  0  0  0
  -30.6391  -17.9305   23.0242 C   0  0  0  0  0  0
  -28.4363  -24.7412   19.6977 C   0  0  0  0  0  0
  -29.6588  -17.6023   20.0718 C   0  0  0  0  0  0
  -29.6965  -19.0334   20.9747 C   0  0  2  0  0  0
  -29.6912  -16.1008   20.6161 N   0  0  0  0  0  0
  -29.4920  -18.6145   22.3804 N   0  3  0  0  0  0
  -31.4781  -12.7443   19.2056 H   0  0  0  0  0  0
  -30.4365  -11.6297   20.0393 H   0  0  0  0  0  0
  -29.8467  -11.7367   17.5933 H   0  0  0  0  0  0
  -29.6148  -13.4642   17.7061 H   0  0  0  0  0  0
  -27.9530  -11.2744   18.9844 H   0  0  0  0  0  0
  -27.3962  -12.4514   17.8239 H   0  0  0  0  0  0
  -27.6016  -14.2497   19.4243 H   0  0  0  0  0  0
  -28.7554  -12.2782   21.4586 H   0  0  0  0  0  0
  -28.3676  -13.9506   21.7789 H   0  0  0  0  0  0
  -25.2765   -9.5683   22.4767 H   0  0  0  0  0  0
  -24.0001   -7.4635   22.7479 H   0  0  0  0  0  0
  -21.0847   -8.8774   19.8954 H   0  0  0  0  0  0
  -22.3700  -10.9675   19.6172 H   0  0  0  0  0  0
  -21.2001   -7.6147   23.9713 H   0  0  0  0  0  0
  -21.1485   -6.0525   25.9078 H   0  0  0  0  0  0
  -22.0596   -2.7608   23.2848 H   0  0  0  0  0  0
  -22.4069  -11.9852   22.4806 H   0  0  0  0  0  0
  -21.1071  -13.1226   22.2653 H   0  0  0  0  0  0
  -24.6362  -15.8380   20.5023 H   0  0  0  0  0  0
  -26.2390  -15.6251   20.0150 H   0  0  0  0  0  0
  -26.7257  -32.5275   23.0968 H   0  0  0  0  0  0
  -25.0047  -33.9589   25.0287 H   0  0  0  0  0  0
  -22.7497  -31.2817   21.3719 H   0  0  0  0  0  0
  -23.3758  -35.9578   23.3291 H   0  0  0  0  0  0
  -24.3570  -36.8905   22.2062 H   0  0  0  0  0  0
  -23.7252  -37.6439   23.6698 H   0  0  0  0  0  0
  -26.1538  -31.4661   20.6106 H   0  0  0  0  0  0
  -26.8705  -30.7643   22.0260 H   0  0  0  0  0  0
  -28.1209  -28.7929   21.2517 H   0  0  0  0  0  0
  -25.9396  -25.8148   19.0187 H   0  0  0  0  0  0
  -23.9922  -27.2749   18.9807 H   0  0  0  0  0  0
  -23.8067  -30.5494   19.3907 H   0  0  0  0  0  0
  -22.7894  -29.2169   19.8445 H   0  0  0  0  0  0
  -25.1317  -36.1838   25.0805 H   0  0  0  0  0  0
  -20.9997  -28.3308   24.1357 H   0  0  0  0  0  0
  -20.5664  -26.2322   23.3627 H   0  0  0  0  0  0
  -21.6648  -26.7409   22.1210 H   0  0  0  0  0  0
  -19.6917  -25.6278   21.1252 H   0  0  0  0  0  0
  -19.6703  -27.3169   20.6726 H   0  0  0  0  0  0
  -17.4210  -26.6670   21.4022 H   0  0  0  0  0  0
  -18.0341  -26.0071   22.9014 H   0  0  0  0  0  0
  -19.7958  -30.7286   24.2219 H   0  0  0  0  0  0
  -17.5035  -31.6263   24.5163 H   0  0  0  0  0  0
  -15.5366  -30.2970   23.7682 H   0  0  0  0  0  0
  -15.8687  -28.0813   22.7077 H   0  0  0  0  0  0
  -24.5901  -30.7066   25.7717 H   0  0  0  0  0  0
  -24.8870  -32.2917   26.4752 H   0  0  0  0  0  0
  -25.7993  -30.8966   27.0214 H   0  0  0  0  0  0
  -26.3024  -29.6656   24.1303 H   0  0  0  0  0  0
  -27.4026  -29.7273   25.4861 H   0  0  0  0  0  0
  -27.8921  -30.4194   23.9598 H   0  0  0  0  0  0
  -27.2639  -33.3665   26.1979 H   0  0  0  0  0  0
  -28.3896  -32.6846   25.0337 H   0  0  0  0  0  0
  -28.0668  -31.8515   26.5463 H   0  0  0  0  0  0
  -28.2576  -38.0085   24.7512 H   0  0  0  0  0  0
  -28.1084  -36.2612   24.6296 H   0  0  0  0  0  0
  -27.2283  -37.1428   25.8863 H   0  0  0  0  0  0
  -20.9471  -29.8744   21.6778 H   0  0  0  0  0  0
  -26.0150  -38.2797   24.1419 H   0  0  0  0  0  0
  -29.9683  -23.3700   21.7717 H   0  0  0  0  0  0
  -28.4110  -23.5287   22.5511 H   0  0  0  0  0  0
  -28.1941  -21.1917   22.7964 H   0  0  0  0  0  0
  -29.9291  -21.2326   22.6082 H   0  0  0  0  0  0
  -31.7708  -18.2375   24.9261 H   0  0  0  0  0  0
  -30.0581  -18.8969   24.9751 H   0  0  0  0  0  0
  -29.1826  -16.6744   24.2008 H   0  0  0  0  0  0
  -30.8968  -16.0185   24.1525 H   0  0  0  0  0  0
  -29.9778  -21.9471   19.4955 H   0  0  0  0  0  0
  -28.4226  -21.5410   18.8275 H   0  0  0  0  0  0
  -27.2596  -23.0291   20.5192 H   0  0  0  0  0  0
  -27.7943  -20.2265   20.7659 H   0  0  0  0  0  0
  -31.5333  -17.7874   22.4186 H   0  0  0  0  0  0
  -27.8357  -24.7123   18.7897 H   0  0  0  0  0  0
  -29.4546  -24.7672   19.3100 H   0  0  0  0  0  0
  -30.4461  -17.6765   19.3206 H   0  0  0  0  0  0
  -28.7409  -17.6533   19.4859 H   0  0  0  0  0  0
  -30.7374  -19.3559   20.9206 H   0  0  0  0  0  0
  -28.7886  -15.8087   20.9608 H   0  0  0  0  0  0
  -29.3024  -19.4582   22.8965 H   0  0  0  0  0  0
  -28.6663  -18.0408   22.4276 H   0  0  0  0  0  0
  1 25  1  0  0  0
  1 30  2  0  0  0
  1 82  1  0  0  0
  2  3  1  0  0  0
  2 25  1  0  0  0
  2 84  1  0  0  0
  2 85  1  0  0  0
  3  4  1  0  0  0
  3 86  1  0  0  0
  3 87  1  0  0  0
  4  5  1  0  0  0
  4 88  1  0  0  0
  4 89  1  0  0  0
  5  6  1  0  0  0
  5 26  1  0  0  0
  5 90  1  0  0  0
  6 25  1  0  0  0
  6 91  1  0  0  0
  6 92  1  0  0  0
  7  8  2  0  0  0
  7 26  1  0  0  0
  7 29  1  0  0  0
  8  9  1  0  0  0
  8 22  1  0  0  0
  9 10  1  0  0  0
  9 27  2  0  0  0
 10 11  2  0  0  0
 10 15  1  0  0  0
 11 12  1  0  0  0
 11 93  1  0  0  0
 12 13  2  0  0  0
 12 94  1  0  0  0
 13 14  1  0  0  0
 13 31  1  0  0  0
 14 15  2  0  0  0
 14 95  1  0  0  0
 15 96  1  0  0  0
 16 17  2  0  0  0
 16 21  1  0  0  0
 16 31  1  0  0  0
 17 18  1  0  0  0
 17 97  1  0  0  0
 18 19  2  0  0  0
 18 98  1  0  0  0
 19 20  1  0  0  0
 19 24  1  0  0  0
 20 21  2  0  0  0
 20 99  1  0  0  0
 21 23  1  0  0  0
 22 28  1  0  0  0
 22 32  2  0  0  0
 26 27  1  0  0  0
 28100  1  0  0  0
 28101  1  0  0  0
 29102  1  0  0  0
 29103  1  0  0  0
 33 34  1  0  0  0
 33 66  1  0  0  0
 33 70  2  0  0  0
 34 36  1  0  0  0
 34 59  1  0  0  0
 34104  1  0  0  0
 35 44  2  0  0  0
 35 45  1  0  0  0
 35 68  1  0  0  0
 36 56  1  0  0  0
 36105  1  0  0  0
 37 39  1  0  0  0
 37 47  1  0  0  0
 37 66  1  0  0  0
 37106  1  0  0  0
 38 43  2  0  0  0
 38 46  1  0  0  0
 38 47  1  0  0  0
 39 64  1  0  0  0
 39 67  2  0  0  0
 40 52  1  0  0  0
 40 53  2  0  0  0
 40 58  1  0  0  0
 41107  1  0  0  0
 41108  1  0  0  0
 41109  1  0  0  0
 41 48  1  0  0  0
 42 43  1  0  0  0
 42 66  1  0  0  0
 42110  1  0  0  0
 42111  1  0  0  0
 43 44  1  0  0  0
 44112  1  0  0  0
 45 46  2  0  0  0
 45113  1  0  0  0
 46114  1  0  0  0
 47115  1  0  0  0
 47116  1  0  0  0
 48 56  1  0  0  0
 48 65  1  0  0  0
 48117  1  0  0  0
 49 50  1  0  0  0
 49 53  1  0  0  0
 49 64  1  0  0  0
 49118  1  0  0  0
 50 51  1  0  0  0
 50119  1  0  0  0
 50120  1  0  0  0
 51 52  1  0  0  0
 51121  1  0  0  0
 51122  1  0  0  0
 52123  1  0  0  0
 52124  1  0  0  0
 53 54  1  0  0  0
 54 55  2  0  0  0
 54125  1  0  0  0
 55 57  1  0  0  0
 55126  1  0  0  0
 56 69  2  0  0  0
 57 58  2  0  0  0
 57127  1  0  0  0
 58128  1  0  0  0
 59 60  1  0  0  0
 59 61  1  0  0  0
 59 62  1  0  0  0
 60129  1  0  0  0
 60130  1  0  0  0
 60131  1  0  0  0
 61132  1  0  0  0
 61133  1  0  0  0
 61134  1  0  0  0
 62135  1  0  0  0
 62136  1  0  0  0
 62137  1  0  0  0
 63 65  1  0  0  0
 63138  1  0  0  0
 63139  1  0  0  0
 63140  1  0  0  0
 64141  1  0  0  0
 65142  1  0  0  0
 68 79  1  0  0  0
 71 72  1  0  0  0
 71 76  1  0  0  0
 71143  1  0  0  0
 71144  1  0  0  0
 72145  1  0  0  0
 72146  1  0  0  0
 72 77  1  0  0  0
 73 74  1  0  0  0
 73 78  1  0  0  0
 73147  1  0  0  0
 73148  1  0  0  0
 74 78  1  0  0  0
 74149  1  0  0  0
 74150  1  0  0  0
 75 76  1  0  0  0
 75 77  1  0  0  0
 75151  1  0  0  0
 75152  1  0  0  0
 76 79  1  0  0  0
 76153  1  0  0  0
 77 81  1  0  0  0
 77154  1  0  0  0
 78 83  1  0  0  0
 78155  1  0  0  0
 79156  1  0  0  0
 79157  1  0  0  0
 80 82  1  0  0  0
 80158  1  0  0  0
 80159  1  0  0  0
 80 81  1  0  0  0
 81 83  1  0  0  0
 81160  1  0  0  0
 82161  1  0  0  0
 83162  1  0  0  0
 83163  1  0  0  0
M  CHG  1  83   1
M  ISO  4   1 100  68 101  79 101  82 100
M  END
> <chiral flag>
0

> <version>
0

> <s_m_source_file>
/data/baiqing/PycharmProjects/Reinvent-master-3.2/result/LINK_invent/BTK/process_docking_weight1_custom_sum_contain_oxygen_bond_distance_aromatic_linkinvent_7_9_3/rearranged_h_0119.sdf

> <i_m_source_file_index>
8

> <r_mmod_Potential_Energy-OPLS-2005>
599.899780273438

> <r_mmod_Stretch_Energy-OPLS-2005>
283.798492431641

> <r_mmod_Bend_Energy-OPLS-2005>
386.081787109375

> <r_mmod_Torsional_Energy-OPLS-2005>
357.602294921875

> <r_mmod_Improper_Torsional_Energy-OPLS-2005>
6.12521553039551

> <r_mmod_Van_der_Waal_Energy-OPLS-2005>
105.826797485352

> <r_mmod_Electrostatic_Energy-OPLS-2005>
-259.699432373047

> <r_mmod_Solvation_Energy-OPLS-2005>
-476.441589355469

> <b_mmod_Minimization_Converged-OPLS-2005>
0

> <r_mmod_RMS_Derivative-OPLS-2005>
0.701251566410065

$$$$
8
                    3D
 Structure written by MMmdl.
185194  0  0  1  0            999 V2000
  -30.6981  -14.4726   20.5308 C   0  0  0  0  0  0
  -30.4220  -12.2926   19.4235 C   0  0  0  0  0  0
  -29.4964  -12.5022   18.2073 C   0  0  0  0  0  0
  -28.0170  -12.3649   18.6173 C   0  0  0  0  0  0
  -27.6626  -13.2004   19.8780 C   0  0  2  0  0  0
  -28.7097  -12.9879   20.9964 C   0  0  0  0  0  0
  -25.2612  -13.8129   20.5751 C   0  0  0  0  0  0
  -24.1832  -13.0418   20.9158 C   0  0  0  0  0  0
  -24.6392  -11.6881   20.8702 C   0  0  0  0  0  0
  -23.9059  -10.4280   21.0385 C   0  0  0  0  0  0
  -24.3613   -9.4204   21.9177 C   0  0  0  0  0  0
  -23.6282   -8.2239   22.0766 C   0  0  0  0  0  0
  -22.4264   -8.0282   21.3554 C   0  0  0  0  0  0
  -21.9887   -9.0251   20.4664 C   0  0  0  0  0  0
  -22.7220  -10.2134   20.3055 C   0  0  0  0  0  0
  -21.6853   -6.0732   22.5274 C   0  0  0  0  0  0
  -21.4018   -6.5637   23.8212 C   0  0  0  0  0  0
  -21.3659   -5.6790   24.9174 C   0  0  0  0  0  0
  -21.6037   -4.3047   24.7220 C   0  0  0  0  0  0
  -21.8819   -3.8145   23.4337 C   0  0  0  0  0  0
  -21.9195   -4.6960   22.3400 C   0  0  0  0  0  0
  -22.7875  -13.5243   21.1818 C   0  0  0  0  0  0
  -22.1667   -4.2140   21.0977 F   0  0  0  0  0  0
  -21.5615   -3.4528   25.7724 F   0  0  0  0  0  0
  -30.0436  -13.2823   20.4422 N   0  0  0  0  0  0
  -26.3038  -12.9293   20.3411 N   0  0  0  0  0  0
  -25.9321  -11.6456   20.5764 N   0  0  0  0  0  0
  -22.0506  -12.8263   22.0390 N   0  0  0  0  0  0
  -25.4379  -15.1874   20.4377 N   0  0  0  0  0  0
  -31.8406  -14.6518   20.0975 O   0  0  0  0  0  0
  -21.6634   -6.8872   21.4241 O   0  0  0  0  0  0
  -22.3579  -14.5546   20.6658 O   0  0  0  0  0  0
  -24.6136  -31.8679   23.2095 C   0  0  0  0  0  0
  -25.9022  -32.4829   23.8398 C   0  0  1  0  0  0
  -27.2502  -27.4543   20.0740 C   0  0  0  0  0  0
  -25.5875  -33.8625   24.2329 N   0  0  0  0  0  0
  -23.4036  -30.4896   21.5500 C   0  0  2  0  0  0
  -24.8536  -28.9569   20.1156 C   0  0  0  0  0  0
  -22.7415  -29.4648   22.4988 C   0  0  0  0  0  0
  -18.0272  -28.1374   22.8489 C   0  0  0  0  0  0
  -24.1483  -36.7317   23.2639 C   0  0  0  0  0  0
  -25.9314  -30.8393   21.3595 C   0  0  0  0  0  0
  -26.0149  -29.4756   20.7035 C   0  0  0  0  0  0
  -27.2186  -28.7332   20.6817 C   0  0  0  0  0  0
  -26.0670  -26.9373   19.5109 C   0  0  0  0  0  0
  -24.8731  -27.6845   19.5182 C   0  0  0  0  0  0
  -23.6130  -29.8208   20.1655 C   0  0  0  0  0  0
  -25.4106  -36.3116   24.0341 C   0  0  1  0  0  0
  -20.5864  -28.3657   23.1320 C   0  0  2  0  0  0
  -20.6755  -26.9391   22.5421 C   0  0  0  0  0  0
  -19.5742  -26.6384   21.5204 C   0  0  0  0  0  0
  -18.1922  -26.7915   22.1624 C   0  0  0  0  0  0
  -19.1519  -28.8832   23.2903 C   0  0  0  0  0  0
  -18.9450  -30.1436   23.8920 C   0  0  0  0  0  0
  -17.6453  -30.6579   24.0573 C   0  0  0  0  0  0
  -25.9030  -34.9481   23.5133 C   0  0  0  0  0  0
  -16.5343  -29.9088   23.6319 C   0  0  0  0  0  0
  -16.7263  -28.6503   23.0340 C   0  0  0  0  0  0
  -26.4451  -31.6609   25.0724 C   0  0  0  0  0  0
  -25.3730  -31.3729   26.1490 C   0  0  0  0  0  0
  -27.0263  -30.3049   24.6085 C   0  0  0  0  0  0
  -27.6046  -32.4319   25.7464 C   0  0  0  0  0  0
  -27.5586  -37.1809   24.8464 C   0  0  0  0  0  0
  -21.4142  -29.3020   22.3722 N   0  0  0  0  0  0
  -26.4293  -37.3801   23.9416 N   0  0  0  0  0  0
  -24.6681  -31.0788   22.0987 N   0  0  0  0  0  0
  -23.4180  -28.8194   23.3036 O   0  0  0  0  0  0
  -28.3682  -26.6485   20.0439 O   0  0  0  0  0  0
  -26.5602  -34.8930   22.4702 O   0  0  0  0  0  0
  -23.5329  -32.1413   23.7494 O   0  0  0  0  0  0
  -28.6368  -17.0678   19.5565 C   0  0  0  0  0  0
  -30.7028  -17.7537   20.1743 C   0  0  0  0  0  0
  -29.8057  -16.7234   20.2767 C   0  0  0  0  0  0
  -28.8360  -18.3019   18.9997 C   0  0  0  0  0  0
  -31.2966  -21.7956   20.6853 C   0  0  0  0  0  0
  -31.0927  -23.3248   20.7219 C   0  0  0  0  0  0
  -30.2224  -22.4856   18.6806 C   0  0  0  0  0  0
  -30.3284  -21.2677   19.6186 C   0  0  1  0  0  0
  -32.0484  -26.9965   19.3272 C   0  0  0  0  0  0
  -25.4423  -21.8671   18.7246 C   0  0  0  0  0  0
  -24.9074  -19.9601   17.1292 C   0  0  0  0  0  0
  -25.9619  -18.8654   19.6523 C   0  0  0  0  0  0
  -27.8992  -19.0643   18.0942 C   0  0  0  0  0  0
  -30.7935  -19.9575   18.9163 C   0  0  0  0  0  0
  -30.6652  -24.9340   18.8137 C   0  0  0  0  0  0
  -29.5531  -27.2073   19.4949 C   0  0  0  0  0  0
  -30.7514  -26.2381   19.6705 C   0  0  2  0  0  0
  -26.0132  -20.6789   17.9315 C   0  0  0  0  0  0
  -30.1187  -18.7339   19.3667 N   0  0  0  0  0  0
  -29.9478  -15.4939   20.9785 N   0  0  0  0  0  0
  -30.2661  -23.6928   19.5440 N   0  3  2  0  0  0
  -26.7993  -19.7645   18.8157 N   0  3  1  0  0  0
  -31.4672  -12.3820   19.1253 H   0  0  0  0  0  0
  -30.3111  -11.2826   19.8203 H   0  0  0  0  0  0
  -29.7335  -11.7838   17.4211 H   0  0  0  0  0  0
  -29.6690  -13.4924   17.7799 H   0  0  0  0  0  0
  -27.8239  -11.3081   18.8076 H   0  0  0  0  0  0
  -27.3702  -12.6452   17.7858 H   0  0  0  0  0  0
  -27.6999  -14.2435   19.5735 H   0  0  0  0  0  0
  -28.6841  -11.9550   21.3478 H   0  0  0  0  0  0
  -28.4793  -13.5962   21.8729 H   0  0  0  0  0  0
  -25.2771   -9.5658   22.4738 H   0  0  0  0  0  0
  -23.9980   -7.4619   22.7467 H   0  0  0  0  0  0
  -21.0827   -8.8759   19.8976 H   0  0  0  0  0  0
  -22.3667  -10.9664   19.6148 H   0  0  0  0  0  0
  -21.2022   -7.6144   23.9711 H   0  0  0  0  0  0
  -21.1483   -6.0527   25.9075 H   0  0  0  0  0  0
  -22.0601   -2.7605   23.2850 H   0  0  0  0  0  0
  -22.4089  -11.9909   22.4766 H   0  0  0  0  0  0
  -21.1126  -13.1288   22.2566 H   0  0  0  0  0  0
  -24.6917  -15.8448   20.6354 H   0  0  0  0  0  0
  -26.3352  -15.6260   20.2950 H   0  0  0  0  0  0
  -26.7110  -32.5546   23.1185 H   0  0  0  0  0  0
  -25.0010  -33.9789   25.0464 H   0  0  0  0  0  0
  -22.6923  -31.3062   21.4101 H   0  0  0  0  0  0
  -23.3740  -35.9654   23.3302 H   0  0  0  0  0  0
  -24.3575  -36.8928   22.2054 H   0  0  0  0  0  0
  -23.7234  -37.6526   23.6643 H   0  0  0  0  0  0
  -26.0410  -31.6078   20.5930 H   0  0  0  0  0  0
  -26.8190  -30.8938   21.9780 H   0  0  0  0  0  0
  -28.1081  -29.1355   21.1459 H   0  0  0  0  0  0
  -26.0729  -25.9553   19.0594 H   0  0  0  0  0  0
  -23.9791  -27.2734   19.0703 H   0  0  0  0  0  0
  -23.7198  -30.5963   19.4063 H   0  0  0  0  0  0
  -22.7380  -29.2405   19.8681 H   0  0  0  0  0  0
  -25.1275  -36.1990   25.0833 H   0  0  0  0  0  0
  -20.9955  -28.3219   24.1442 H   0  0  0  0  0  0
  -20.5632  -26.2269   23.3608 H   0  0  0  0  0  0
  -21.6630  -26.7418   22.1231 H   0  0  0  0  0  0
  -19.6904  -25.6301   21.1209 H   0  0  0  0  0  0
  -19.6682  -27.3215   20.6749 H   0  0  0  0  0  0
  -17.4186  -26.6663   21.4032 H   0  0  0  0  0  0
  -18.0337  -26.0055   22.9024 H   0  0  0  0  0  0
  -19.7926  -30.7237   24.2315 H   0  0  0  0  0  0
  -17.5008  -31.6253   24.5186 H   0  0  0  0  0  0
  -15.5345  -30.3001   23.7624 H   0  0  0  0  0  0
  -15.8664  -28.0828   22.7041 H   0  0  0  0  0  0
  -24.5877  -30.7101   25.7839 H   0  0  0  0  0  0
  -24.8953  -32.2894   26.4962 H   0  0  0  0  0  0
  -25.8086  -30.8879   27.0235 H   0  0  0  0  0  0
  -26.2796  -29.6831   24.1133 H   0  0  0  0  0  0
  -27.4031  -29.7267   25.4531 H   0  0  0  0  0  0
  -27.8632  -30.4369   23.9224 H   0  0  0  0  0  0
  -27.2687  -33.3629   26.2043 H   0  0  0  0  0  0
  -28.3838  -32.6861   25.0266 H   0  0  0  0  0  0
  -28.0723  -31.8436   26.5369 H   0  0  0  0  0  0
  -28.2607  -38.0105   24.7502 H   0  0  0  0  0  0
  -28.1069  -36.2630   24.6277 H   0  0  0  0  0  0
  -27.2302  -37.1457   25.8868 H   0  0  0  0  0  0
  -20.9303  -29.8752   21.6953 H   0  0  0  0  0  0
  -26.0177  -38.2877   24.1420 H   0  0  0  0  0  0
  -27.7468  -16.4738   19.4197 H   0  0  0  0  0  0
  -31.7022  -17.8707   20.5716 H   0  0  0  0  0  0
  -31.1349  -21.3304   21.6582 H   0  0  0  0  0  0
  -32.3281  -21.5875   20.3986 H   0  0  0  0  0  0
  -32.0611  -23.8292   20.7068 H   0  0  0  0  0  0
  -30.5763  -23.6315   21.6324 H   0  0  0  0  0  0
  -29.3225  -22.4646   18.0657 H   0  0  0  0  0  0
  -31.0793  -22.4900   18.0037 H   0  0  0  0  0  0
  -29.3544  -21.1127   20.0831 H   0  0  0  0  0  0
  -32.9315  -26.3896   19.5317 H   0  0  0  0  0  0
  -32.1440  -27.9111   19.9134 H   0  0  0  0  0  0
  -32.0759  -27.2786   18.2735 H   0  0  0  0  0  0
  -24.9501  -22.5744   18.0562 H   0  0  0  0  0  0
  -26.2262  -22.4138   19.2485 H   0  0  0  0  0  0
  -24.7009  -21.5543   19.4592 H   0  0  0  0  0  0
  -24.4409  -20.6473   16.4230 H   0  0  0  0  0  0
  -24.1113  -19.5825   17.7716 H   0  0  0  0  0  0
  -25.2999  -19.1234   16.5507 H   0  0  0  0  0  0
  -26.5257  -18.4770   20.5009 H   0  0  0  0  0  0
  -25.5909  -18.0178   19.0738 H   0  0  0  0  0  0
  -25.1004  -19.3851   20.0698 H   0  0  0  0  0  0
  -27.4608  -18.3719   17.3740 H   0  0  0  0  0  0
  -28.4569  -19.7809   17.4929 H   0  0  0  0  0  0
  -31.8709  -19.8215   19.0254 H   0  0  0  0  0  0
  -30.6440  -20.0368   17.8393 H   0  0  0  0  0  0
  -31.6336  -24.7358   18.3525 H   0  0  0  0  0  0
  -29.9796  -25.0889   17.9790 H   0  0  0  0  0  0
  -29.3969  -27.4355   18.4391 H   0  0  0  0  0  0
  -29.7809  -28.1509   19.9908 H   0  0  0  0  0  0
  -30.8155  -25.9864   20.7290 H   0  0  0  0  0  0
  -26.6989  -21.1177   17.2054 H   0  0  0  0  0  0
  -29.0954  -15.1538   21.3982 H   0  0  0  0  0  0
  -29.3299  -23.8456   19.8912 H   0  0  0  0  0  0
  -27.2718  -20.3662   19.4709 H   0  0  0  0  0  0
  1 25  1  0  0  0
  1 30  2  0  0  0
  1 90  1  0  0  0
  2  3  1  0  0  0
  2 25  1  0  0  0
  2 93  1  0  0  0
  2 94  1  0  0  0
  3  4  1  0  0  0
  3 95  1  0  0  0
  3 96  1  0  0  0
  4  5  1  0  0  0
  4 97  1  0  0  0
  4 98  1  0  0  0
  5  6  1  0  0  0
  5 26  1  0  0  0
  5 99  1  0  0  0
  6 25  1  0  0  0
  6100  1  0  0  0
  6101  1  0  0  0
  7  8  2  0  0  0
  7 26  1  0  0  0
  7 29  1  0  0  0
  8  9  1  0  0  0
  8 22  1  0  0  0
  9 10  1  0  0  0
  9 27  2  0  0  0
 10 11  2  0  0  0
 10 15  1  0  0  0
 11 12  1  0  0  0
 11102  1  0  0  0
 12 13  2  0  0  0
 12103  1  0  0  0
 13 14  1  0  0  0
 13 31  1  0  0  0
 14 15  2  0  0  0
 14104  1  0  0  0
 15105  1  0  0  0
 16 17  2  0  0  0
 16 21  1  0  0  0
 16 31  1  0  0  0
 17 18  1  0  0  0
 17106  1  0  0  0
 18 19  2  0  0  0
 18107  1  0  0  0
 19 20  1  0  0  0
 19 24  1  0  0  0
 20 21  2  0  0  0
 20108  1  0  0  0
 21 23  1  0  0  0
 22 28  1  0  0  0
 22 32  2  0  0  0
 26 27  1  0  0  0
 28109  1  0  0  0
 28110  1  0  0  0
 29111  1  0  0  0
 29112  1  0  0  0
 33 34  1  0  0  0
 33 66  1  0  0  0
 33 70  2  0  0  0
 34 36  1  0  0  0
 34 59  1  0  0  0
 34113  1  0  0  0
 35 44  2  0  0  0
 35 45  1  0  0  0
 35 68  1  0  0  0
 36 56  1  0  0  0
 36114  1  0  0  0
 37 39  1  0  0  0
 37 47  1  0  0  0
 37 66  1  0  0  0
 37115  1  0  0  0
 38 43  2  0  0  0
 38 46  1  0  0  0
 38 47  1  0  0  0
 39 64  1  0  0  0
 39 67  2  0  0  0
 40 52  1  0  0  0
 40 53  2  0  0  0
 40 58  1  0  0  0
 41116  1  0  0  0
 41117  1  0  0  0
 41118  1  0  0  0
 41 48  1  0  0  0
 42 43  1  0  0  0
 42 66  1  0  0  0
 42119  1  0  0  0
 42120  1  0  0  0
 43 44  1  0  0  0
 44121  1  0  0  0
 45 46  2  0  0  0
 45122  1  0  0  0
 46123  1  0  0  0
 47124  1  0  0  0
 47125  1  0  0  0
 48 56  1  0  0  0
 48 65  1  0  0  0
 48126  1  0  0  0
 49 50  1  0  0  0
 49 53  1  0  0  0
 49 64  1  0  0  0
 49127  1  0  0  0
 50 51  1  0  0  0
 50128  1  0  0  0
 50129  1  0  0  0
 51 52  1  0  0  0
 51130  1  0  0  0
 51131  1  0  0  0
 52132  1  0  0  0
 52133  1  0  0  0
 53 54  1  0  0  0
 54 55  2  0  0  0
 54134  1  0  0  0
 55 57  1  0  0  0
 55135  1  0  0  0
 56 69  2  0  0  0
 57 58  2  0  0  0
 57136  1  0  0  0
 58137  1  0  0  0
 59 60  1  0  0  0
 59 61  1  0  0  0
 59 62  1  0  0  0
 60138  1  0  0  0
 60139  1  0  0  0
 60140  1  0  0  0
 61141  1  0  0  0
 61142  1  0  0  0
 61143  1  0  0  0
 62144  1  0  0  0
 62145  1  0  0  0
 62146  1  0  0  0
 63 65  1  0  0  0
 63147  1  0  0  0
 63148  1  0  0  0
 63149  1  0  0  0
 64150  1  0  0  0
 65151  1  0  0  0
 68 86  1  0  0  0
 71 73  1  0  0  0
 71 74  2  0  0  0
 71152  1  0  0  0
 72 73  2  0  0  0
 72 89  1  0  0  0
 72153  1  0  0  0
 73 90  1  0  0  0
 74 83  1  0  0  0
 74 89  1  0  0  0
 75 76  1  0  0  0
 75 78  1  0  0  0
 75154  1  0  0  0
 75155  1  0  0  0
 76 91  1  0  0  0
 76156  1  0  0  0
 76157  1  0  0  0
 77 78  1  0  0  0
 77 91  1  0  0  0
 77158  1  0  0  0
 77159  1  0  0  0
 78 84  1  0  0  0
 78160  1  0  0  0
 79161  1  0  0  0
 79162  1  0  0  0
 79163  1  0  0  0
 79 87  1  0  0  0
 80164  1  0  0  0
 80165  1  0  0  0
 80166  1  0  0  0
 80 88  1  0  0  0
 81 88  1  0  0  0
 81167  1  0  0  0
 81168  1  0  0  0
 81169  1  0  0  0
 82170  1  0  0  0
 82171  1  0  0  0
 82172  1  0  0  0
 82 92  1  0  0  0
 83 92  1  0  0  0
 83173  1  0  0  0
 83174  1  0  0  0
 84 89  1  0  0  0
 84175  1  0  0  0
 84176  1  0  0  0
 85 87  1  0  0  0
 85177  1  0  0  0
 85178  1  0  0  0
 85 91  1  0  0  0
 86 87  1  0  0  0
 86179  1  0  0  0
 86180  1  0  0  0
 87181  1  0  0  0
 88 92  1  0  0  0
 88182  1  0  0  0
 90183  1  0  0  0
 91184  1  0  0  0
 92185  1  0  0  0
M  CHG  2  91   1  92   1
M  ISO  4   1 100  68 101  86 101  90 100
M  END
> <chiral flag>
0

> <version>
0

> <s_m_source_file>
/data/baiqing/PycharmProjects/Reinvent-master-3.2/result/LINK_invent/BTK/process_docking_weight1_custom_sum_contain_oxygen_bond_distance_aromatic_linkinvent_7_9_3/rearranged_h_0119.sdf

> <i_m_source_file_index>
9

> <r_mmod_Potential_Energy-OPLS-2005>
-122.126502990723

> <r_mmod_Stretch_Energy-OPLS-2005>
40.4628944396973

> <r_mmod_Bend_Energy-OPLS-2005>
141.562210083008

> <r_mmod_Torsional_Energy-OPLS-2005>
365.936248779297

> <r_mmod_Improper_Torsional_Energy-OPLS-2005>
7.57647037506104

> <r_mmod_Van_der_Waal_Energy-OPLS-2005>
113.891120910645

> <r_mmod_Electrostatic_Energy-OPLS-2005>
107.113594055176

> <r_mmod_Solvation_Energy-OPLS-2005>
-911.701782226562

> <b_mmod_Minimization_Converged-OPLS-2005>
0

> <r_mmod_RMS_Derivative-OPLS-2005>
2.48731684684753

$$$$
9
                    3D
 Structure written by MMmdl.
166174  0  0  1  0            999 V2000
  -30.6888  -14.5273   20.4855 C   0  0  0  0  0  0
  -30.4227  -12.3223   19.4340 C   0  0  0  0  0  0
  -29.4991  -12.4952   18.2107 C   0  0  0  0  0  0
  -28.0202  -12.3641   18.6242 C   0  0  0  0  0  0
  -27.6578  -13.2203   19.8686 C   0  0  2  0  0  0
  -28.7067  -13.0446   20.9936 C   0  0  0  0  0  0
  -25.2562  -13.8181   20.5741 C   0  0  0  0  0  0
  -24.1840  -13.0445   20.9231 C   0  0  0  0  0  0
  -24.6428  -11.6929   20.8781 C   0  0  0  0  0  0
  -23.9105  -10.4300   21.0440 C   0  0  0  0  0  0
  -24.3645   -9.4198   21.9193 C   0  0  0  0  0  0
  -23.6306   -8.2241   22.0765 C   0  0  0  0  0  0
  -22.4286   -8.0294   21.3564 C   0  0  0  0  0  0
  -21.9938   -9.0287   20.4672 C   0  0  0  0  0  0
  -22.7286  -10.2151   20.3076 C   0  0  0  0  0  0
  -21.6842   -6.0748   22.5291 C   0  0  0  0  0  0
  -21.4025   -6.5660   23.8225 C   0  0  0  0  0  0
  -21.3649   -5.6804   24.9175 C   0  0  0  0  0  0
  -21.6024   -4.3053   24.7221 C   0  0  0  0  0  0
  -21.8818   -3.8158   23.4343 C   0  0  0  0  0  0
  -21.9200   -4.6985   22.3409 C   0  0  0  0  0  0
  -22.7849  -13.5237   21.1838 C   0  0  0  0  0  0
  -22.1665   -4.2182   21.0982 F   0  0  0  0  0  0
  -21.5614   -3.4535   25.7726 F   0  0  0  0  0  0
  -30.0282  -13.3395   20.4231 N   0  0  0  0  0  0
  -26.3013  -12.9395   20.3371 N   0  0  0  0  0  0
  -25.9358  -11.6538   20.5806 N   0  0  0  0  0  0
  -22.0471  -12.8264   22.0404 N   0  0  0  0  0  0
  -25.4172  -15.1905   20.4163 N   0  0  0  0  0  0
  -31.8643  -14.6379   20.1278 O   0  0  0  0  0  0
  -21.6636   -6.8903   21.4259 O   0  0  0  0  0  0
  -22.3545  -14.5541   20.6659 O   0  0  0  0  0  0
  -24.6164  -31.8653   23.2073 C   0  0  0  0  0  0
  -25.9059  -32.4805   23.8378 C   0  0  1  0  0  0
  -27.2228  -27.4083   20.1159 C   0  0  0  0  0  0
  -25.5908  -33.8599   24.2295 N   0  0  0  0  0  0
  -23.4041  -30.4925   21.5449 C   0  0  2  0  0  0
  -24.8498  -28.9542   20.1121 C   0  0  0  0  0  0
  -22.7433  -29.4660   22.4940 C   0  0  0  0  0  0
  -18.0284  -28.1411   22.8491 C   0  0  0  0  0  0
  -24.1470  -36.7317   23.2639 C   0  0  0  0  0  0
  -25.9355  -30.8276   21.3639 C   0  0  0  0  0  0
  -26.0122  -29.4619   20.7099 C   0  0  0  0  0  0
  -27.2039  -28.6986   20.7015 C   0  0  0  0  0  0
  -26.0474  -26.9220   19.5073 C   0  0  0  0  0  0
  -24.8656  -27.6891   19.5033 C   0  0  0  0  0  0
  -23.6150  -29.8263   20.1587 C   0  0  0  0  0  0
  -25.4093  -36.3095   24.0336 C   0  0  1  0  0  0
  -20.5874  -28.3704   23.1307 C   0  0  2  0  0  0
  -20.6763  -26.9439   22.5412 C   0  0  0  0  0  0
  -19.5731  -26.6409   21.5224 C   0  0  0  0  0  0
  -18.1912  -26.7945   22.1625 C   0  0  0  0  0  0
  -19.1532  -28.8870   23.2893 C   0  0  0  0  0  0
  -18.9452  -30.1472   23.8910 C   0  0  0  0  0  0
  -17.6456  -30.6591   24.0596 C   0  0  0  0  0  0
  -25.9028  -34.9462   23.5090 C   0  0  0  0  0  0
  -16.5344  -29.9103   23.6355 C   0  0  0  0  0  0
  -16.7281  -28.6529   23.0349 C   0  0  0  0  0  0
  -26.4484  -31.6626   25.0735 C   0  0  0  0  0  0
  -25.3760  -31.3789   26.1508 C   0  0  0  0  0  0
  -27.0334  -30.3054   24.6188 C   0  0  0  0  0  0
  -27.6021  -32.4390   25.7512 C   0  0  0  0  0  0
  -27.5576  -37.1811   24.8456 C   0  0  0  0  0  0
  -21.4150  -29.3035   22.3682 N   0  0  0  0  0  0
  -26.4266  -37.3798   23.9418 N   0  0  0  0  0  0
  -24.6690  -31.0780   22.0974 N   0  0  0  0  0  0
  -23.4195  -28.8227   23.2993 O   0  0  0  0  0  0
  -28.3665  -26.6346   20.1290 O   0  0  0  0  0  0
  -26.5590  -34.8918   22.4664 O   0  0  0  0  0  0
  -23.5351  -32.1365   23.7507 O   0  0  0  0  0  0
  -29.0914  -19.3009   20.1440 C   0  0  0  0  0  0
  -29.1265  -19.7957   22.3034 C   0  0  0  0  0  0
  -28.7445  -20.3179   21.0950 C   0  0  0  0  0  0
  -29.6724  -18.2202   20.7782 C   0  0  0  0  0  0
  -27.2476  -22.1468   22.0700 C   0  0  0  0  0  0
  -29.0207  -17.0112   23.9430 C   0  0  0  0  0  0
  -31.1080  -18.4720   24.1597 C   0  0  0  0  0  0
  -30.3316  -16.9767   20.1876 C   0  0  0  0  0  0
  -28.4495  -24.1359   19.7607 C   0  0  0  0  0  0
  -29.0380  -22.7983   20.3431 C   0  0  0  0  0  0
  -28.2491  -25.3281   20.7455 C   0  0  0  0  0  0
  -28.0574  -21.6838   20.8388 C   0  0  1  0  0  0
  -30.1898  -17.6885   23.2137 C   0  0  0  0  0  0
  -29.6887  -18.5346   22.1322 N   0  0  0  0  0  0
  -29.9309  -15.6333   20.6849 N   0  0  0  0  0  0
  -31.4696  -12.4078   19.1343 H   0  0  0  0  0  0
  -30.3241  -11.3208   19.8552 H   0  0  0  0  0  0
  -29.7376  -11.7450   17.4561 H   0  0  0  0  0  0
  -29.6737  -13.4664   17.7409 H   0  0  0  0  0  0
  -27.8365  -11.3125   18.8381 H   0  0  0  0  0  0
  -27.3701  -12.6204   17.7871 H   0  0  0  0  0  0
  -27.6828  -14.2622   19.5449 H   0  0  0  0  0  0
  -28.7005  -12.0225   21.3762 H   0  0  0  0  0  0
  -28.4863  -13.6902   21.8455 H   0  0  0  0  0  0
  -25.2802   -9.5645   22.4756 H   0  0  0  0  0  0
  -24.0008   -7.4631   22.7484 H   0  0  0  0  0  0
  -21.0862   -8.8833   19.8985 H   0  0  0  0  0  0
  -22.3774  -10.9703   19.6170 H   0  0  0  0  0  0
  -21.2039   -7.6172   23.9741 H   0  0  0  0  0  0
  -21.1448   -6.0525   25.9081 H   0  0  0  0  0  0
  -22.0603   -2.7628   23.2822 H   0  0  0  0  0  0
  -22.4072  -11.9978   22.4897 H   0  0  0  0  0  0
  -21.1070  -13.1279   22.2538 H   0  0  0  0  0  0
  -24.6419  -15.8307   20.5497 H   0  0  0  0  0  0
  -26.2539  -15.6474   20.0784 H   0  0  0  0  0  0
  -26.7153  -32.5533   23.1166 H   0  0  0  0  0  0
  -25.0081  -33.9746   25.0458 H   0  0  0  0  0  0
  -22.6917  -31.3082   21.4082 H   0  0  0  0  0  0
  -23.3713  -35.9668   23.3283 H   0  0  0  0  0  0
  -24.3542  -36.8948   22.2052 H   0  0  0  0  0  0
  -23.7230  -37.6518   23.6671 H   0  0  0  0  0  0
  -26.0505  -31.5953   20.5968 H   0  0  0  0  0  0
  -26.8177  -30.8748   21.9895 H   0  0  0  0  0  0
  -28.0995  -29.0830   21.1674 H   0  0  0  0  0  0
  -26.0432  -25.9505   19.0358 H   0  0  0  0  0  0
  -23.9771  -27.2975   19.0248 H   0  0  0  0  0  0
  -23.7284  -30.5960   19.3939 H   0  0  0  0  0  0
  -22.7362  -29.2482   19.8672 H   0  0  0  0  0  0
  -25.1271  -36.1936   25.0829 H   0  0  0  0  0  0
  -20.9995  -28.3272   24.1418 H   0  0  0  0  0  0
  -20.5679  -26.2311   23.3594 H   0  0  0  0  0  0
  -21.6639  -26.7462   22.1214 H   0  0  0  0  0  0
  -19.6875  -25.6325   21.1246 H   0  0  0  0  0  0
  -19.6675  -27.3207   20.6751 H   0  0  0  0  0  0
  -17.4195  -26.6719   21.4018 H   0  0  0  0  0  0
  -18.0310  -26.0073   22.9014 H   0  0  0  0  0  0
  -19.7919  -30.7315   24.2244 H   0  0  0  0  0  0
  -17.5004  -31.6275   24.5208 H   0  0  0  0  0  0
  -15.5334  -30.3026   23.7669 H   0  0  0  0  0  0
  -15.8671  -28.0883   22.7039 H   0  0  0  0  0  0
  -24.5858  -30.7213   25.7893 H   0  0  0  0  0  0
  -24.9057  -32.2983   26.5011 H   0  0  0  0  0  0
  -25.8109  -30.8924   27.0244 H   0  0  0  0  0  0
  -26.2917  -29.6802   24.1215 H   0  0  0  0  0  0
  -27.4022  -29.7331   25.4707 H   0  0  0  0  0  0
  -27.8781  -30.4331   23.9411 H   0  0  0  0  0  0
  -27.2582  -33.3657   26.2123 H   0  0  0  0  0  0
  -28.3822  -32.7023   25.0362 H   0  0  0  0  0  0
  -28.0714  -31.8525   26.5415 H   0  0  0  0  0  0
  -28.2591  -38.0117   24.7524 H   0  0  0  0  0  0
  -28.1059  -36.2646   24.6231 H   0  0  0  0  0  0
  -27.2298  -37.1436   25.8858 H   0  0  0  0  0  0
  -20.9306  -29.8776   21.6935 H   0  0  0  0  0  0
  -26.0129  -38.2858   24.1448 H   0  0  0  0  0  0
  -28.9497  -19.3588   19.0721 H   0  0  0  0  0  0
  -29.0477  -20.2209   23.2952 H   0  0  0  0  0  0
  -26.5384  -21.3830   22.3925 H   0  0  0  0  0  0
  -26.6647  -23.0413   21.8524 H   0  0  0  0  0  0
  -27.8973  -22.3752   22.9182 H   0  0  0  0  0  0
  -29.3842  -16.3610   24.7391 H   0  0  0  0  0  0
  -28.4342  -16.4021   23.2541 H   0  0  0  0  0  0
  -28.3474  -17.7450   24.3872 H   0  0  0  0  0  0
  -31.5694  -17.8070   24.8896 H   0  0  0  0  0  0
  -30.5650  -19.2391   24.7108 H   0  0  0  0  0  0
  -31.9109  -18.9582   23.6030 H   0  0  0  0  0  0
  -31.4090  -17.0975   20.3037 H   0  0  0  0  0  0
  -30.1705  -16.9830   19.1101 H   0  0  0  0  0  0
  -27.5299  -23.9475   19.2036 H   0  0  0  0  0  0
  -29.1662  -24.4804   19.0150 H   0  0  0  0  0  0
  -29.7751  -23.0197   21.1163 H   0  0  0  0  0  0
  -29.6207  -22.3576   19.5337 H   0  0  0  0  0  0
  -29.0162  -25.2832   21.5187 H   0  0  0  0  0  0
  -27.2998  -25.2221   21.2760 H   0  0  0  0  0  0
  -27.3353  -21.4898   20.0430 H   0  0  0  0  0  0
  -30.8109  -16.9057   22.7822 H   0  0  0  0  0  0
  -28.9667  -15.4990   20.9377 H   0  0  0  0  0  0
  1 25  1  0  0  0
  1 30  2  0  0  0
  1 85  1  0  0  0
  2  3  1  0  0  0
  2 25  1  0  0  0
  2 86  1  0  0  0
  2 87  1  0  0  0
  3  4  1  0  0  0
  3 88  1  0  0  0
  3 89  1  0  0  0
  4  5  1  0  0  0
  4 90  1  0  0  0
  4 91  1  0  0  0
  5  6  1  0  0  0
  5 26  1  0  0  0
  5 92  1  0  0  0
  6 25  1  0  0  0
  6 93  1  0  0  0
  6 94  1  0  0  0
  7  8  2  0  0  0
  7 26  1  0  0  0
  7 29  1  0  0  0
  8  9  1  0  0  0
  8 22  1  0  0  0
  9 10  1  0  0  0
  9 27  2  0  0  0
 10 11  2  0  0  0
 10 15  1  0  0  0
 11 12  1  0  0  0
 11 95  1  0  0  0
 12 13  2  0  0  0
 12 96  1  0  0  0
 13 14  1  0  0  0
 13 31  1  0  0  0
 14 15  2  0  0  0
 14 97  1  0  0  0
 15 98  1  0  0  0
 16 17  2  0  0  0
 16 21  1  0  0  0
 16 31  1  0  0  0
 17 18  1  0  0  0
 17 99  1  0  0  0
 18 19  2  0  0  0
 18100  1  0  0  0
 19 20  1  0  0  0
 19 24  1  0  0  0
 20 21  2  0  0  0
 20101  1  0  0  0
 21 23  1  0  0  0
 22 28  1  0  0  0
 22 32  2  0  0  0
 26 27  1  0  0  0
 28102  1  0  0  0
 28103  1  0  0  0
 29104  1  0  0  0
 29105  1  0  0  0
 33 34  1  0  0  0
 33 66  1  0  0  0
 33 70  2  0  0  0
 34 36  1  0  0  0
 34 59  1  0  0  0
 34106  1  0  0  0
 35 44  2  0  0  0
 35 45  1  0  0  0
 35 68  1  0  0  0
 36 56  1  0  0  0
 36107  1  0  0  0
 37 39  1  0  0  0
 37 47  1  0  0  0
 37 66  1  0  0  0
 37108  1  0  0  0
 38 43  2  0  0  0
 38 46  1  0  0  0
 38 47  1  0  0  0
 39 64  1  0  0  0
 39 67  2  0  0  0
 40 52  1  0  0  0
 40 53  2  0  0  0
 40 58  1  0  0  0
 41109  1  0  0  0
 41110  1  0  0  0
 41111  1  0  0  0
 41 48  1  0  0  0
 42 43  1  0  0  0
 42 66  1  0  0  0
 42112  1  0  0  0
 42113  1  0  0  0
 43 44  1  0  0  0
 44114  1  0  0  0
 45 46  2  0  0  0
 45115  1  0  0  0
 46116  1  0  0  0
 47117  1  0  0  0
 47118  1  0  0  0
 48 56  1  0  0  0
 48 65  1  0  0  0
 48119  1  0  0  0
 49 50  1  0  0  0
 49 53  1  0  0  0
 49 64  1  0  0  0
 49120  1  0  0  0
 50 51  1  0  0  0
 50121  1  0  0  0
 50122  1  0  0  0
 51 52  1  0  0  0
 51123  1  0  0  0
 51124  1  0  0  0
 52125  1  0  0  0
 52126  1  0  0  0
 53 54  1  0  0  0
 54 55  2  0  0  0
 54127  1  0  0  0
 55 57  1  0  0  0
 55128  1  0  0  0
 56 69  2  0  0  0
 57 58  2  0  0  0
 57129  1  0  0  0
 58130  1  0  0  0
 59 60  1  0  0  0
 59 61  1  0  0  0
 59 62  1  0  0  0
 60131  1  0  0  0
 60132  1  0  0  0
 60133  1  0  0  0
 61134  1  0  0  0
 61135  1  0  0  0
 61136  1  0  0  0
 62137  1  0  0  0
 62138  1  0  0  0
 62139  1  0  0  0
 63 65  1  0  0  0
 63140  1  0  0  0
 63141  1  0  0  0
 63142  1  0  0  0
 64143  1  0  0  0
 65144  1  0  0  0
 68 81  1  0  0  0
 71 73  1  0  0  0
 71 74  2  0  0  0
 71145  1  0  0  0
 72 73  2  0  0  0
 72 84  1  0  0  0
 72146  1  0  0  0
 73 82  1  0  0  0
 74 78  1  0  0  0
 74 84  1  0  0  0
 75147  1  0  0  0
 75148  1  0  0  0
 75149  1  0  0  0
 75 82  1  0  0  0
 76150  1  0  0  0
 76151  1  0  0  0
 76152  1  0  0  0
 76 83  1  0  0  0
 77 83  1  0  0  0
 77153  1  0  0  0
 77154  1  0  0  0
 77155  1  0  0  0
 78 85  1  0  0  0
 78156  1  0  0  0
 78157  1  0  0  0
 79 80  1  0  0  0
 79 81  1  0  0  0
 79158  1  0  0  0
 79159  1  0  0  0
 80 82  1  0  0  0
 80160  1  0  0  0
 80161  1  0  0  0
 81162  1  0  0  0
 81163  1  0  0  0
 82164  1  0  0  0
 83 84  1  0  0  0
 83165  1  0  0  0
 85166  1  0  0  0
M  ISO  4   1 100  68 101  81 101  85 100
M  END
> <chiral flag>
0

> <version>
0

> <s_m_source_file>
/data/baiqing/PycharmProjects/Reinvent-master-3.2/result/LINK_invent/BTK/process_docking_weight1_custom_sum_contain_oxygen_bond_distance_aromatic_linkinvent_7_9_3/rearranged_h_0119.sdf

> <i_m_source_file_index>
10

> <r_mmod_Potential_Energy-OPLS-2005>
-88.2872085571289

> <r_mmod_Stretch_Energy-OPLS-2005>
46.3215026855469

> <r_mmod_Bend_Energy-OPLS-2005>
111.76416015625

> <r_mmod_Torsional_Energy-OPLS-2005>
264.789215087891

> <r_mmod_Improper_Torsional_Energy-OPLS-2005>
7.85705327987671

> <r_mmod_Van_der_Waal_Energy-OPLS-2005>
118.834945678711

> <r_mmod_Electrostatic_Energy-OPLS-2005>
-468.273193359375

> <r_mmod_Solvation_Energy-OPLS-2005>
-192.059982299805

> <b_mmod_Minimization_Converged-OPLS-2005>
0

> <r_mmod_RMS_Derivative-OPLS-2005>
4.52926349639893

$$$$
10
                    3D
 Structure written by MMmdl.
187196  0  0  1  0            999 V2000
  -30.7184  -14.4356   20.5813 C   0  0  0  0  0  0
  -30.4154  -12.2858   19.4197 C   0  0  0  0  0  0
  -29.4906  -12.5060   18.2056 C   0  0  0  0  0  0
  -28.0113  -12.3748   18.6180 C   0  0  0  0  0  0
  -27.6638  -13.2072   19.8818 C   0  0  2  0  0  0
  -28.7047  -12.9745   21.0009 C   0  0  0  0  0  0
  -25.2592  -13.8171   20.5693 C   0  0  0  0  0  0
  -24.1838  -13.0444   20.9176 C   0  0  0  0  0  0
  -24.6394  -11.6911   20.8739 C   0  0  0  0  0  0
  -23.9060  -10.4295   21.0409 C   0  0  0  0  0  0
  -24.3616   -9.4212   21.9187 C   0  0  0  0  0  0
  -23.6295   -8.2246   22.0759 C   0  0  0  0  0  0
  -22.4277   -8.0282   21.3546 C   0  0  0  0  0  0
  -21.9909   -9.0254   20.4646 C   0  0  0  0  0  0
  -22.7235  -10.2135   20.3057 C   0  0  0  0  0  0
  -21.6851   -6.0738   22.5280 C   0  0  0  0  0  0
  -21.4008   -6.5640   23.8213 C   0  0  0  0  0  0
  -21.3661   -5.6795   24.9176 C   0  0  0  0  0  0
  -21.6047   -4.3057   24.7226 C   0  0  0  0  0  0
  -21.8816   -3.8147   23.4346 C   0  0  0  0  0  0
  -21.9191   -4.6964   22.3402 C   0  0  0  0  0  0
  -22.7858  -13.5235   21.1845 C   0  0  0  0  0  0
  -22.1661   -4.2150   21.0979 F   0  0  0  0  0  0
  -21.5635   -3.4540   25.7740 F   0  0  0  0  0  0
  -30.0388  -13.2661   20.4491 N   0  0  0  0  0  0
  -26.3035  -12.9342   20.3405 N   0  0  0  0  0  0
  -25.9324  -11.6498   20.5785 N   0  0  0  0  0  0
  -22.0505  -12.8222   22.0402 N   0  0  0  0  0  0
  -25.4310  -15.1888   20.4099 N   0  0  0  0  0  0
  -31.8304  -14.6253   20.0815 O   0  0  0  0  0  0
  -21.6641   -6.8881   21.4243 O   0  0  0  0  0  0
  -22.3535  -14.5546   20.6706 O   0  0  0  0  0  0
  -24.6134  -31.8686   23.2093 C   0  0  0  0  0  0
  -25.9032  -32.4822   23.8387 C   0  0  1  0  0  0
  -27.2381  -27.4428   20.0778 C   0  0  0  0  0  0
  -25.5895  -33.8620   24.2324 N   0  0  0  0  0  0
  -23.3997  -30.4919   21.5508 C   0  0  2  0  0  0
  -24.8426  -28.9547   20.1155 C   0  0  0  0  0  0
  -22.7396  -29.4663   22.5002 C   0  0  0  0  0  0
  -18.0271  -28.1368   22.8496 C   0  0  0  0  0  0
  -24.1486  -36.7313   23.2638 C   0  0  0  0  0  0
  -25.9270  -30.8337   21.3608 C   0  0  0  0  0  0
  -26.0011  -29.4678   20.7088 C   0  0  0  0  0  0
  -27.1960  -28.7161   20.6903 C   0  0  0  0  0  0
  -26.0515  -26.9302   19.5029 C   0  0  0  0  0  0
  -24.8615  -27.6836   19.5154 C   0  0  0  0  0  0
  -23.6054  -29.8222   20.1655 C   0  0  0  0  0  0
  -25.4108  -36.3114   24.0340 C   0  0  1  0  0  0
  -20.5859  -28.3655   23.1326 C   0  0  2  0  0  0
  -20.6761  -26.9395   22.5420 C   0  0  0  0  0  0
  -19.5742  -26.6384   21.5211 C   0  0  0  0  0  0
  -18.1919  -26.7919   22.1621 C   0  0  0  0  0  0
  -19.1520  -28.8828   23.2910 C   0  0  0  0  0  0
  -18.9451  -30.1436   23.8919 C   0  0  0  0  0  0
  -17.6455  -30.6579   24.0567 C   0  0  0  0  0  0
  -25.9034  -34.9477   23.5131 C   0  0  0  0  0  0
  -16.5346  -29.9085   23.6323 C   0  0  0  0  0  0
  -16.7261  -28.6499   23.0346 C   0  0  0  0  0  0
  -26.4464  -31.6597   25.0713 C   0  0  0  0  0  0
  -25.3733  -31.3697   26.1464 C   0  0  0  0  0  0
  -27.0297  -30.3047   24.6075 C   0  0  0  0  0  0
  -27.6047  -32.4311   25.7471 C   0  0  0  0  0  0
  -27.5582  -37.1813   24.8468 C   0  0  0  0  0  0
  -21.4128  -29.3030   22.3737 N   0  0  0  0  0  0
  -26.4296  -37.3797   23.9408 N   0  0  0  0  0  0
  -24.6650  -31.0791   22.0989 N   0  0  0  0  0  0
  -23.4174  -28.8211   23.3041 O   0  0  0  0  0  0
  -28.4450  -26.7738   20.0920 O   0  0  0  0  0  0
  -26.5600  -34.8930   22.4695 O   0  0  0  0  0  0
  -23.5332  -32.1439   23.7496 O   0  0  0  0  0  0
  -32.4718  -27.4599   18.3138 C   0  0  0  0  0  0
  -31.4944  -27.1749   17.1672 C   0  0  0  0  0  0
  -32.5400  -26.2765   19.2878 C   0  0  0  0  0  0
  -28.8893  -19.8778   19.0818 C   0  0  0  0  0  0
  -30.4693  -20.0487   21.0002 C   0  0  0  0  0  0
  -29.5837  -21.0400   18.3478 C   0  0  0  0  0  0
  -31.2060  -21.2234   20.3237 C   0  0  0  0  0  0
  -30.1001  -26.7906   17.7012 C   0  0  0  0  0  0
  -31.1429  -25.9135   19.8241 C   0  0  0  0  0  0
  -29.8953  -19.0872   19.9427 C   0  0  1  0  0  0
  -30.3415  -22.0108   19.2974 C   0  0  1  0  0  0
  -30.0929  -25.6027   18.7139 C   0  0  0  0  0  0
  -28.1271  -17.9072   21.4242 C   0  0  0  0  0  0
  -30.3528  -24.2596   17.9241 C   0  0  0  0  0  0
  -28.6669  -25.5711   19.3401 C   0  0  0  0  0  0
  -30.4294  -16.8538   21.1383 C   0  0  0  0  0  0
  -32.1045  -22.4434   17.4520 C   0  0  0  0  0  0
  -29.3358  -17.7390   20.4862 C   0  0  2  0  0  0
  -31.1938  -23.0880   18.5427 C   0  0  2  0  0  0
  -30.0421  -15.4363   21.1686 N   0  0  0  0  0  0
  -33.2497  -23.2855   17.0607 N   0  3  0  0  0  0
  -31.4621  -12.3693   19.1211 H   0  0  0  0  0  0
  -30.2990  -11.2735   19.8104 H   0  0  0  0  0  0
  -29.7230  -11.7870   17.4190 H   0  0  0  0  0  0
  -29.6687  -13.4946   17.7788 H   0  0  0  0  0  0
  -27.8135  -11.3186   18.8045 H   0  0  0  0  0  0
  -27.3630  -12.6628   17.7896 H   0  0  0  0  0  0
  -27.7137  -14.2580   19.5959 H   0  0  0  0  0  0
  -28.6717  -11.9375   21.3384 H   0  0  0  0  0  0
  -28.4720  -13.5723   21.8835 H   0  0  0  0  0  0
  -25.2764   -9.5690   22.4755 H   0  0  0  0  0  0
  -24.0007   -7.4637   22.7477 H   0  0  0  0  0  0
  -21.0841   -8.8766   19.8950 H   0  0  0  0  0  0
  -22.3693  -10.9673   19.6163 H   0  0  0  0  0  0
  -21.1993   -7.6147   23.9712 H   0  0  0  0  0  0
  -21.1490   -6.0529   25.9080 H   0  0  0  0  0  0
  -22.0592   -2.7608   23.2850 H   0  0  0  0  0  0
  -22.4126  -11.9871   22.4762 H   0  0  0  0  0  0
  -21.1125  -13.1246   22.2628 H   0  0  0  0  0  0
  -24.6662  -15.8454   20.5181 H   0  0  0  0  0  0
  -26.2862  -15.6266   20.0924 H   0  0  0  0  0  0
  -26.7102  -32.5533   23.1148 H   0  0  0  0  0  0
  -25.0053  -33.9786   25.0474 H   0  0  0  0  0  0
  -22.6883  -31.3085   21.4117 H   0  0  0  0  0  0
  -23.3748  -35.9647   23.3316 H   0  0  0  0  0  0
  -24.3581  -36.8916   22.2051 H   0  0  0  0  0  0
  -23.7241  -37.6524   23.6641 H   0  0  0  0  0  0
  -26.0379  -31.5986   20.5911 H   0  0  0  0  0  0
  -26.8160  -30.8876   21.9773 H   0  0  0  0  0  0
  -28.0942  -29.1128   21.1424 H   0  0  0  0  0  0
  -26.0113  -25.9513   19.0514 H   0  0  0  0  0  0
  -23.9651  -27.2771   19.0670 H   0  0  0  0  0  0
  -23.7130  -30.5961   19.4044 H   0  0  0  0  0  0
  -22.7289  -29.2419   19.8716 H   0  0  0  0  0  0
  -25.1284  -36.1985   25.0833 H   0  0  0  0  0  0
  -20.9949  -28.3217   24.1446 H   0  0  0  0  0  0
  -20.5661  -26.2261   23.3602 H   0  0  0  0  0  0
  -21.6633  -26.7441   22.1215 H   0  0  0  0  0  0
  -19.6905  -25.6301   21.1227 H   0  0  0  0  0  0
  -19.6681  -27.3208   20.6750 H   0  0  0  0  0  0
  -17.4190  -26.6675   21.4019 H   0  0  0  0  0  0
  -18.0319  -26.0050   22.9005 H   0  0  0  0  0  0
  -19.7927  -30.7244   24.2298 H   0  0  0  0  0  0
  -17.5013  -31.6262   24.5162 H   0  0  0  0  0  0
  -15.5349  -30.2995   23.7632 H   0  0  0  0  0  0
  -15.8659  -28.0828   22.7046 H   0  0  0  0  0  0
  -24.5907  -30.7042   25.7801 H   0  0  0  0  0  0
  -24.8914  -32.2847   26.4918 H   0  0  0  0  0  0
  -25.8088  -30.8864   27.0218 H   0  0  0  0  0  0
  -26.2837  -29.6810   24.1136 H   0  0  0  0  0  0
  -27.4094  -29.7280   25.4520 H   0  0  0  0  0  0
  -27.8654  -30.4382   23.9201 H   0  0  0  0  0  0
  -27.2677  -33.3607   26.2069 H   0  0  0  0  0  0
  -28.3839  -32.6879   25.0281 H   0  0  0  0  0  0
  -28.0729  -31.8418   26.5367 H   0  0  0  0  0  0
  -28.2611  -38.0099   24.7511 H   0  0  0  0  0  0
  -28.1069  -36.2635   24.6300 H   0  0  0  0  0  0
  -27.2302  -37.1474   25.8872 H   0  0  0  0  0  0
  -20.9281  -29.8757   21.6970 H   0  0  0  0  0  0
  -26.0191  -38.2881   24.1398 H   0  0  0  0  0  0
  -32.1549  -28.3568   18.8487 H   0  0  0  0  0  0
  -33.4639  -27.6763   17.9149 H   0  0  0  0  0  0
  -31.8956  -26.3950   16.5220 H   0  0  0  0  0  0
  -31.4081  -28.0604   16.5359 H   0  0  0  0  0  0
  -33.1954  -26.5303   20.1222 H   0  0  0  0  0  0
  -32.9993  -25.4237   18.7963 H   0  0  0  0  0  0
  -28.4239  -19.2181   18.3483 H   0  0  0  0  0  0
  -28.0813  -20.2694   19.7009 H   0  0  0  0  0  0
  -29.6717  -20.4294   21.6393 H   0  0  0  0  0  0
  -31.1648  -19.5246   21.6565 H   0  0  0  0  0  0
  -28.8442  -21.5891   17.7645 H   0  0  0  0  0  0
  -30.2640  -20.5932   17.6241 H   0  0  0  0  0  0
  -32.0979  -20.8218   19.8442 H   0  0  0  0  0  0
  -31.5699  -21.9049   21.0939 H   0  0  0  0  0  0
  -29.4348  -26.5751   16.8636 H   0  0  0  0  0  0
  -29.6845  -27.6817   18.1731 H   0  0  0  0  0  0
  -30.8140  -26.7718   20.4105 H   0  0  0  0  0  0
  -31.1989  -25.1016   20.5490 H   0  0  0  0  0  0
  -30.7183  -18.8113   19.2806 H   0  0  0  0  0  0
  -29.5884  -22.5382   19.8842 H   0  0  0  0  0  0
  -27.3152  -18.4490   20.9406 H   0  0  0  0  0  0
  -28.3970  -18.4494   22.3307 H   0  0  0  0  0  0
  -27.7247  -16.9410   21.7288 H   0  0  0  0  0  0
  -30.8349  -24.5281   16.9872 H   0  0  0  0  0  0
  -29.4004  -23.8608   17.5748 H   0  0  0  0  0  0
  -28.5571  -24.7177   20.0094 H   0  0  0  0  0  0
  -27.9525  -25.4379   18.5300 H   0  0  0  0  0  0
  -30.6285  -17.1832   22.1591 H   0  0  0  0  0  0
  -31.3697  -16.9864   20.5997 H   0  0  0  0  0  0
  -31.5245  -22.2116   16.5571 H   0  0  0  0  0  0
  -32.5181  -21.4960   17.7956 H   0  0  0  0  0  0
  -28.9820  -17.1962   19.6073 H   0  0  0  0  0  0
  -31.8785  -23.4916   19.2830 H   0  0  0  0  0  0
  -29.1384  -15.2086   21.5551 H   0  0  0  0  0  0
  -32.9480  -24.1581   16.6670 H   0  0  0  0  0  0
  -33.7935  -22.8068   16.3635 H   0  0  0  0  0  0
  -33.8503  -23.4618   17.8465 H   0  0  0  0  0  0
  1 25  1  0  0  0
  1 30  2  0  0  0
  1 90  1  0  0  0
  2  3  1  0  0  0
  2 25  1  0  0  0
  2 92  1  0  0  0
  2 93  1  0  0  0
  3  4  1  0  0  0
  3 94  1  0  0  0
  3 95  1  0  0  0
  4  5  1  0  0  0
  4 96  1  0  0  0
  4 97  1  0  0  0
  5  6  1  0  0  0
  5 26  1  0  0  0
  5 98  1  0  0  0
  6 25  1  0  0  0
  6 99  1  0  0  0
  6100  1  0  0  0
  7  8  2  0  0  0
  7 26  1  0  0  0
  7 29  1  0  0  0
  8  9  1  0  0  0
  8 22  1  0  0  0
  9 10  1  0  0  0
  9 27  2  0  0  0
 10 11  2  0  0  0
 10 15  1  0  0  0
 11 12  1  0  0  0
 11101  1  0  0  0
 12 13  2  0  0  0
 12102  1  0  0  0
 13 14  1  0  0  0
 13 31  1  0  0  0
 14 15  2  0  0  0
 14103  1  0  0  0
 15104  1  0  0  0
 16 17  2  0  0  0
 16 21  1  0  0  0
 16 31  1  0  0  0
 17 18  1  0  0  0
 17105  1  0  0  0
 18 19  2  0  0  0
 18106  1  0  0  0
 19 20  1  0  0  0
 19 24  1  0  0  0
 20 21  2  0  0  0
 20107  1  0  0  0
 21 23  1  0  0  0
 22 28  1  0  0  0
 22 32  2  0  0  0
 26 27  1  0  0  0
 28108  1  0  0  0
 28109  1  0  0  0
 29110  1  0  0  0
 29111  1  0  0  0
 33 34  1  0  0  0
 33 66  1  0  0  0
 33 70  2  0  0  0
 34 36  1  0  0  0
 34 59  1  0  0  0
 34112  1  0  0  0
 35 44  2  0  0  0
 35 45  1  0  0  0
 35 68  1  0  0  0
 36 56  1  0  0  0
 36113  1  0  0  0
 37 39  1  0  0  0
 37 47  1  0  0  0
 37 66  1  0  0  0
 37114  1  0  0  0
 38 43  2  0  0  0
 38 46  1  0  0  0
 38 47  1  0  0  0
 39 64  1  0  0  0
 39 67  2  0  0  0
 40 52  1  0  0  0
 40 53  2  0  0  0
 40 58  1  0  0  0
 41115  1  0  0  0
 41116  1  0  0  0
 41117  1  0  0  0
 41 48  1  0  0  0
 42 43  1  0  0  0
 42 66  1  0  0  0
 42118  1  0  0  0
 42119  1  0  0  0
 43 44  1  0  0  0
 44120  1  0  0  0
 45 46  2  0  0  0
 45121  1  0  0  0
 46122  1  0  0  0
 47123  1  0  0  0
 47124  1  0  0  0
 48 56  1  0  0  0
 48 65  1  0  0  0
 48125  1  0  0  0
 49 50  1  0  0  0
 49 53  1  0  0  0
 49 64  1  0  0  0
 49126  1  0  0  0
 50 51  1  0  0  0
 50127  1  0  0  0
 50128  1  0  0  0
 51 52  1  0  0  0
 51129  1  0  0  0
 51130  1  0  0  0
 52131  1  0  0  0
 52132  1  0  0  0
 53 54  1  0  0  0
 54 55  2  0  0  0
 54133  1  0  0  0
 55 57  1  0  0  0
 55134  1  0  0  0
 56 69  2  0  0  0
 57 58  2  0  0  0
 57135  1  0  0  0
 58136  1  0  0  0
 59 60  1  0  0  0
 59 61  1  0  0  0
 59 62  1  0  0  0
 60137  1  0  0  0
 60138  1  0  0  0
 60139  1  0  0  0
 61140  1  0  0  0
 61141  1  0  0  0
 61142  1  0  0  0
 62143  1  0  0  0
 62144  1  0  0  0
 62145  1  0  0  0
 63 65  1  0  0  0
 63146  1  0  0  0
 63147  1  0  0  0
 63148  1  0  0  0
 64149  1  0  0  0
 65150  1  0  0  0
 68 85  1  0  0  0
 71 72  1  0  0  0
 71 73  1  0  0  0
 71151  1  0  0  0
 71152  1  0  0  0
 72 78  1  0  0  0
 72153  1  0  0  0
 72154  1  0  0  0
 73 79  1  0  0  0
 73155  1  0  0  0
 73156  1  0  0  0
 74 76  1  0  0  0
 74157  1  0  0  0
 74158  1  0  0  0
 74 80  1  0  0  0
 75 77  1  0  0  0
 75 80  1  0  0  0
 75159  1  0  0  0
 75160  1  0  0  0
 76161  1  0  0  0
 76162  1  0  0  0
 76 81  1  0  0  0
 77 81  1  0  0  0
 77163  1  0  0  0
 77164  1  0  0  0
 78 82  1  0  0  0
 78165  1  0  0  0
 78166  1  0  0  0
 79 82  1  0  0  0
 79167  1  0  0  0
 79168  1  0  0  0
 80 88  1  0  0  0
 80169  1  0  0  0
 81 89  1  0  0  0
 81170  1  0  0  0
 82 84  1  0  0  0
 82 85  1  0  0  0
 83171  1  0  0  0
 83172  1  0  0  0
 83173  1  0  0  0
 83 88  1  0  0  0
 84174  1  0  0  0
 84175  1  0  0  0
 84 89  1  0  0  0
 85176  1  0  0  0
 85177  1  0  0  0
 86 88  1  0  0  0
 86 90  1  0  0  0
 86178  1  0  0  0
 86179  1  0  0  0
 87 89  1  0  0  0
 87 91  1  0  0  0
 87180  1  0  0  0
 87181  1  0  0  0
 88182  1  0  0  0
 89183  1  0  0  0
 90184  1  0  0  0
 91185  1  0  0  0
 91186  1  0  0  0
 91187  1  0  0  0
M  CHG  1  91   1
M  ISO  4   1 100  68 101  85 101  90 100
M  END
> <chiral flag>
0

> <version>
0

> <s_m_source_file>
/data/baiqing/PycharmProjects/Reinvent-master-3.2/result/LINK_invent/BTK/process_docking_weight1_custom_sum_contain_oxygen_bond_distance_aromatic_linkinvent_7_9_3/rearranged_h_0119.sdf

> <i_m_source_file_index>
11

> <r_mmod_Potential_Energy-OPLS-2005>
-164.36213684082

> <r_mmod_Stretch_Energy-OPLS-2005>
45.983642578125

> <r_mmod_Bend_Energy-OPLS-2005>
135.804061889648

> <r_mmod_Torsional_Energy-OPLS-2005>
303.907897949219

> <r_mmod_Improper_Torsional_Energy-OPLS-2005>
3.36498403549194

> <r_mmod_Van_der_Waal_Energy-OPLS-2005>
150.064926147461

> <r_mmod_Electrostatic_Energy-OPLS-2005>
-345.507537841797

> <r_mmod_Solvation_Energy-OPLS-2005>
-468.732452392578

> <b_mmod_Minimization_Converged-OPLS-2005>
0

> <r_mmod_RMS_Derivative-OPLS-2005>
0.674618721008301

$$$$
11
                    3D
 Structure written by MMmdl.
165174  0  0  1  0            999 V2000
  -30.6829  -14.4749   20.6106 C   0  0  0  0  0  0
  -30.4388  -12.3292   19.4074 C   0  0  0  0  0  0
  -29.4908  -12.5240   18.2052 C   0  0  0  0  0  0
  -28.0190  -12.3535   18.6309 C   0  0  0  0  0  0
  -27.6672  -13.1902   19.8853 C   0  0  2  0  0  0
  -28.7114  -12.9500   20.9981 C   0  0  0  0  0  0
  -25.2632  -13.8110   20.5696 C   0  0  0  0  0  0
  -24.1839  -13.0426   20.9129 C   0  0  0  0  0  0
  -24.6377  -11.6884   20.8701 C   0  0  0  0  0  0
  -23.9032  -10.4283   21.0398 C   0  0  0  0  0  0
  -24.3579   -9.4214   21.9183 C   0  0  0  0  0  0
  -23.6279   -8.2234   22.0760 C   0  0  0  0  0  0
  -22.4262   -8.0255   21.3546 C   0  0  0  0  0  0
  -21.9879   -9.0221   20.4649 C   0  0  0  0  0  0
  -22.7200  -10.2111   20.3061 C   0  0  0  0  0  0
  -21.6859   -6.0700   22.5271 C   0  0  0  0  0  0
  -21.4010   -6.5614   23.8189 C   0  0  0  0  0  0
  -21.3669   -5.6785   24.9161 C   0  0  0  0  0  0
  -21.6059   -4.3039   24.7239 C   0  0  0  0  0  0
  -21.8830   -3.8119   23.4359 C   0  0  0  0  0  0
  -21.9202   -4.6928   22.3407 C   0  0  0  0  0  0
  -22.7876  -13.5240   21.1824 C   0  0  0  0  0  0
  -22.1668   -4.2096   21.0991 F   0  0  0  0  0  0
  -21.5652   -3.4548   25.7762 F   0  0  0  0  0  0
  -30.0465  -13.2787   20.4611 N   0  0  0  0  0  0
  -26.3066  -12.9242   20.3439 N   0  0  0  0  0  0
  -25.9308  -11.6430   20.5798 N   0  0  0  0  0  0
  -22.0526  -12.8209   22.0381 N   0  0  0  0  0  0
  -25.4489  -15.1814   20.4190 N   0  0  0  0  0  0
  -31.7572  -14.7371   20.0560 O   0  0  0  0  0  0
  -21.6654   -6.8844   21.4229 O   0  0  0  0  0  0
  -22.3550  -14.5558   20.6716 O   0  0  0  0  0  0
  -24.6152  -31.8676   23.2127 C   0  0  0  0  0  0
  -25.9032  -32.4817   23.8424 C   0  0  1  0  0  0
  -27.2470  -27.4198   20.0908 C   0  0  0  0  0  0
  -25.5904  -33.8619   24.2362 N   0  0  0  0  0  0
  -23.4044  -30.4940   21.5538 C   0  0  2  0  0  0
  -24.8526  -28.9546   20.1246 C   0  0  0  0  0  0
  -22.7413  -29.4664   22.4987 C   0  0  0  0  0  0
  -18.0261  -28.1389   22.8500 C   0  0  0  0  0  0
  -24.1463  -36.7310   23.2634 C   0  0  0  0  0  0
  -25.9374  -30.8281   21.3704 C   0  0  0  0  0  0
  -26.0171  -29.4630   20.7132 C   0  0  0  0  0  0
  -27.2133  -28.7060   20.6874 C   0  0  0  0  0  0
  -26.0454  -26.9240   19.5229 C   0  0  0  0  0  0
  -24.8628  -27.6861   19.5289 C   0  0  0  0  0  0
  -23.6171  -29.8236   20.1717 C   0  0  0  0  0  0
  -25.4090  -36.3129   24.0356 C   0  0  1  0  0  0
  -20.5857  -28.3698   23.1304 C   0  0  2  0  0  0
  -20.6768  -26.9420   22.5423 C   0  0  0  0  0  0
  -19.5755  -26.6392   21.5225 C   0  0  0  0  0  0
  -18.1930  -26.7919   22.1625 C   0  0  0  0  0  0
  -19.1517  -28.8849   23.2896 C   0  0  0  0  0  0
  -18.9450  -30.1455   23.8926 C   0  0  0  0  0  0
  -17.6453  -30.6600   24.0578 C   0  0  0  0  0  0
  -25.9017  -34.9479   23.5158 C   0  0  0  0  0  0
  -16.5351  -29.9110   23.6331 C   0  0  0  0  0  0
  -16.7256  -28.6520   23.0365 C   0  0  0  0  0  0
  -26.4467  -31.6594   25.0740 C   0  0  0  0  0  0
  -25.3718  -31.3706   26.1470 C   0  0  0  0  0  0
  -27.0333  -30.3038   24.6173 C   0  0  0  0  0  0
  -27.6073  -32.4305   25.7456 C   0  0  0  0  0  0
  -27.5566  -37.1811   24.8465 C   0  0  0  0  0  0
  -21.4136  -29.3065   22.3707 N   0  0  0  0  0  0
  -26.4276  -37.3818   23.9416 N   0  0  0  0  0  0
  -24.6712  -31.0748   22.1052 N   0  0  0  0  0  0
  -23.4160  -28.8188   23.3021 O   0  0  0  0  0  0
  -28.4414  -26.7077   20.0857 O   0  0  0  0  0  0
  -26.5554  -34.8921   22.4708 O   0  0  0  0  0  0
  -23.5329  -32.1476   23.7484 O   0  0  0  0  0  0
  -28.3652  -19.0714   20.5276 C   0  0  0  0  0  0
  -30.2866  -17.7937   21.2463 C   0  0  0  0  0  0
  -27.7055  -17.8575   20.3096 C   0  0  0  0  0  0
  -29.6960  -19.0610   20.9906 C   0  0  0  0  0  0
  -29.5437  -16.6062   21.0156 C   0  0  0  0  0  0
  -30.1257  -20.9845   22.6461 C   0  0  0  0  0  0
  -30.4522  -22.4704   22.4495 C   0  0  0  0  0  0
  -30.1679  -21.5530   20.2837 C   0  0  0  0  0  0
  -30.4305  -20.3816   21.2752 C   0  0  2  0  0  0
  -29.8243  -23.8694   18.0723 C   0  0  0  0  0  0
  -30.5919  -24.0640   20.5332 C   0  0  0  0  0  0
  -28.4314  -25.3417   19.6272 C   0  0  0  0  0  0
  -29.8421  -24.7479   19.3408 C   0  0  2  0  0  0
  -28.2725  -16.6591   20.5554 N   0  0  0  0  0  0
  -30.0549  -15.3481   21.4178 N   0  0  0  0  0  0
  -29.9978  -22.8038   21.0814 N   0  3  2  0  0  0
  -31.4735  -12.4660   19.0900 H   0  0  0  0  0  0
  -30.3761  -11.3093   19.7869 H   0  0  0  0  0  0
  -29.7351  -11.8188   17.4103 H   0  0  0  0  0  0
  -29.6330  -13.5199   17.7835 H   0  0  0  0  0  0
  -27.8484  -11.2964   18.8347 H   0  0  0  0  0  0
  -27.3552  -12.6157   17.8083 H   0  0  0  0  0  0
  -27.7157  -14.2366   19.5877 H   0  0  0  0  0  0
  -28.6960  -11.9041   21.3088 H   0  0  0  0  0  0
  -28.4513  -13.5123   21.8947 H   0  0  0  0  0  0
  -25.2715   -9.5709   22.4758 H   0  0  0  0  0  0
  -24.0002   -7.4642   22.7475 H   0  0  0  0  0  0
  -21.0825   -8.8739   19.8954 H   0  0  0  0  0  0
  -22.3654  -10.9649   19.6166 H   0  0  0  0  0  0
  -21.1970   -7.6116   23.9674 H   0  0  0  0  0  0
  -21.1494   -6.0514   25.9058 H   0  0  0  0  0  0
  -22.0602   -2.7582   23.2892 H   0  0  0  0  0  0
  -22.4145  -11.9831   22.4693 H   0  0  0  0  0  0
  -21.1173  -13.1255   22.2655 H   0  0  0  0  0  0
  -24.7102  -15.8618   20.5641 H   0  0  0  0  0  0
  -26.3638  -15.6016   20.2676 H   0  0  0  0  0  0
  -26.7135  -32.5517   23.1207 H   0  0  0  0  0  0
  -25.0064  -33.9776   25.0519 H   0  0  0  0  0  0
  -22.6955  -31.3137   21.4125 H   0  0  0  0  0  0
  -23.3730  -35.9635   23.3333 H   0  0  0  0  0  0
  -24.3525  -36.8879   22.2034 H   0  0  0  0  0  0
  -23.7226  -37.6525   23.6632 H   0  0  0  0  0  0
  -26.0490  -31.5964   20.6023 H   0  0  0  0  0  0
  -26.8226  -30.8800   21.9916 H   0  0  0  0  0  0
  -28.1117  -29.1008   21.1392 H   0  0  0  0  0  0
  -25.9771  -25.9465   19.0716 H   0  0  0  0  0  0
  -23.9632  -27.2840   19.0804 H   0  0  0  0  0  0
  -23.7294  -30.5975   19.4118 H   0  0  0  0  0  0
  -22.7415  -29.2434   19.8769 H   0  0  0  0  0  0
  -25.1264  -36.2034   25.0862 H   0  0  0  0  0  0
  -20.9970  -28.3284   24.1418 H   0  0  0  0  0  0
  -20.5684  -26.2298   23.3613 H   0  0  0  0  0  0
  -21.6638  -26.7477   22.1206 H   0  0  0  0  0  0
  -19.6938  -25.6309   21.1256 H   0  0  0  0  0  0
  -19.6690  -27.3210   20.6757 H   0  0  0  0  0  0
  -17.4188  -26.6662   21.4031 H   0  0  0  0  0  0
  -18.0330  -26.0066   22.9030 H   0  0  0  0  0  0
  -19.7936  -30.7259   24.2302 H   0  0  0  0  0  0
  -17.5030  -31.6290   24.5171 H   0  0  0  0  0  0
  -15.5360  -30.3043   23.7642 H   0  0  0  0  0  0
  -15.8638  -28.0866   22.7075 H   0  0  0  0  0  0
  -24.5871  -30.7100   25.7758 H   0  0  0  0  0  0
  -24.8932  -32.2857   26.4953 H   0  0  0  0  0  0
  -25.8043  -30.8813   27.0201 H   0  0  0  0  0  0
  -26.2953  -29.6721   24.1213 H   0  0  0  0  0  0
  -27.4080  -29.7347   25.4694 H   0  0  0  0  0  0
  -27.8776  -30.4348   23.9405 H   0  0  0  0  0  0
  -27.2777  -33.3622   26.2056 H   0  0  0  0  0  0
  -28.3829  -32.6828   25.0212 H   0  0  0  0  0  0
  -28.0794  -31.8399   26.5297 H   0  0  0  0  0  0
  -28.2602  -38.0080   24.7450 H   0  0  0  0  0  0
  -28.1055  -36.2605   24.6390 H   0  0  0  0  0  0
  -27.2242  -37.1530   25.8853 H   0  0  0  0  0  0
  -20.9302  -29.8749   21.6902 H   0  0  0  0  0  0
  -26.0193  -38.2908   24.1429 H   0  0  0  0  0  0
  -27.8197  -19.9857   20.3526 H   0  0  0  0  0  0
  -31.2893  -17.7353   21.6511 H   0  0  0  0  0  0
  -26.6863  -17.8533   19.9526 H   0  0  0  0  0  0
  -29.0661  -20.8706   22.8858 H   0  0  0  0  0  0
  -30.7006  -20.5223   23.4494 H   0  0  0  0  0  0
  -31.5323  -22.6187   22.5256 H   0  0  0  0  0  0
  -29.9840  -23.1008   23.2049 H   0  0  0  0  0  0
  -29.2693  -21.4061   19.6955 H   0  0  0  0  0  0
  -30.9943  -21.6223   19.5735 H   0  0  0  0  0  0
  -31.5001  -20.1673   21.2363 H   0  0  0  0  0  0
  -29.4751  -24.4330   17.2066 H   0  0  0  0  0  0
  -29.1506  -23.0201   18.1740 H   0  0  0  0  0  0
  -30.8167  -23.4880   17.8268 H   0  0  0  0  0  0
  -30.6630  -24.7944   21.3384 H   0  0  0  0  0  0
  -31.6233  -23.8584   20.2407 H   0  0  0  0  0  0
  -27.8769  -24.7125   20.3248 H   0  0  0  0  0  0
  -27.9002  -25.3048   18.6780 H   0  0  0  0  0  0
  -30.4603  -25.6076   19.0687 H   0  0  0  0  0  0
  -29.3637  -14.8385   21.9442 H   0  0  0  0  0  0
  -29.0030  -22.9606   21.1664 H   0  0  0  0  0  0
  1 25  1  0  0  0
  1 30  2  0  0  0
  1 85  1  0  0  0
  2  3  1  0  0  0
  2 25  1  0  0  0
  2 87  1  0  0  0
  2 88  1  0  0  0
  3  4  1  0  0  0
  3 89  1  0  0  0
  3 90  1  0  0  0
  4  5  1  0  0  0
  4 91  1  0  0  0
  4 92  1  0  0  0
  5  6  1  0  0  0
  5 26  1  0  0  0
  5 93  1  0  0  0
  6 25  1  0  0  0
  6 94  1  0  0  0
  6 95  1  0  0  0
  7  8  2  0  0  0
  7 26  1  0  0  0
  7 29  1  0  0  0
  8  9  1  0  0  0
  8 22  1  0  0  0
  9 10  1  0  0  0
  9 27  2  0  0  0
 10 11  2  0  0  0
 10 15  1  0  0  0
 11 12  1  0  0  0
 11 96  1  0  0  0
 12 13  2  0  0  0
 12 97  1  0  0  0
 13 14  1  0  0  0
 13 31  1  0  0  0
 14 15  2  0  0  0
 14 98  1  0  0  0
 15 99  1  0  0  0
 16 17  2  0  0  0
 16 21  1  0  0  0
 16 31  1  0  0  0
 17 18  1  0  0  0
 17100  1  0  0  0
 18 19  2  0  0  0
 18101  1  0  0  0
 19 20  1  0  0  0
 19 24  1  0  0  0
 20 21  2  0  0  0
 20102  1  0  0  0
 21 23  1  0  0  0
 22 28  1  0  0  0
 22 32  2  0  0  0
 26 27  1  0  0  0
 28103  1  0  0  0
 28104  1  0  0  0
 29105  1  0  0  0
 29106  1  0  0  0
 33 34  1  0  0  0
 33 66  1  0  0  0
 33 70  2  0  0  0
 34 36  1  0  0  0
 34 59  1  0  0  0
 34107  1  0  0  0
 35 44  2  0  0  0
 35 45  1  0  0  0
 35 68  1  0  0  0
 36 56  1  0  0  0
 36108  1  0  0  0
 37 39  1  0  0  0
 37 47  1  0  0  0
 37 66  1  0  0  0
 37109  1  0  0  0
 38 43  2  0  0  0
 38 46  1  0  0  0
 38 47  1  0  0  0
 39 64  1  0  0  0
 39 67  2  0  0  0
 40 52  1  0  0  0
 40 53  2  0  0  0
 40 58  1  0  0  0
 41110  1  0  0  0
 41111  1  0  0  0
 41112  1  0  0  0
 41 48  1  0  0  0
 42 43  1  0  0  0
 42 66  1  0  0  0
 42113  1  0  0  0
 42114  1  0  0  0
 43 44  1  0  0  0
 44115  1  0  0  0
 45 46  2  0  0  0
 45116  1  0  0  0
 46117  1  0  0  0
 47118  1  0  0  0
 47119  1  0  0  0
 48 56  1  0  0  0
 48 65  1  0  0  0
 48120  1  0  0  0
 49 50  1  0  0  0
 49 53  1  0  0  0
 49 64  1  0  0  0
 49121  1  0  0  0
 50 51  1  0  0  0
 50122  1  0  0  0
 50123  1  0  0  0
 51 52  1  0  0  0
 51124  1  0  0  0
 51125  1  0  0  0
 52126  1  0  0  0
 52127  1  0  0  0
 53 54  1  0  0  0
 54 55  2  0  0  0
 54128  1  0  0  0
 55 57  1  0  0  0
 55129  1  0  0  0
 56 69  2  0  0  0
 57 58  2  0  0  0
 57130  1  0  0  0
 58131  1  0  0  0
 59 60  1  0  0  0
 59 61  1  0  0  0
 59 62  1  0  0  0
 60132  1  0  0  0
 60133  1  0  0  0
 60134  1  0  0  0
 61135  1  0  0  0
 61136  1  0  0  0
 61137  1  0  0  0
 62138  1  0  0  0
 62139  1  0  0  0
 62140  1  0  0  0
 63 65  1  0  0  0
 63141  1  0  0  0
 63142  1  0  0  0
 63143  1  0  0  0
 64144  1  0  0  0
 65145  1  0  0  0
 68 82  1  0  0  0
 71 73  2  0  0  0
 71 74  1  0  0  0
 71146  1  0  0  0
 72 74  2  0  0  0
 72 75  1  0  0  0
 72147  1  0  0  0
 73 84  1  0  0  0
 73148  1  0  0  0
 74 79  1  0  0  0
 75 84  2  0  0  0
 75 85  1  0  0  0
 76 77  1  0  0  0
 76 79  1  0  0  0
 76149  1  0  0  0
 76150  1  0  0  0
 77 86  1  0  0  0
 77151  1  0  0  0
 77152  1  0  0  0
 78 79  1  0  0  0
 78 86  1  0  0  0
 78153  1  0  0  0
 78154  1  0  0  0
 79155  1  0  0  0
 80156  1  0  0  0
 80157  1  0  0  0
 80158  1  0  0  0
 80 83  1  0  0  0
 81 83  1  0  0  0
 81159  1  0  0  0
 81160  1  0  0  0
 81 86  1  0  0  0
 82 83  1  0  0  0
 82161  1  0  0  0
 82162  1  0  0  0
 83163  1  0  0  0
 85164  1  0  0  0
 86165  1  0  0  0
M  CHG  1  86   1
M  ISO  4   1 100  68 101  82 101  85 100
M  END
> <chiral flag>
0

> <version>
0

> <s_m_source_file>
/data/baiqing/PycharmProjects/Reinvent-master-3.2/result/LINK_invent/BTK/process_docking_weight1_custom_sum_contain_oxygen_bond_distance_aromatic_linkinvent_7_9_3/rearranged_h_0119.sdf

> <i_m_source_file_index>
12

> <r_mmod_Potential_Energy-OPLS-2005>
-194.67951965332

> <r_mmod_Stretch_Energy-OPLS-2005>
42.2478637695312

> <r_mmod_Bend_Energy-OPLS-2005>
144.748260498047

> <r_mmod_Torsional_Energy-OPLS-2005>
329.483459472656

> <r_mmod_Improper_Torsional_Energy-OPLS-2005>
7.37189054489136

> <r_mmod_Van_der_Waal_Energy-OPLS-2005>
153.127883911133

> <r_mmod_Electrostatic_Energy-OPLS-2005>
-432.407806396484

> <r_mmod_Solvation_Energy-OPLS-2005>
-452.569793701172

> <b_mmod_Minimization_Converged-OPLS-2005>
0

> <r_mmod_RMS_Derivative-OPLS-2005>
3.92848992347717

$$$$
12
                    3D
 Structure written by MMmdl.
185194  0  0  1  0            999 V2000
  -30.7711  -14.3376   20.8581 C   0  0  0  0  0  0
  -30.4380  -12.3624   19.3873 C   0  0  0  0  0  0
  -29.4959  -12.5930   18.1912 C   0  0  0  0  0  0
  -28.0213  -12.4025   18.6001 C   0  0  0  0  0  0
  -27.6650  -13.1995   19.8793 C   0  0  2  0  0  0
  -28.6920  -12.9221   20.9941 C   0  0  0  0  0  0
  -25.2584  -13.8125   20.5641 C   0  0  0  0  0  0
  -24.1845  -13.0431   20.9158 C   0  0  0  0  0  0
  -24.6376  -11.6880   20.8675 C   0  0  0  0  0  0
  -23.9045  -10.4285   21.0378 C   0  0  0  0  0  0
  -24.3605   -9.4209   21.9160 C   0  0  0  0  0  0
  -23.6312   -8.2242   22.0731 C   0  0  0  0  0  0
  -22.4287   -8.0292   21.3558 C   0  0  0  0  0  0
  -21.9928   -9.0232   20.4616 C   0  0  0  0  0  0
  -22.7234  -10.2109   20.3032 C   0  0  0  0  0  0
  -21.6874   -6.0734   22.5294 C   0  0  0  0  0  0
  -21.3989   -6.5646   23.8209 C   0  0  0  0  0  0
  -21.3663   -5.6785   24.9175 C   0  0  0  0  0  0
  -21.6080   -4.3068   24.7206 C   0  0  0  0  0  0
  -21.8826   -3.8153   23.4341 C   0  0  0  0  0  0
  -21.9182   -4.6968   22.3392 C   0  0  0  0  0  0
  -22.7865  -13.5203   21.1887 C   0  0  0  0  0  0
  -22.1686   -4.2166   21.0975 F   0  0  0  0  0  0
  -21.5630   -3.4555   25.7716 F   0  0  0  0  0  0
  -30.0407  -13.2501   20.4941 N   0  0  0  0  0  0
  -26.3011  -12.9271   20.3310 N   0  0  0  0  0  0
  -25.9297  -11.6434   20.5701 N   0  0  0  0  0  0
  -22.0530  -12.8131   22.0378 N   0  0  0  0  0  0
  -25.4401  -15.1854   20.4067 N   0  0  0  0  0  0
  -31.7394  -14.7510   20.2122 O   0  0  0  0  0  0
  -21.6677   -6.8892   21.4261 O   0  0  0  0  0  0
  -22.3550  -14.5561   20.6807 O   0  0  0  0  0  0
  -24.6076  -31.8625   23.2191 C   0  0  0  0  0  0
  -25.8982  -32.4825   23.8348 C   0  0  1  0  0  0
  -27.2489  -27.4763   20.0850 C   0  0  0  0  0  0
  -25.5867  -33.8639   24.2257 N   0  0  0  0  0  0
  -23.3958  -30.4899   21.5592 C   0  0  2  0  0  0
  -24.8391  -28.9503   20.1293 C   0  0  0  0  0  0
  -22.7358  -29.4635   22.5075 C   0  0  0  0  0  0
  -18.0278  -28.1375   22.8559 C   0  0  0  0  0  0
  -24.1447  -36.7405   23.2657 C   0  0  0  0  0  0
  -25.9203  -30.8405   21.3665 C   0  0  0  0  0  0
  -25.9963  -29.4779   20.7148 C   0  0  0  0  0  0
  -27.2003  -28.7496   20.6856 C   0  0  0  0  0  0
  -26.0708  -26.9408   19.5162 C   0  0  0  0  0  0
  -24.8672  -27.6752   19.5391 C   0  0  0  0  0  0
  -23.5988  -29.8166   20.1748 C   0  0  0  0  0  0
  -25.4044  -36.3106   24.0332 C   0  0  1  0  0  0
  -20.5867  -28.3631   23.1404 C   0  0  2  0  0  0
  -20.6767  -26.9375   22.5464 C   0  0  0  0  0  0
  -19.5732  -26.6383   21.5256 C   0  0  0  0  0  0
  -18.1910  -26.7920   22.1671 C   0  0  0  0  0  0
  -19.1518  -28.8817   23.2984 C   0  0  0  0  0  0
  -18.9444  -30.1435   23.8983 C   0  0  0  0  0  0
  -17.6455  -30.6603   24.0594 C   0  0  0  0  0  0
  -25.9011  -34.9504   23.5076 C   0  0  0  0  0  0
  -16.5353  -29.9138   23.6339 C   0  0  0  0  0  0
  -16.7265  -28.6542   23.0373 C   0  0  0  0  0  0
  -26.4640  -31.6739   25.0637 C   0  0  0  0  0  0
  -25.4129  -31.3955   26.1587 C   0  0  0  0  0  0
  -27.0275  -30.3077   24.6011 C   0  0  0  0  0  0
  -27.6318  -32.4619   25.6998 C   0  0  0  0  0  0
  -27.5515  -37.1842   24.8464 C   0  0  0  0  0  0
  -21.4090  -29.2981   22.3773 N   0  0  0  0  0  0
  -26.4200  -37.3813   23.9472 N   0  0  0  0  0  0
  -24.6569  -31.0815   22.1044 N   0  0  0  0  0  0
  -23.4084  -28.8125   23.3089 O   0  0  0  0  0  0
  -28.4664  -26.8472   20.0245 O   0  0  0  0  0  0
  -26.5588  -34.8994   22.4649 O   0  0  0  0  0  0
  -23.5293  -32.1335   23.7685 O   0  0  0  0  0  0
  -29.8121  -19.2156   22.2295 C   0  0  0  0  0  0
  -30.2425  -17.8817   22.0520 C   0  0  0  0  0  0
  -30.6528  -17.7232   24.4348 C   0  0  0  0  0  0
  -29.8060  -19.8353   23.5048 C   0  0  0  0  0  0
  -30.6647  -17.1170   23.1559 C   0  0  0  0  0  0
  -30.2418  -19.0681   24.6193 C   0  0  0  0  0  0
  -26.9081  -21.2381   24.2794 C   0  0  0  0  0  0
  -30.4704  -22.1646   22.8363 C   0  0  0  0  0  0
  -30.1355  -23.6548   22.8062 C   0  0  0  0  0  0
  -27.7410  -23.2161   23.0172 C   0  0  0  0  0  0
  -29.4264  -21.3300   23.6181 C   0  0  1  0  0  0
  -27.9410  -21.6823   23.2104 C   0  0  1  0  0  0
  -30.3339  -19.6656   26.0190 C   0  0  0  0  0  0
  -24.0516  -21.8798   25.6752 C   0  0  0  0  0  0
  -25.2890  -19.9243   21.6603 C   0  0  0  0  0  0
  -31.1973  -15.6851   22.9848 C   0  0  0  0  0  0
  -24.6557  -20.6169   25.0291 C   0  0  0  0  0  0
  -24.9812  -21.0862   22.6273 C   0  0  0  0  0  0
  -28.5060  -25.2659   21.8570 C   0  0  0  0  0  0
  -28.5428  -25.4623   20.3270 C   0  0  0  0  0  0
  -30.4389  -14.8168   22.0767 N   0  0  0  0  0  0
  -25.6132  -20.9554   23.9571 N   0  0  0  0  0  0
  -28.8001  -23.8502   22.2010 N   0  3  1  0  0  0
  -27.2831  -21.1958   25.4545 O   0  0  0  0  0  0
  -31.4715  -12.5359   19.0785 H   0  0  0  0  0  0
  -30.3963  -11.3257   19.7190 H   0  0  0  0  0  0
  -29.7541  -11.9340   17.3623 H   0  0  0  0  0  0
  -29.6428  -13.6125   17.8272 H   0  0  0  0  0  0
  -27.8377  -11.3402   18.7558 H   0  0  0  0  0  0
  -27.3683  -12.7063   17.7815 H   0  0  0  0  0  0
  -27.7294  -14.2593   19.6308 H   0  0  0  0  0  0
  -28.6621  -11.8690   21.2710 H   0  0  0  0  0  0
  -28.4056  -13.4689   21.8913 H   0  0  0  0  0  0
  -25.2741   -9.5707   22.4727 H   0  0  0  0  0  0
  -24.0058   -7.4616   22.7413 H   0  0  0  0  0  0
  -21.0904   -8.8712   19.8873 H   0  0  0  0  0  0
  -22.3718  -10.9639   19.6128 H   0  0  0  0  0  0
  -21.1989   -7.6152   23.9726 H   0  0  0  0  0  0
  -21.1499   -6.0517   25.9075 H   0  0  0  0  0  0
  -22.0602   -2.7638   23.2832 H   0  0  0  0  0  0
  -22.4179  -11.9788   22.4745 H   0  0  0  0  0  0
  -21.1121  -13.1073   22.2573 H   0  0  0  0  0  0
  -24.6861  -15.8539   20.5225 H   0  0  0  0  0  0
  -26.3128  -15.6148   20.1223 H   0  0  0  0  0  0
  -26.6941  -32.5706   23.1035 H   0  0  0  0  0  0
  -24.9886  -33.9844   25.0288 H   0  0  0  0  0  0
  -22.6909  -31.3112   21.4204 H   0  0  0  0  0  0
  -23.3676  -35.9776   23.3340 H   0  0  0  0  0  0
  -24.3476  -36.9015   22.2050 H   0  0  0  0  0  0
  -23.7290  -37.6616   23.6750 H   0  0  0  0  0  0
  -26.0258  -31.6135   20.6031 H   0  0  0  0  0  0
  -26.8090  -30.8830   21.9908 H   0  0  0  0  0  0
  -28.1015  -29.1568   21.1190 H   0  0  0  0  0  0
  -26.0774  -25.9771   19.0300 H   0  0  0  0  0  0
  -23.9705  -27.2604   19.0995 H   0  0  0  0  0  0
  -23.7021  -30.5945   19.4161 H   0  0  0  0  0  0
  -22.7249  -29.2331   19.8861 H   0  0  0  0  0  0
  -25.1255  -36.1905   25.0825 H   0  0  0  0  0  0
  -20.9969  -28.3181   24.1528 H   0  0  0  0  0  0
  -20.5735  -26.2215   23.3633 H   0  0  0  0  0  0
  -21.6628  -26.7465   22.1197 H   0  0  0  0  0  0
  -19.6895  -25.6295   21.1270 H   0  0  0  0  0  0
  -19.6704  -27.3247   20.6820 H   0  0  0  0  0  0
  -17.4174  -26.6746   21.4075 H   0  0  0  0  0  0
  -18.0301  -26.0056   22.9051 H   0  0  0  0  0  0
  -19.7901  -30.7235   24.2399 H   0  0  0  0  0  0
  -17.5002  -31.6311   24.5108 H   0  0  0  0  0  0
  -15.5352  -30.3060   23.7573 H   0  0  0  0  0  0
  -15.8668  -28.0882   22.7037 H   0  0  0  0  0  0
  -24.6496  -30.6915   25.8339 H   0  0  0  0  0  0
  -24.9249  -32.3205   26.4788 H   0  0  0  0  0  0
  -25.8803  -30.9627   27.0449 H   0  0  0  0  0  0
  -26.2819  -29.7195   24.0685 H   0  0  0  0  0  0
  -27.3463  -29.7038   25.4511 H   0  0  0  0  0  0
  -27.8995  -30.4186   23.9523 H   0  0  0  0  0  0
  -27.2963  -33.3783   26.1907 H   0  0  0  0  0  0
  -28.3631  -32.7614   24.9454 H   0  0  0  0  0  0
  -28.1663  -31.8804   26.4522 H   0  0  0  0  0  0
  -28.2448  -38.0190   24.7424 H   0  0  0  0  0  0
  -28.1030  -36.2673   24.6316 H   0  0  0  0  0  0
  -27.2284  -37.1544   25.8877 H   0  0  0  0  0  0
  -20.9198  -29.8628   21.6980 H   0  0  0  0  0  0
  -26.0038  -38.2862   24.1554 H   0  0  0  0  0  0
  -29.5270  -19.7780   21.3548 H   0  0  0  0  0  0
  -30.2659  -17.4559   21.0589 H   0  0  0  0  0  0
  -30.9892  -17.1545   25.2920 H   0  0  0  0  0  0
  -31.4604  -22.0358   23.2794 H   0  0  0  0  0  0
  -30.5583  -21.8049   21.8099 H   0  0  0  0  0  0
  -30.8983  -24.1765   22.2273 H   0  0  0  0  0  0
  -30.1680  -24.0892   23.8084 H   0  0  0  0  0  0
  -27.6937  -23.7155   23.9846 H   0  0  0  0  0  0
  -26.7904  -23.4162   22.5297 H   0  0  0  0  0  0
  -29.5549  -21.6562   24.6482 H   0  0  0  0  0  0
  -27.7321  -21.1875   22.2668 H   0  0  0  0  0  0
  -30.7774  -18.9744   26.7361 H   0  0  0  0  0  0
  -29.3481  -19.9401   26.3956 H   0  0  0  0  0  0
  -30.9599  -20.5593   26.0229 H   0  0  0  0  0  0
  -23.4482  -21.6209   26.5467 H   0  0  0  0  0  0
  -23.4054  -22.4103   24.9707 H   0  0  0  0  0  0
  -24.8292  -22.5675   26.0162 H   0  0  0  0  0  0
  -24.4770  -19.8060   20.9418 H   0  0  0  0  0  0
  -25.3840  -18.9741   22.1868 H   0  0  0  0  0  0
  -26.1976  -20.0905   21.0786 H   0  0  0  0  0  0
  -31.1698  -15.2119   23.9714 H   0  0  0  0  0  0
  -32.2546  -15.7181   22.7108 H   0  0  0  0  0  0
  -23.8525  -19.9849   24.6459 H   0  0  0  0  0  0
  -25.1425  -20.0104   25.7986 H   0  0  0  0  0  0
  -23.9005  -21.1317   22.7624 H   0  0  0  0  0  0
  -25.2054  -22.0359   22.1459 H   0  0  0  0  0  0
  -27.5292  -25.5736   22.2344 H   0  0  0  0  0  0
  -29.2327  -25.9330   22.3350 H   0  0  0  0  0  0
  -27.7905  -24.8637   19.8101 H   0  0  0  0  0  0
  -29.5093  -25.1349   19.9368 H   0  0  0  0  0  0
  -29.6530  -14.3505   22.5034 H   0  0  0  0  0  0
  -28.8083  -23.3664   21.3142 H   0  0  0  0  0  0
  1 25  1  0  0  0
  1 30  2  0  0  0
  1 91  1  0  0  0
  2  3  1  0  0  0
  2 25  1  0  0  0
  2 95  1  0  0  0
  2 96  1  0  0  0
  3  4  1  0  0  0
  3 97  1  0  0  0
  3 98  1  0  0  0
  4  5  1  0  0  0
  4 99  1  0  0  0
  4100  1  0  0  0
  5  6  1  0  0  0
  5 26  1  0  0  0
  5101  1  0  0  0
  6 25  1  0  0  0
  6102  1  0  0  0
  6103  1  0  0  0
  7  8  2  0  0  0
  7 26  1  0  0  0
  7 29  1  0  0  0
  8  9  1  0  0  0
  8 22  1  0  0  0
  9 10  1  0  0  0
  9 27  2  0  0  0
 10 11  2  0  0  0
 10 15  1  0  0  0
 11 12  1  0  0  0
 11104  1  0  0  0
 12 13  2  0  0  0
 12105  1  0  0  0
 13 14  1  0  0  0
 13 31  1  0  0  0
 14 15  2  0  0  0
 14106  1  0  0  0
 15107  1  0  0  0
 16 17  2  0  0  0
 16 21  1  0  0  0
 16 31  1  0  0  0
 17 18  1  0  0  0
 17108  1  0  0  0
 18 19  2  0  0  0
 18109  1  0  0  0
 19 20  1  0  0  0
 19 24  1  0  0  0
 20 21  2  0  0  0
 20110  1  0  0  0
 21 23  1  0  0  0
 22 28  1  0  0  0
 22 32  2  0  0  0
 26 27  1  0  0  0
 28111  1  0  0  0
 28112  1  0  0  0
 29113  1  0  0  0
 29114  1  0  0  0
 33 34  1  0  0  0
 33 66  1  0  0  0
 33 70  2  0  0  0
 34 36  1  0  0  0
 34 59  1  0  0  0
 34115  1  0  0  0
 35 44  2  0  0  0
 35 45  1  0  0  0
 35 68  1  0  0  0
 36 56  1  0  0  0
 36116  1  0  0  0
 37 39  1  0  0  0
 37 47  1  0  0  0
 37 66  1  0  0  0
 37117  1  0  0  0
 38 43  2  0  0  0
 38 46  1  0  0  0
 38 47  1  0  0  0
 39 64  1  0  0  0
 39 67  2  0  0  0
 40 52  1  0  0  0
 40 53  2  0  0  0
 40 58  1  0  0  0
 41118  1  0  0  0
 41119  1  0  0  0
 41120  1  0  0  0
 41 48  1  0  0  0
 42 43  1  0  0  0
 42 66  1  0  0  0
 42121  1  0  0  0
 42122  1  0  0  0
 43 44  1  0  0  0
 44123  1  0  0  0
 45 46  2  0  0  0
 45124  1  0  0  0
 46125  1  0  0  0
 47126  1  0  0  0
 47127  1  0  0  0
 48 56  1  0  0  0
 48 65  1  0  0  0
 48128  1  0  0  0
 49 50  1  0  0  0
 49 53  1  0  0  0
 49 64  1  0  0  0
 49129  1  0  0  0
 50 51  1  0  0  0
 50130  1  0  0  0
 50131  1  0  0  0
 51 52  1  0  0  0
 51132  1  0  0  0
 51133  1  0  0  0
 52134  1  0  0  0
 52135  1  0  0  0
 53 54  1  0  0  0
 54 55  2  0  0  0
 54136  1  0  0  0
 55 57  1  0  0  0
 55137  1  0  0  0
 56 69  2  0  0  0
 57 58  2  0  0  0
 57138  1  0  0  0
 58139  1  0  0  0
 59 60  1  0  0  0
 59 61  1  0  0  0
 59 62  1  0  0  0
 60140  1  0  0  0
 60141  1  0  0  0
 60142  1  0  0  0
 61143  1  0  0  0
 61144  1  0  0  0
 61145  1  0  0  0
 62146  1  0  0  0
 62147  1  0  0  0
 62148  1  0  0  0
 63 65  1  0  0  0
 63149  1  0  0  0
 63150  1  0  0  0
 63151  1  0  0  0
 64152  1  0  0  0
 65153  1  0  0  0
 68 90  1  0  0  0
 71 72  2  0  0  0
 71 74  1  0  0  0
 71154  1  0  0  0
 72 75  1  0  0  0
 72155  1  0  0  0
 73 75  2  0  0  0
 73 76  1  0  0  0
 73156  1  0  0  0
 74 76  2  0  0  0
 74 81  1  0  0  0
 75 86  1  0  0  0
 76 83  1  0  0  0
 77 92  1  0  0  0
 77 94  2  0  0  0
 77 82  1  0  0  0
 78 79  1  0  0  0
 78 81  1  0  0  0
 78157  1  0  0  0
 78158  1  0  0  0
 79 93  1  0  0  0
 79159  1  0  0  0
 79160  1  0  0  0
 80 82  1  0  0  0
 80 93  1  0  0  0
 80161  1  0  0  0
 80162  1  0  0  0
 81 82  1  0  0  0
 81163  1  0  0  0
 82164  1  0  0  0
 83165  1  0  0  0
 83166  1  0  0  0
 83167  1  0  0  0
 84 87  1  0  0  0
 84168  1  0  0  0
 84169  1  0  0  0
 84170  1  0  0  0
 85 88  1  0  0  0
 85171  1  0  0  0
 85172  1  0  0  0
 85173  1  0  0  0
 86 91  1  0  0  0
 86174  1  0  0  0
 86175  1  0  0  0
 87 92  1  0  0  0
 87176  1  0  0  0
 87177  1  0  0  0
 88 92  1  0  0  0
 88178  1  0  0  0
 88179  1  0  0  0
 89 90  1  0  0  0
 89180  1  0  0  0
 89181  1  0  0  0
 89 93  1  0  0  0
 90182  1  0  0  0
 90183  1  0  0  0
 91184  1  0  0  0
 93185  1  0  0  0
M  CHG  1  93   1
M  ISO  4   1 100  68 101  90 101  91 100
M  END
> <chiral flag>
0

> <version>
0

> <s_m_source_file>
/data/baiqing/PycharmProjects/Reinvent-master-3.2/result/LINK_invent/BTK/process_docking_weight1_custom_sum_contain_oxygen_bond_distance_aromatic_linkinvent_7_9_3/rearranged_h_0119.sdf

> <i_m_source_file_index>
13

> <r_mmod_Potential_Energy-OPLS-2005>
-100.322471618652

> <r_mmod_Stretch_Energy-OPLS-2005>
45.766975402832

> <r_mmod_Bend_Energy-OPLS-2005>
119.964500427246

> <r_mmod_Torsional_Energy-OPLS-2005>
286.368927001953

> <r_mmod_Improper_Torsional_Energy-OPLS-2005>
4.47218704223633

> <r_mmod_Van_der_Waal_Energy-OPLS-2005>
162.839096069336

> <r_mmod_Electrostatic_Energy-OPLS-2005>
-299.319854736328

> <r_mmod_Solvation_Energy-OPLS-2005>
-438.482971191406

> <b_mmod_Minimization_Converged-OPLS-2005>
0

> <r_mmod_RMS_Derivative-OPLS-2005>
7.61632919311523

$$$$
13
                    3D
 Structure written by MMmdl.
179187  0  0  1  0            999 V2000
  -30.6619  -14.5189   20.5282 C   0  0  0  0  0  0
  -30.4228  -12.3173   19.4447 C   0  0  0  0  0  0
  -29.5023  -12.5004   18.2194 C   0  0  0  0  0  0
  -28.0211  -12.3566   18.6223 C   0  0  0  0  0  0
  -27.6565  -13.2063   19.8682 C   0  0  2  0  0  0
  -28.6956  -13.0141   20.9990 C   0  0  0  0  0  0
  -25.2563  -13.8153   20.5670 C   0  0  0  0  0  0
  -24.1821  -13.0439   20.9196 C   0  0  0  0  0  0
  -24.6363  -11.6909   20.8734 C   0  0  0  0  0  0
  -23.9024  -10.4287   21.0378 C   0  0  0  0  0  0
  -24.3592   -9.4212   21.9158 C   0  0  0  0  0  0
  -23.6293   -8.2234   22.0732 C   0  0  0  0  0  0
  -22.4273   -8.0264   21.3535 C   0  0  0  0  0  0
  -21.9889   -9.0221   20.4625 C   0  0  0  0  0  0
  -22.7195  -10.2110   20.3028 C   0  0  0  0  0  0
  -21.6858   -6.0718   22.5272 C   0  0  0  0  0  0
  -21.4015   -6.5624   23.8200 C   0  0  0  0  0  0
  -21.3666   -5.6785   24.9170 C   0  0  0  0  0  0
  -21.6049   -4.3042   24.7222 C   0  0  0  0  0  0
  -21.8820   -3.8130   23.4341 C   0  0  0  0  0  0
  -21.9197   -4.6944   22.3397 C   0  0  0  0  0  0
  -22.7840  -13.5236   21.1861 C   0  0  0  0  0  0
  -22.1661   -4.2129   21.0979 F   0  0  0  0  0  0
  -21.5637   -3.4530   25.7733 F   0  0  0  0  0  0
  -30.0264  -13.3171   20.4511 N   0  0  0  0  0  0
  -26.2985  -12.9318   20.3314 N   0  0  0  0  0  0
  -25.9287  -11.6482   20.5741 N   0  0  0  0  0  0
  -22.0481  -12.8223   22.0414 N   0  0  0  0  0  0
  -25.4302  -15.1875   20.4072 N   0  0  0  0  0  0
  -31.8055  -14.6973   20.1008 O   0  0  0  0  0  0
  -21.6650   -6.8853   21.4229 O   0  0  0  0  0  0
  -22.3515  -14.5536   20.6697 O   0  0  0  0  0  0
  -24.6135  -31.8685   23.2090 C   0  0  0  0  0  0
  -25.9027  -32.4831   23.8393 C   0  0  1  0  0  0
  -27.2324  -27.4250   20.1043 C   0  0  0  0  0  0
  -25.5884  -33.8632   24.2322 N   0  0  0  0  0  0
  -23.4032  -30.4888   21.5494 C   0  0  2  0  0  0
  -24.8514  -28.9524   20.1151 C   0  0  0  0  0  0
  -22.7419  -29.4645   22.4998 C   0  0  0  0  0  0
  -18.0271  -28.1373   22.8493 C   0  0  0  0  0  0
  -24.1477  -36.7323   23.2639 C   0  0  0  0  0  0
  -25.9310  -30.8309   21.3640 C   0  0  0  0  0  0
  -26.0108  -29.4625   20.7142 C   0  0  0  0  0  0
  -27.2060  -28.7048   20.7086 C   0  0  0  0  0  0
  -26.0626  -26.9325   19.4948 C   0  0  0  0  0  0
  -24.8724  -27.6869   19.5024 C   0  0  0  0  0  0
  -23.6121  -29.8185   20.1644 C   0  0  0  0  0  0
  -25.4105  -36.3127   24.0335 C   0  0  1  0  0  0
  -20.5864  -28.3659   23.1332 C   0  0  2  0  0  0
  -20.6761  -26.9399   22.5421 C   0  0  0  0  0  0
  -19.5740  -26.6380   21.5219 C   0  0  0  0  0  0
  -18.1917  -26.7918   22.1624 C   0  0  0  0  0  0
  -19.1522  -28.8833   23.2905 C   0  0  0  0  0  0
  -18.9449  -30.1441   23.8913 C   0  0  0  0  0  0
  -17.6454  -30.6584   24.0559 C   0  0  0  0  0  0
  -25.9031  -34.9490   23.5132 C   0  0  0  0  0  0
  -16.5343  -29.9086   23.6322 C   0  0  0  0  0  0
  -16.7260  -28.6499   23.0347 C   0  0  0  0  0  0
  -26.4455  -31.6615   25.0725 C   0  0  0  0  0  0
  -25.3710  -31.3736   26.1471 C   0  0  0  0  0  0
  -27.0292  -30.3056   24.6107 C   0  0  0  0  0  0
  -27.6032  -32.4338   25.7481 C   0  0  0  0  0  0
  -27.5584  -37.1819   24.8464 C   0  0  0  0  0  0
  -21.4147  -29.3024   22.3737 N   0  0  0  0  0  0
  -26.4296  -37.3810   23.9407 N   0  0  0  0  0  0
  -24.6671  -31.0774   22.0992 N   0  0  0  0  0  0
  -23.4194  -28.8208   23.3050 O   0  0  0  0  0  0
  -28.3678  -26.6429   20.0969 O   0  0  0  0  0  0
  -26.5601  -34.8939   22.4697 O   0  0  0  0  0  0
  -23.5327  -32.1444   23.7481 O   0  0  0  0  0  0
  -32.5638  -19.4536   21.0214 C   0  0  0  0  0  0
  -32.3020  -18.1279   21.7579 C   0  0  0  0  0  0
  -30.1785  -19.5151   20.3204 C   0  0  1  0  0  0
  -29.9412  -18.1790   21.1314 C   0  0  1  0  0  0
  -33.6727  -22.4428   18.0396 C   0  0  0  0  0  0
  -30.6917  -21.7597   22.6023 C   0  0  0  0  0  0
  -31.1745  -20.7198   17.7174 C   0  0  0  0  0  0
  -29.2610  -20.7884   20.6027 C   0  0  0  0  0  0
  -29.9497  -16.9057   20.2096 C   0  0  0  0  0  0
  -33.3685  -21.2128   18.9089 C   0  0  0  0  0  0
  -28.3101  -24.2813   21.0525 C   0  0  0  0  0  0
  -29.6035  -23.4077   21.0043 C   0  0  0  0  0  0
  -28.5267  -25.8167   21.2653 C   0  0  0  0  0  0
  -29.5283  -21.9595   21.6249 C   0  0  2  0  0  0
  -31.8598  -20.9034   19.0916 C   0  0  2  0  0  0
  -31.6012  -19.7082   19.9278 N   0  0  0  0  0  0
  -29.8762  -15.5693   20.8611 N   0  0  0  0  0  0
  -30.9093  -18.0539   22.2353 N   0  3  0  0  0  0
  -31.4682  -12.4150   19.1485 H   0  0  0  0  0  0
  -30.3209  -11.3102   19.8526 H   0  0  0  0  0  0
  -29.7514  -11.7691   17.4493 H   0  0  0  0  0  0
  -29.6706  -13.4824   17.7754 H   0  0  0  0  0  0
  -27.8360  -11.3014   18.8269 H   0  0  0  0  0  0
  -27.3753  -12.6191   17.7832 H   0  0  0  0  0  0
  -27.6903  -14.2492   19.5558 H   0  0  0  0  0  0
  -28.6713  -11.9848   21.3631 H   0  0  0  0  0  0
  -28.4559  -13.6392   21.8595 H   0  0  0  0  0  0
  -25.2726   -9.5719   22.4739 H   0  0  0  0  0  0
  -24.0022   -7.4626   22.7444 H   0  0  0  0  0  0
  -21.0822   -8.8701   19.8930 H   0  0  0  0  0  0
  -22.3618  -10.9642   19.6140 H   0  0  0  0  0  0
  -21.1992   -7.6129   23.9704 H   0  0  0  0  0  0
  -21.1507   -6.0505   25.9071 H   0  0  0  0  0  0
  -22.0599   -2.7591   23.2846 H   0  0  0  0  0  0
  -22.4099  -11.9903   22.4838 H   0  0  0  0  0  0
  -21.1067  -13.1196   22.2572 H   0  0  0  0  0  0
  -24.6617  -15.8421   20.5027 H   0  0  0  0  0  0
  -26.2746  -15.6222   20.0582 H   0  0  0  0  0  0
  -26.7099  -32.5538   23.1164 H   0  0  0  0  0  0
  -25.0012  -33.9789   25.0454 H   0  0  0  0  0  0
  -22.6907  -31.3039   21.4102 H   0  0  0  0  0  0
  -23.3747  -35.9649   23.3307 H   0  0  0  0  0  0
  -24.3565  -36.8934   22.2052 H   0  0  0  0  0  0
  -23.7219  -37.6526   23.6649 H   0  0  0  0  0  0
  -26.0386  -31.5963   20.5946 H   0  0  0  0  0  0
  -26.8193  -30.8889   21.9806 H   0  0  0  0  0  0
  -28.1015  -29.0916   21.1743 H   0  0  0  0  0  0
  -26.0696  -25.9590   19.0252 H   0  0  0  0  0  0
  -23.9808  -27.2895   19.0373 H   0  0  0  0  0  0
  -23.7158  -30.5915   19.4017 H   0  0  0  0  0  0
  -22.7370  -29.2343   19.8725 H   0  0  0  0  0  0
  -25.1282  -36.2000   25.0829 H   0  0  0  0  0  0
  -20.9938  -28.3209   24.1463 H   0  0  0  0  0  0
  -20.5667  -26.2272   23.3607 H   0  0  0  0  0  0
  -21.6630  -26.7447   22.1218 H   0  0  0  0  0  0
  -19.6899  -25.6294   21.1241 H   0  0  0  0  0  0
  -19.6674  -27.3194   20.6756 H   0  0  0  0  0  0
  -17.4192  -26.6679   21.4011 H   0  0  0  0  0  0
  -18.0303  -26.0053   22.9012 H   0  0  0  0  0  0
  -19.7928  -30.7244   24.2291 H   0  0  0  0  0  0
  -17.5012  -31.6265   24.5155 H   0  0  0  0  0  0
  -15.5347  -30.2990   23.7637 H   0  0  0  0  0  0
  -15.8659  -28.0818   22.7061 H   0  0  0  0  0  0
  -24.5850  -30.7128   25.7796 H   0  0  0  0  0  0
  -24.8938  -32.2904   26.4944 H   0  0  0  0  0  0
  -25.8036  -30.8867   27.0219 H   0  0  0  0  0  0
  -26.2847  -29.6825   24.1136 H   0  0  0  0  0  0
  -27.4036  -29.7286   25.4575 H   0  0  0  0  0  0
  -27.8689  -30.4379   23.9280 H   0  0  0  0  0  0
  -27.2652  -33.3625   26.2091 H   0  0  0  0  0  0
  -28.3820  -32.6925   25.0294 H   0  0  0  0  0  0
  -28.0727  -31.8446   26.5370 H   0  0  0  0  0  0
  -28.2619  -38.0103   24.7521 H   0  0  0  0  0  0
  -28.1064  -36.2644   24.6278 H   0  0  0  0  0  0
  -27.2305  -37.1459   25.8867 H   0  0  0  0  0  0
  -20.9319  -29.8742   21.6953 H   0  0  0  0  0  0
  -26.0193  -38.2893   24.1405 H   0  0  0  0  0  0
  -33.5707  -19.3677   20.6135 H   0  0  0  0  0  0
  -32.6133  -20.2723   21.7291 H   0  0  0  0  0  0
  -32.9746  -18.0398   22.6118 H   0  0  0  0  0  0
  -32.5308  -17.2819   21.1097 H   0  0  0  0  0  0
  -29.7444  -19.2114   19.3689 H   0  0  0  0  0  0
  -28.9508  -18.2273   21.5886 H   0  0  0  0  0  0
  -34.7320  -22.6938   18.0978 H   0  0  0  0  0  0
  -33.1135  -23.3173   18.3726 H   0  0  0  0  0  0
  -33.4449  -22.2683   16.9882 H   0  0  0  0  0  0
  -30.7357  -20.7499   23.0035 H   0  0  0  0  0  0
  -30.5882  -22.4323   23.4543 H   0  0  0  0  0  0
  -31.6394  -22.0136   22.1312 H   0  0  0  0  0  0
  -31.3117  -21.5914   17.0785 H   0  0  0  0  0  0
  -30.0953  -20.5959   17.7833 H   0  0  0  0  0  0
  -31.5729  -19.8550   17.1856 H   0  0  0  0  0  0
  -28.2770  -20.3916   20.8562 H   0  0  0  0  0  0
  -29.0616  -21.2653   19.6447 H   0  0  0  0  0  0
  -30.8167  -16.9542   19.5481 H   0  0  0  0  0  0
  -29.0925  -16.9726   19.5373 H   0  0  0  0  0  0
  -33.8205  -21.4172   19.8799 H   0  0  0  0  0  0
  -33.8878  -20.3463   18.4967 H   0  0  0  0  0  0
  -27.7103  -23.9428   21.8981 H   0  0  0  0  0  0
  -27.6890  -24.1001   20.1751 H   0  0  0  0  0  0
  -30.3710  -23.9600   21.5468 H   0  0  0  0  0  0
  -29.9795  -23.3792   19.9821 H   0  0  0  0  0  0
  -29.5170  -26.0116   21.6768 H   0  0  0  0  0  0
  -27.8409  -26.1513   22.0476 H   0  0  0  0  0  0
  -28.6498  -21.9576   22.2714 H   0  0  0  0  0  0
  -31.4356  -21.7714   19.5916 H   0  0  0  0  0  0
  -28.9702  -15.3076   21.2223 H   0  0  0  0  0  0
  -30.7581  -18.7997   22.8936 H   0  0  0  0  0  0
  -30.7573  -17.1790   22.7080 H   0  0  0  0  0  0
  1 25  1  0  0  0
  1 30  2  0  0  0
  1 87  1  0  0  0
  2  3  1  0  0  0
  2 25  1  0  0  0
  2 89  1  0  0  0
  2 90  1  0  0  0
  3  4  1  0  0  0
  3 91  1  0  0  0
  3 92  1  0  0  0
  4  5  1  0  0  0
  4 93  1  0  0  0
  4 94  1  0  0  0
  5  6  1  0  0  0
  5 26  1  0  0  0
  5 95  1  0  0  0
  6 25  1  0  0  0
  6 96  1  0  0  0
  6 97  1  0  0  0
  7  8  2  0  0  0
  7 26  1  0  0  0
  7 29  1  0  0  0
  8  9  1  0  0  0
  8 22  1  0  0  0
  9 10  1  0  0  0
  9 27  2  0  0  0
 10 11  2  0  0  0
 10 15  1  0  0  0
 11 12  1  0  0  0
 11 98  1  0  0  0
 12 13  2  0  0  0
 12 99  1  0  0  0
 13 14  1  0  0  0
 13 31  1  0  0  0
 14 15  2  0  0  0
 14100  1  0  0  0
 15101  1  0  0  0
 16 17  2  0  0  0
 16 21  1  0  0  0
 16 31  1  0  0  0
 17 18  1  0  0  0
 17102  1  0  0  0
 18 19  2  0  0  0
 18103  1  0  0  0
 19 20  1  0  0  0
 19 24  1  0  0  0
 20 21  2  0  0  0
 20104  1  0  0  0
 21 23  1  0  0  0
 22 28  1  0  0  0
 22 32  2  0  0  0
 26 27  1  0  0  0
 28105  1  0  0  0
 28106  1  0  0  0
 29107  1  0  0  0
 29108  1  0  0  0
 33 34  1  0  0  0
 33 66  1  0  0  0
 33 70  2  0  0  0
 34 36  1  0  0  0
 34 59  1  0  0  0
 34109  1  0  0  0
 35 44  2  0  0  0
 35 45  1  0  0  0
 35 68  1  0  0  0
 36 56  1  0  0  0
 36110  1  0  0  0
 37 39  1  0  0  0
 37 47  1  0  0  0
 37 66  1  0  0  0
 37111  1  0  0  0
 38 43  2  0  0  0
 38 46  1  0  0  0
 38 47  1  0  0  0
 39 64  1  0  0  0
 39 67  2  0  0  0
 40 52  1  0  0  0
 40 53  2  0  0  0
 40 58  1  0  0  0
 41112  1  0  0  0
 41113  1  0  0  0
 41114  1  0  0  0
 41 48  1  0  0  0
 42 43  1  0  0  0
 42 66  1  0  0  0
 42115  1  0  0  0
 42116  1  0  0  0
 43 44  1  0  0  0
 44117  1  0  0  0
 45 46  2  0  0  0
 45118  1  0  0  0
 46119  1  0  0  0
 47120  1  0  0  0
 47121  1  0  0  0
 48 56  1  0  0  0
 48 65  1  0  0  0
 48122  1  0  0  0
 49 50  1  0  0  0
 49 53  1  0  0  0
 49 64  1  0  0  0
 49123  1  0  0  0
 50 51  1  0  0  0
 50124  1  0  0  0
 50125  1  0  0  0
 51 52  1  0  0  0
 51126  1  0  0  0
 51127  1  0  0  0
 52128  1  0  0  0
 52129  1  0  0  0
 53 54  1  0  0  0
 54 55  2  0  0  0
 54130  1  0  0  0
 55 57  1  0  0  0
 55131  1  0  0  0
 56 69  2  0  0  0
 57 58  2  0  0  0
 57132  1  0  0  0
 58133  1  0  0  0
 59 60  1  0  0  0
 59 61  1  0  0  0
 59 62  1  0  0  0
 60134  1  0  0  0
 60135  1  0  0  0
 60136  1  0  0  0
 61137  1  0  0  0
 61138  1  0  0  0
 61139  1  0  0  0
 62140  1  0  0  0
 62141  1  0  0  0
 62142  1  0  0  0
 63 65  1  0  0  0
 63143  1  0  0  0
 63144  1  0  0  0
 63145  1  0  0  0
 64146  1  0  0  0
 65147  1  0  0  0
 68 83  1  0  0  0
 71 72  1  0  0  0
 71 86  1  0  0  0
 71148  1  0  0  0
 71149  1  0  0  0
 72 88  1  0  0  0
 72150  1  0  0  0
 72151  1  0  0  0
 73 74  1  0  0  0
 73 78  1  0  0  0
 73 86  1  0  0  0
 73152  1  0  0  0
 74 79  1  0  0  0
 74 88  1  0  0  0
 74153  1  0  0  0
 75 80  1  0  0  0
 75154  1  0  0  0
 75155  1  0  0  0
 75156  1  0  0  0
 76157  1  0  0  0
 76158  1  0  0  0
 76159  1  0  0  0
 76 84  1  0  0  0
 77160  1  0  0  0
 77161  1  0  0  0
 77162  1  0  0  0
 77 85  1  0  0  0
 78 84  1  0  0  0
 78163  1  0  0  0
 78164  1  0  0  0
 79 87  1  0  0  0
 79165  1  0  0  0
 79166  1  0  0  0
 80 85  1  0  0  0
 80167  1  0  0  0
 80168  1  0  0  0
 81 82  1  0  0  0
 81 83  1  0  0  0
 81169  1  0  0  0
 81170  1  0  0  0
 82 84  1  0  0  0
 82171  1  0  0  0
 82172  1  0  0  0
 83173  1  0  0  0
 83174  1  0  0  0
 84175  1  0  0  0
 85 86  1  0  0  0
 85176  1  0  0  0
 87177  1  0  0  0
 88178  1  0  0  0
 88179  1  0  0  0
M  CHG  1  88   1
M  ISO  4   1 100  68 101  83 101  87 100
M  END
> <chiral flag>
0

> <version>
0

> <s_m_source_file>
/data/baiqing/PycharmProjects/Reinvent-master-3.2/result/LINK_invent/BTK/process_docking_weight1_custom_sum_contain_oxygen_bond_distance_aromatic_linkinvent_7_9_3/rearranged_h_0119.sdf

> <i_m_source_file_index>
14

> <r_mmod_Potential_Energy-OPLS-2005>
-16.3207607269287

> <r_mmod_Stretch_Energy-OPLS-2005>
59.0582466125488

> <r_mmod_Bend_Energy-OPLS-2005>
178.193893432617

> <r_mmod_Torsional_Energy-OPLS-2005>
371.973571777344

> <r_mmod_Improper_Torsional_Energy-OPLS-2005>
8.13578987121582

> <r_mmod_Van_der_Waal_Energy-OPLS-2005>
147.230575561523

> <r_mmod_Electrostatic_Energy-OPLS-2005>
-358.768249511719

> <r_mmod_Solvation_Energy-OPLS-2005>
-439.75048828125

> <b_mmod_Minimization_Converged-OPLS-2005>
0

> <r_mmod_RMS_Derivative-OPLS-2005>
2.15564894676208

$$$$
14
                    3D
 Structure written by MMmdl.
173183  0  0  1  0            999 V2000
  -30.6441  -14.5127   20.6556 C   0  0  0  0  0  0
  -30.4386  -12.3723   19.4174 C   0  0  0  0  0  0
  -29.4968  -12.5298   18.2036 C   0  0  0  0  0  0
  -28.0157  -12.3713   18.6140 C   0  0  0  0  0  0
  -27.6553  -13.2037   19.8742 C   0  0  2  0  0  0
  -28.6907  -12.9672   20.9924 C   0  0  0  0  0  0
  -25.2576  -13.8176   20.5666 C   0  0  0  0  0  0
  -24.1809  -13.0441   20.9153 C   0  0  0  0  0  0
  -24.6356  -11.6913   20.8742 C   0  0  0  0  0  0
  -23.9025  -10.4310   21.0406 C   0  0  0  0  0  0
  -24.3595   -9.4235   21.9163 C   0  0  0  0  0  0
  -23.6290   -8.2255   22.0733 C   0  0  0  0  0  0
  -22.4267   -8.0286   21.3527 C   0  0  0  0  0  0
  -21.9895   -9.0251   20.4623 C   0  0  0  0  0  0
  -22.7213  -10.2139   20.3042 C   0  0  0  0  0  0
  -21.6849   -6.0739   22.5272 C   0  0  0  0  0  0
  -21.4025   -6.5639   23.8211 C   0  0  0  0  0  0
  -21.3653   -5.6781   24.9173 C   0  0  0  0  0  0
  -21.6054   -4.3045   24.7210 C   0  0  0  0  0  0
  -21.8816   -3.8147   23.4326 C   0  0  0  0  0  0
  -21.9201   -4.6972   22.3396 C   0  0  0  0  0  0
  -22.7845  -13.5251   21.1836 C   0  0  0  0  0  0
  -22.1663   -4.2158   21.0966 F   0  0  0  0  0  0
  -21.5621   -3.4526   25.7721 F   0  0  0  0  0  0
  -30.0113  -13.3266   20.4524 N   0  0  0  0  0  0
  -26.2979  -12.9306   20.3335 N   0  0  0  0  0  0
  -25.9276  -11.6469   20.5758 N   0  0  0  0  0  0
  -22.0472  -12.8243   22.0405 N   0  0  0  0  0  0
  -25.4354  -15.1878   20.4099 N   0  0  0  0  0  0
  -31.7484  -14.7607   20.1628 O   0  0  0  0  0  0
  -21.6633   -6.8880   21.4226 O   0  0  0  0  0  0
  -22.3528  -14.5532   20.6662 O   0  0  0  0  0  0
  -24.6180  -31.8635   23.2045 C   0  0  0  0  0  0
  -25.9065  -32.4793   23.8360 C   0  0  1  0  0  0
  -27.2524  -27.4026   20.1249 C   0  0  0  0  0  0
  -25.5908  -33.8588   24.2290 N   0  0  0  0  0  0
  -23.4125  -30.4809   21.5432 C   0  0  2  0  0  0
  -24.8626  -28.9320   20.1231 C   0  0  0  0  0  0
  -22.7454  -29.4623   22.4981 C   0  0  0  0  0  0
  -18.0284  -28.1394   22.8498 C   0  0  0  0  0  0
  -24.1489  -36.7302   23.2638 C   0  0  0  0  0  0
  -25.9415  -30.8149   21.3674 C   0  0  0  0  0  0
  -26.0169  -29.4406   20.7303 C   0  0  0  0  0  0
  -27.2095  -28.6807   20.7337 C   0  0  0  0  0  0
  -26.0852  -26.9191   19.4935 C   0  0  0  0  0  0
  -24.8885  -27.6651   19.5082 C   0  0  0  0  0  0
  -23.6275  -29.8055   20.1606 C   0  0  0  0  0  0
  -25.4117  -36.3087   24.0330 C   0  0  1  0  0  0
  -20.5877  -28.3675   23.1312 C   0  0  2  0  0  0
  -20.6776  -26.9411   22.5412 C   0  0  0  0  0  0
  -19.5758  -26.6397   21.5218 C   0  0  0  0  0  0
  -18.1932  -26.7938   22.1629 C   0  0  0  0  0  0
  -19.1532  -28.8861   23.2889 C   0  0  0  0  0  0
  -18.9460  -30.1465   23.8902 C   0  0  0  0  0  0
  -17.6456  -30.6587   24.0580 C   0  0  0  0  0  0
  -25.9043  -34.9455   23.5118 C   0  0  0  0  0  0
  -16.5348  -29.9094   23.6335 C   0  0  0  0  0  0
  -16.7265  -28.6518   23.0345 C   0  0  0  0  0  0
  -26.4486  -31.6581   25.0706 C   0  0  0  0  0  0
  -25.3749  -31.3701   26.1453 C   0  0  0  0  0  0
  -27.0299  -30.3010   24.6097 C   0  0  0  0  0  0
  -27.6058  -32.4301   25.7472 C   0  0  0  0  0  0
  -27.5578  -37.1811   24.8474 C   0  0  0  0  0  0
  -21.4175  -29.3027   22.3715 N   0  0  0  0  0  0
  -26.4300  -37.3781   23.9404 N   0  0  0  0  0  0
  -24.6754  -31.0721   22.0951 N   0  0  0  0  0  0
  -23.4198  -28.8170   23.3060 O   0  0  0  0  0  0
  -28.4523  -26.7105   20.0704 O   0  0  0  0  0  0
  -26.5604  -34.8919   22.4677 O   0  0  0  0  0  0
  -23.5363  -32.1419   23.7387 O   0  0  0  0  0  0
  -27.6256  -24.5138   20.9345 C   0  0  0  0  0  0
  -30.1415  -23.5933   20.4073 C   0  0  0  0  0  0
  -29.2022  -22.6316   20.8515 C   0  0  0  0  0  0
  -27.9138  -23.1454   21.1824 C   0  0  0  0  0  0
  -28.6118  -25.3640   20.3901 C   0  0  0  0  0  0
  -29.6798  -21.2022   21.0547 C   0  0  0  0  0  0
  -31.6880  -18.2344   20.7063 C   0  0  0  0  0  0
  -28.7541  -17.8022   19.5335 C   0  0  0  0  0  0
  -32.8835  -18.2437   21.6971 C   0  0  0  0  0  0
  -29.0819  -18.7829   18.4092 C   0  0  0  0  0  0
  -31.7889  -16.3549   22.8602 C   0  0  0  0  0  0
  -28.8506  -19.9880   20.4579 C   0  0  2  0  0  0
  -30.3640  -18.0320   21.4537 C   0  0  1  0  0  0
  -30.4160  -16.6096   22.1504 C   0  0  1  0  0  0
  -26.8331  -22.3100   21.8433 C   0  0  0  0  0  0
  -29.8585  -24.8986   20.1586 N   0  0  0  0  0  0
  -29.1367  -18.5054   20.7607 N   0  0  0  0  0  0
  -29.9578  -15.4093   21.4079 N   0  0  0  0  0  0
  -32.5912  -17.5862   23.0009 N   0  3  0  0  0  0
  -28.8884  -20.1183   18.9849 N   0  3  0  0  0  0
  -30.7615  -21.0113   21.6122 O   0  0  0  0  0  0
  -31.4751  -12.5334   19.1140 H   0  0  0  0  0  0
  -30.3973  -11.3583   19.8137 H   0  0  0  0  0  0
  -29.7495  -11.8028   17.4313 H   0  0  0  0  0  0
  -29.6367  -13.5135   17.7537 H   0  0  0  0  0  0
  -27.8358  -11.3137   18.8061 H   0  0  0  0  0  0
  -27.3627  -12.6450   17.7821 H   0  0  0  0  0  0
  -27.7018  -14.2545   19.5819 H   0  0  0  0  0  0
  -28.7015  -11.9185   21.2927 H   0  0  0  0  0  0
  -28.4247  -13.5197   21.8963 H   0  0  0  0  0  0
  -25.2736   -9.5715   22.4719 H   0  0  0  0  0  0
  -24.0009   -7.4657   22.7444 H   0  0  0  0  0  0
  -21.0823   -8.8752   19.8937 H   0  0  0  0  0  0
  -22.3651  -10.9661   19.6148 H   0  0  0  0  0  0
  -21.2009   -7.6139   23.9717 H   0  0  0  0  0  0
  -21.1478   -6.0505   25.9074 H   0  0  0  0  0  0
  -22.0606   -2.7604   23.2816 H   0  0  0  0  0  0
  -22.4082  -11.9922   22.4806 H   0  0  0  0  0  0
  -21.1095  -13.1283   22.2596 H   0  0  0  0  0  0
  -24.6720  -15.8491   20.5044 H   0  0  0  0  0  0
  -26.2972  -15.6213   20.1032 H   0  0  0  0  0  0
  -26.7145  -32.5483   23.1122 H   0  0  0  0  0  0
  -25.0093  -33.9755   25.0458 H   0  0  0  0  0  0
  -22.7033  -31.2972   21.3951 H   0  0  0  0  0  0
  -23.3734  -35.9656   23.3344 H   0  0  0  0  0  0
  -24.3579  -36.8868   22.2043 H   0  0  0  0  0  0
  -23.7268  -37.6535   23.6623 H   0  0  0  0  0  0
  -26.0617  -31.5677   20.5871 H   0  0  0  0  0  0
  -26.8291  -30.8739   21.9859 H   0  0  0  0  0  0
  -28.1034  -29.0756   21.1968 H   0  0  0  0  0  0
  -26.1053  -25.9645   18.9859 H   0  0  0  0  0  0
  -24.0047  -27.2680   19.0260 H   0  0  0  0  0  0
  -23.7477  -30.5772   19.3991 H   0  0  0  0  0  0
  -22.7530  -29.2239   19.8637 H   0  0  0  0  0  0
  -25.1290  -36.1958   25.0825 H   0  0  0  0  0  0
  -20.9958  -28.3241   24.1440 H   0  0  0  0  0  0
  -20.5713  -26.2282   23.3597 H   0  0  0  0  0  0
  -21.6640  -26.7471   22.1191 H   0  0  0  0  0  0
  -19.6917  -25.6316   21.1238 H   0  0  0  0  0  0
  -19.6692  -27.3222   20.6765 H   0  0  0  0  0  0
  -17.4198  -26.6686   21.4027 H   0  0  0  0  0  0
  -18.0319  -26.0083   22.9033 H   0  0  0  0  0  0
  -19.7931  -30.7283   24.2264 H   0  0  0  0  0  0
  -17.5008  -31.6266   24.5178 H   0  0  0  0  0  0
  -15.5347  -30.2992   23.7659 H   0  0  0  0  0  0
  -15.8670  -28.0841   22.7045 H   0  0  0  0  0  0
  -24.5952  -30.7009   25.7814 H   0  0  0  0  0  0
  -24.8907  -32.2841   26.4874 H   0  0  0  0  0  0
  -25.8105  -30.8916   27.0226 H   0  0  0  0  0  0
  -26.2835  -29.6792   24.1141 H   0  0  0  0  0  0
  -27.4049  -29.7234   25.4555 H   0  0  0  0  0  0
  -27.8686  -30.4323   23.9258 H   0  0  0  0  0  0
  -27.2692  -33.3608   26.2043 H   0  0  0  0  0  0
  -28.3867  -32.6837   25.0296 H   0  0  0  0  0  0
  -28.0724  -31.8424   26.5386 H   0  0  0  0  0  0
  -28.2608  -38.0090   24.7476 H   0  0  0  0  0  0
  -28.1050  -36.2614   24.6346 H   0  0  0  0  0  0
  -27.2287  -37.1519   25.8875 H   0  0  0  0  0  0
  -20.9353  -29.8725   21.6903 H   0  0  0  0  0  0
  -26.0181  -38.2862   24.1382 H   0  0  0  0  0  0
  -26.6471  -24.9037   21.1785 H   0  0  0  0  0  0
  -31.1706  -23.3175   20.2141 H   0  0  0  0  0  0
  -31.8082  -17.4278   19.9836 H   0  0  0  0  0  0
  -31.7051  -19.1492   20.1190 H   0  0  0  0  0  0
  -29.2406  -16.8413   19.3843 H   0  0  0  0  0  0
  -27.6782  -17.6137   19.5440 H   0  0  0  0  0  0
  -33.1976  -19.2680   21.8933 H   0  0  0  0  0  0
  -33.7337  -17.7442   21.2302 H   0  0  0  0  0  0
  -28.4544  -18.6202   17.5291 H   0  0  0  0  0  0
  -30.1236  -18.6789   18.1018 H   0  0  0  0  0  0
  -32.4246  -15.6467   22.3353 H   0  0  0  0  0  0
  -31.6225  -15.9217   23.8476 H   0  0  0  0  0  0
  -27.8090  -20.1504   20.7239 H   0  0  0  0  0  0
  -30.3705  -18.7102   22.3085 H   0  0  0  0  0  0
  -29.6838  -16.6762   22.9604 H   0  0  0  0  0  0
  -26.1407  -22.9530   22.3915 H   0  0  0  0  0  0
  -26.2550  -21.7584   21.1034 H   0  0  0  0  0  0
  -27.2608  -21.6113   22.5647 H   0  0  0  0  0  0
  -29.0235  -15.1184   21.6525 H   0  0  0  0  0  0
  -32.1178  -18.2278   23.6174 H   0  0  0  0  0  0
  -33.4701  -17.3626   23.4406 H   0  0  0  0  0  0
  -28.0202  -20.5060   18.6538 H   0  0  0  0  0  0
  -29.6267  -20.7338   18.6869 H   0  0  0  0  0  0
  1 25  1  0  0  0
  1 30  2  0  0  0
  1 88  1  0  0  0
  2  3  1  0  0  0
  2 25  1  0  0  0
  2 92  1  0  0  0
  2 93  1  0  0  0
  3  4  1  0  0  0
  3 94  1  0  0  0
  3 95  1  0  0  0
  4  5  1  0  0  0
  4 96  1  0  0  0
  4 97  1  0  0  0
  5  6  1  0  0  0
  5 26  1  0  0  0
  5 98  1  0  0  0
  6 25  1  0  0  0
  6 99  1  0  0  0
  6100  1  0  0  0
  7  8  2  0  0  0
  7 26  1  0  0  0
  7 29  1  0  0  0
  8  9  1  0  0  0
  8 22  1  0  0  0
  9 10  1  0  0  0
  9 27  2  0  0  0
 10 11  2  0  0  0
 10 15  1  0  0  0
 11 12  1  0  0  0
 11101  1  0  0  0
 12 13  2  0  0  0
 12102  1  0  0  0
 13 14  1  0  0  0
 13 31  1  0  0  0
 14 15  2  0  0  0
 14103  1  0  0  0
 15104  1  0  0  0
 16 17  2  0  0  0
 16 21  1  0  0  0
 16 31  1  0  0  0
 17 18  1  0  0  0
 17105  1  0  0  0
 18 19  2  0  0  0
 18106  1  0  0  0
 19 20  1  0  0  0
 19 24  1  0  0  0
 20 21  2  0  0  0
 20107  1  0  0  0
 21 23  1  0  0  0
 22 28  1  0  0  0
 22 32  2  0  0  0
 26 27  1  0  0  0
 28108  1  0  0  0
 28109  1  0  0  0
 29110  1  0  0  0
 29111  1  0  0  0
 33 34  1  0  0  0
 33 66  1  0  0  0
 33 70  2  0  0  0
 34 36  1  0  0  0
 34 59  1  0  0  0
 34112  1  0  0  0
 35 44  2  0  0  0
 35 45  1  0  0  0
 35 68  1  0  0  0
 36 56  1  0  0  0
 36113  1  0  0  0
 37 39  1  0  0  0
 37 47  1  0  0  0
 37 66  1  0  0  0
 37114  1  0  0  0
 38 43  2  0  0  0
 38 46  1  0  0  0
 38 47  1  0  0  0
 39 64  1  0  0  0
 39 67  2  0  0  0
 40 52  1  0  0  0
 40 53  2  0  0  0
 40 58  1  0  0  0
 41115  1  0  0  0
 41116  1  0  0  0
 41117  1  0  0  0
 41 48  1  0  0  0
 42 43  1  0  0  0
 42 66  1  0  0  0
 42118  1  0  0  0
 42119  1  0  0  0
 43 44  1  0  0  0
 44120  1  0  0  0
 45 46  2  0  0  0
 45121  1  0  0  0
 46122  1  0  0  0
 47123  1  0  0  0
 47124  1  0  0  0
 48 56  1  0  0  0
 48 65  1  0  0  0
 48125  1  0  0  0
 49 50  1  0  0  0
 49 53  1  0  0  0
 49 64  1  0  0  0
 49126  1  0  0  0
 50 51  1  0  0  0
 50127  1  0  0  0
 50128  1  0  0  0
 51 52  1  0  0  0
 51129  1  0  0  0
 51130  1  0  0  0
 52131  1  0  0  0
 52132  1  0  0  0
 53 54  1  0  0  0
 54 55  2  0  0  0
 54133  1  0  0  0
 55 57  1  0  0  0
 55134  1  0  0  0
 56 69  2  0  0  0
 57 58  2  0  0  0
 57135  1  0  0  0
 58136  1  0  0  0
 59 60  1  0  0  0
 59 61  1  0  0  0
 59 62  1  0  0  0
 60137  1  0  0  0
 60138  1  0  0  0
 60139  1  0  0  0
 61140  1  0  0  0
 61141  1  0  0  0
 61142  1  0  0  0
 62143  1  0  0  0
 62144  1  0  0  0
 62145  1  0  0  0
 63 65  1  0  0  0
 63146  1  0  0  0
 63147  1  0  0  0
 63148  1  0  0  0
 64149  1  0  0  0
 65150  1  0  0  0
 68 75  1  0  0  0
 71 74  2  0  0  0
 71 75  1  0  0  0
 71151  1  0  0  0
 72 73  2  0  0  0
 72 86  1  0  0  0
 72152  1  0  0  0
 73 74  1  0  0  0
 73 76  1  0  0  0
 74 85  1  0  0  0
 75 86  2  0  0  0
 76 91  2  0  0  0
 76 82  1  0  0  0
 77 79  1  0  0  0
 77 83  1  0  0  0
 77153  1  0  0  0
 77154  1  0  0  0
 78 80  1  0  0  0
 78155  1  0  0  0
 78156  1  0  0  0
 78 87  1  0  0  0
 79 89  1  0  0  0
 79157  1  0  0  0
 79158  1  0  0  0
 80 90  1  0  0  0
 80159  1  0  0  0
 80160  1  0  0  0
 81 84  1  0  0  0
 81 89  1  0  0  0
 81161  1  0  0  0
 81162  1  0  0  0
 82 87  1  0  0  0
 82 90  1  0  0  0
 82163  1  0  0  0
 83 84  1  0  0  0
 83 87  1  0  0  0
 83164  1  0  0  0
 84 88  1  0  0  0
 84165  1  0  0  0
 85166  1  0  0  0
 85167  1  0  0  0
 85168  1  0  0  0
 88169  1  0  0  0
 89170  1  0  0  0
 89171  1  0  0  0
 90172  1  0  0  0
 90173  1  0  0  0
M  CHG  2  89   1  90   1
M  ISO  4   1 100  68 101  75 101  88 100
M  END
> <chiral flag>
0

> <version>
0

> <s_m_source_file>
/data/baiqing/PycharmProjects/Reinvent-master-3.2/result/LINK_invent/BTK/process_docking_weight1_custom_sum_contain_oxygen_bond_distance_aromatic_linkinvent_7_9_3/rearranged_h_0119.sdf

> <i_m_source_file_index>
15

> <r_mmod_Potential_Energy-OPLS-2005>
-408.677459716797

> <r_mmod_Stretch_Energy-OPLS-2005>
64.972297668457

> <r_mmod_Bend_Energy-OPLS-2005>
201.852920532227

> <r_mmod_Torsional_Energy-OPLS-2005>
363.669281005859

> <r_mmod_Improper_Torsional_Energy-OPLS-2005>
3.51728701591492

> <r_mmod_Van_der_Waal_Energy-OPLS-2005>
156.045593261719

> <r_mmod_Electrostatic_Energy-OPLS-2005>
-254.570297241211

> <r_mmod_Solvation_Energy-OPLS-2005>
-962.852294921875

> <b_mmod_Minimization_Converged-OPLS-2005>
0

> <r_mmod_RMS_Derivative-OPLS-2005>
5.00360822677612

$$$$
15
                    3D
 Structure written by MMmdl.
160169  0  0  1  0            999 V2000
  -30.4365  -15.2736   20.3739 C   0  0  0  0  0  0
  -30.4352  -12.8160   19.5281 C   0  0  0  0  0  0
  -29.5348  -12.5796   18.2893 C   0  0  0  0  0  0
  -28.0837  -12.3007   18.7166 C   0  0  0  0  0  0
  -27.6091  -13.2764   19.8221 C   0  0  2  0  0  0
  -28.6405  -13.4581   20.9562 C   0  0  0  0  0  0
  -25.2378  -13.8249   20.5746 C   0  0  0  0  0  0
  -24.1735  -13.0441   20.9275 C   0  0  0  0  0  0
  -24.6390  -11.6936   20.8771 C   0  0  0  0  0  0
  -23.9083  -10.4298   21.0412 C   0  0  0  0  0  0
  -24.3630   -9.4209   21.9188 C   0  0  0  0  0  0
  -23.6303   -8.2244   22.0756 C   0  0  0  0  0  0
  -22.4285   -8.0283   21.3546 C   0  0  0  0  0  0
  -21.9923   -9.0257   20.4648 C   0  0  0  0  0  0
  -22.7256  -10.2136   20.3058 C   0  0  0  0  0  0
  -21.6855   -6.0738   22.5280 C   0  0  0  0  0  0
  -21.4015   -6.5642   23.8214 C   0  0  0  0  0  0
  -21.3658   -5.6792   24.9176 C   0  0  0  0  0  0
  -21.6044   -4.3056   24.7224 C   0  0  0  0  0  0
  -21.8822   -3.8148   23.4345 C   0  0  0  0  0  0
  -21.9192   -4.6964   22.3402 C   0  0  0  0  0  0
  -22.7760  -13.5201   21.1912 C   0  0  0  0  0  0
  -22.1661   -4.2152   21.0980 F   0  0  0  0  0  0
  -21.5626   -3.4538   25.7736 F   0  0  0  0  0  0
  -29.8711  -13.9660   20.3294 N   0  0  0  0  0  0
  -26.2800  -12.9523   20.3211 N   0  0  0  0  0  0
  -25.9322  -11.6627   20.5713 N   0  0  0  0  0  0
  -22.0402  -12.8181   22.0453 N   0  0  0  0  0  0
  -25.4002  -15.1983   20.4141 N   0  0  0  0  0  0
  -31.6578  -15.2650   20.1623 O   0  0  0  0  0  0
  -21.6646   -6.8881   21.4242 O   0  0  0  0  0  0
  -22.3460  -14.5512   20.6754 O   0  0  0  0  0  0
  -24.6629  -31.8242   23.1717 C   0  0  0  0  0  0
  -25.9316  -32.4591   23.8175 C   0  0  1  0  0  0
  -27.2158  -26.9215   20.1928 C   0  0  0  0  0  0
  -25.5991  -33.8406   24.2085 N   0  0  0  0  0  0
  -23.4779  -30.4351   21.5202 C   0  0  2  0  0  0
  -24.9320  -28.8187   20.1167 C   0  0  0  0  0  0
  -22.7667  -29.4444   22.4786 C   0  0  0  0  0  0
  -18.0321  -28.1412   22.8472 C   0  0  0  0  0  0
  -24.1488  -36.7196   23.2646 C   0  0  0  0  0  0
  -26.0464  -30.6261   21.4056 C   0  0  0  0  0  0
  -26.1128  -29.2118   20.7591 C   0  0  0  0  0  0
  -27.2477  -28.2811   20.7799 C   0  0  0  0  0  0
  -26.0123  -26.6878   19.4906 C   0  0  0  0  0  0
  -24.9058  -27.5760   19.4639 C   0  0  0  0  0  0
  -23.7196  -29.7491   20.1470 C   0  0  0  0  0  0
  -25.4130  -36.2966   24.0301 C   0  0  1  0  0  0
  -20.5946  -28.3758   23.1192 C   0  0  2  0  0  0
  -20.6796  -26.9439   22.5406 C   0  0  0  0  0  0
  -19.5769  -26.6385   21.5218 C   0  0  0  0  0  0
  -18.1952  -26.7948   22.1623 C   0  0  0  0  0  0
  -19.1582  -28.8906   23.2818 C   0  0  0  0  0  0
  -18.9493  -30.1497   23.8851 C   0  0  0  0  0  0
  -17.6486  -30.6602   24.0556 C   0  0  0  0  0  0
  -25.9102  -34.9353   23.5011 C   0  0  0  0  0  0
  -16.5376  -29.9090   23.6345 C   0  0  0  0  0  0
  -16.7304  -28.6509   23.0367 C   0  0  0  0  0  0
  -26.4572  -31.6535   25.0699 C   0  0  0  0  0  0
  -25.3705  -31.3792   26.1361 C   0  0  0  0  0  0
  -27.0460  -30.2899   24.6431 C   0  0  0  0  0  0
  -27.6068  -32.4339   25.7496 C   0  0  0  0  0  0
  -27.5561  -37.1756   24.8467 C   0  0  0  0  0  0
  -21.4338  -29.3045   22.3537 N   0  0  0  0  0  0
  -26.4271  -37.3707   23.9414 N   0  0  0  0  0  0
  -24.7500  -30.9898   22.0857 N   0  0  0  0  0  0
  -23.4214  -28.8017   23.3031 O   0  0  0  0  0  0
  -28.2211  -25.8168   20.2064 O   0  0  0  0  0  0
  -26.5698  -34.8886   22.4597 O   0  0  0  0  0  0
  -23.5703  -32.1215   23.6815 O   0  0  0  0  0  0
  -30.0330  -21.0299   19.9282 C   0  0  0  0  0  0
  -29.3331  -19.8044   20.3408 C   0  0  0  0  0  0
  -28.0636  -20.3491   20.7944 C   0  0  0  0  0  0
  -28.3942  -22.8052   20.3827 C   0  0  0  0  0  0
  -23.8369  -18.5597   20.3959 C   0  0  0  0  0  0
  -23.4731  -20.0007   20.1007 C   0  0  0  0  0  0
  -24.9204  -19.5624   20.0650 C   0  0  0  0  0  0
  -27.3301  -19.1417   22.8767 C   0  0  0  0  0  0
  -30.0673  -18.1880   20.3264 C   0  0  0  0  0  0
  -27.0319  -19.4022   21.3915 C   0  0  1  0  0  0
  -29.6161  -22.3976   19.9409 N   0  0  0  0  0  0
  -27.6523  -21.7214   20.7963 N   0  0  0  0  0  0
  -27.7544  -24.2313   20.4251 N   0  0  0  0  0  0
  -29.6839  -16.5601   20.4544 N   0  0  0  0  0  0
  -25.7122  -20.0304   21.2251 N   0  3  0  0  0  0
  -31.4539  -13.0195   19.1959 H   0  0  0  0  0  0
  -30.5027  -11.9127   20.1364 H   0  0  0  0  0  0
  -29.9168  -11.7508   17.6919 H   0  0  0  0  0  0
  -29.5641  -13.4609   17.6468 H   0  0  0  0  0  0
  -28.0413  -11.2770   19.0905 H   0  0  0  0  0  0
  -27.4158  -12.3409   17.8552 H   0  0  0  0  0  0
  -27.5220  -14.2415   19.3213 H   0  0  0  0  0  0
  -28.8105  -12.5264   21.4981 H   0  0  0  0  0  0
  -28.2762  -14.1816   21.6873 H   0  0  0  0  0  0
  -25.2769   -9.5685   22.4770 H   0  0  0  0  0  0
  -24.0011   -7.4631   22.7470 H   0  0  0  0  0  0
  -21.0857   -8.8777   19.8950 H   0  0  0  0  0  0
  -22.3709  -10.9677   19.6172 H   0  0  0  0  0  0
  -21.2009   -7.6149   23.9715 H   0  0  0  0  0  0
  -21.1477   -6.0524   25.9078 H   0  0  0  0  0  0
  -22.0599   -2.7609   23.2845 H   0  0  0  0  0  0
  -22.4018  -11.9842   22.4839 H   0  0  0  0  0  0
  -21.1012  -13.1190   22.2641 H   0  0  0  0  0  0
  -24.6030  -15.8213   20.4686 H   0  0  0  0  0  0
  -26.2075  -15.6156   19.9725 H   0  0  0  0  0  0
  -26.7382  -32.5131   23.0887 H   0  0  0  0  0  0
  -25.0112  -33.9485   25.0220 H   0  0  0  0  0  0
  -22.7915  -31.2667   21.3486 H   0  0  0  0  0  0
  -23.3764  -35.9508   23.3281 H   0  0  0  0  0  0
  -24.3568  -36.8868   22.2065 H   0  0  0  0  0  0
  -23.7227  -37.6371   23.6715 H   0  0  0  0  0  0
  -26.2250  -31.3625   20.6207 H   0  0  0  0  0  0
  -26.9078  -30.6886   22.0583 H   0  0  0  0  0  0
  -28.1439  -28.5811   21.3044 H   0  0  0  0  0  0
  -25.8999  -25.7451   18.9746 H   0  0  0  0  0  0
  -24.0121  -27.2733   18.9354 H   0  0  0  0  0  0
  -23.8771  -30.5160   19.3878 H   0  0  0  0  0  0
  -22.8293  -29.2046   19.8279 H   0  0  0  0  0  0
  -25.1328  -36.1756   25.0791 H   0  0  0  0  0  0
  -21.0034  -28.3362   24.1314 H   0  0  0  0  0  0
  -20.5680  -26.2376   23.3646 H   0  0  0  0  0  0
  -21.6660  -26.7417   22.1207 H   0  0  0  0  0  0
  -19.6921  -25.6284   21.1275 H   0  0  0  0  0  0
  -19.6705  -27.3174   20.6730 H   0  0  0  0  0  0
  -17.4222  -26.6702   21.4024 H   0  0  0  0  0  0
  -18.0337  -26.0100   22.9028 H   0  0  0  0  0  0
  -19.7971  -30.7328   24.2198 H   0  0  0  0  0  0
  -17.5039  -31.6277   24.5168 H   0  0  0  0  0  0
  -15.5375  -30.2975   23.7701 H   0  0  0  0  0  0
  -15.8706  -28.0813   22.7108 H   0  0  0  0  0  0
  -24.5897  -30.7126   25.7682 H   0  0  0  0  0  0
  -24.8883  -32.2996   26.4662 H   0  0  0  0  0  0
  -25.7947  -30.9047   27.0219 H   0  0  0  0  0  0
  -26.3125  -29.6582   24.1409 H   0  0  0  0  0  0
  -27.3960  -29.7259   25.5087 H   0  0  0  0  0  0
  -27.9087  -30.4079   23.9870 H   0  0  0  0  0  0
  -27.2646  -33.3696   26.1929 H   0  0  0  0  0  0
  -28.3954  -32.6805   25.0374 H   0  0  0  0  0  0
  -28.0645  -31.8553   26.5531 H   0  0  0  0  0  0
  -28.2566  -38.0065   24.7513 H   0  0  0  0  0  0
  -28.1070  -36.2592   24.6293 H   0  0  0  0  0  0
  -27.2280  -37.1399   25.8871 H   0  0  0  0  0  0
  -20.9594  -29.8725   21.6655 H   0  0  0  0  0  0
  -26.0112  -38.2759   24.1433 H   0  0  0  0  0  0
  -31.0411  -20.9095   19.5602 H   0  0  0  0  0  0
  -23.5854  -17.8221   19.6357 H   0  0  0  0  0  0
  -23.7370  -18.2142   21.4236 H   0  0  0  0  0  0
  -23.1295  -20.6130   20.9331 H   0  0  0  0  0  0
  -22.9887  -20.2064   19.1477 H   0  0  0  0  0  0
  -25.4434  -19.5315   19.1103 H   0  0  0  0  0  0
  -28.3111  -18.6809   22.9975 H   0  0  0  0  0  0
  -26.5971  -18.4645   23.3156 H   0  0  0  0  0  0
  -27.3300  -20.0666   23.4551 H   0  0  0  0  0  0
  -30.8492  -18.2896   21.0805 H   0  0  0  0  0  0
  -30.6256  -18.2062   19.3890 H   0  0  0  0  0  0
  -27.0569  -18.4541   20.8529 H   0  0  0  0  0  0
  -26.7851  -24.2337   20.7151 H   0  0  0  0  0  0
  -28.6986  -16.3863   20.5827 H   0  0  0  0  0  0
  -25.1970  -19.9903   22.0856 H   0  0  0  0  0  0
  -26.0143  -20.9899   21.0667 H   0  0  0  0  0  0
  1 25  1  0  0  0
  1 30  2  0  0  0
  1 84  1  0  0  0
  2  3  1  0  0  0
  2 25  1  0  0  0
  2 86  1  0  0  0
  2 87  1  0  0  0
  3  4  1  0  0  0
  3 88  1  0  0  0
  3 89  1  0  0  0
  4  5  1  0  0  0
  4 90  1  0  0  0
  4 91  1  0  0  0
  5  6  1  0  0  0
  5 26  1  0  0  0
  5 92  1  0  0  0
  6 25  1  0  0  0
  6 93  1  0  0  0
  6 94  1  0  0  0
  7  8  2  0  0  0
  7 26  1  0  0  0
  7 29  1  0  0  0
  8  9  1  0  0  0
  8 22  1  0  0  0
  9 10  1  0  0  0
  9 27  2  0  0  0
 10 11  2  0  0  0
 10 15  1  0  0  0
 11 12  1  0  0  0
 11 95  1  0  0  0
 12 13  2  0  0  0
 12 96  1  0  0  0
 13 14  1  0  0  0
 13 31  1  0  0  0
 14 15  2  0  0  0
 14 97  1  0  0  0
 15 98  1  0  0  0
 16 17  2  0  0  0
 16 21  1  0  0  0
 16 31  1  0  0  0
 17 18  1  0  0  0
 17 99  1  0  0  0
 18 19  2  0  0  0
 18100  1  0  0  0
 19 20  1  0  0  0
 19 24  1  0  0  0
 20 21  2  0  0  0
 20101  1  0  0  0
 21 23  1  0  0  0
 22 28  1  0  0  0
 22 32  2  0  0  0
 26 27  1  0  0  0
 28102  1  0  0  0
 28103  1  0  0  0
 29104  1  0  0  0
 29105  1  0  0  0
 33 34  1  0  0  0
 33 66  1  0  0  0
 33 70  2  0  0  0
 34 36  1  0  0  0
 34 59  1  0  0  0
 34106  1  0  0  0
 35 44  2  0  0  0
 35 45  1  0  0  0
 35 68  1  0  0  0
 36 56  1  0  0  0
 36107  1  0  0  0
 37 39  1  0  0  0
 37 47  1  0  0  0
 37 66  1  0  0  0
 37108  1  0  0  0
 38 43  2  0  0  0
 38 46  1  0  0  0
 38 47  1  0  0  0
 39 64  1  0  0  0
 39 67  2  0  0  0
 40 52  1  0  0  0
 40 53  2  0  0  0
 40 58  1  0  0  0
 41109  1  0  0  0
 41110  1  0  0  0
 41111  1  0  0  0
 41 48  1  0  0  0
 42 43  1  0  0  0
 42 66  1  0  0  0
 42112  1  0  0  0
 42113  1  0  0  0
 43 44  1  0  0  0
 44114  1  0  0  0
 45 46  2  0  0  0
 45115  1  0  0  0
 46116  1  0  0  0
 47117  1  0  0  0
 47118  1  0  0  0
 48 56  1  0  0  0
 48 65  1  0  0  0
 48119  1  0  0  0
 49 50  1  0  0  0
 49 53  1  0  0  0
 49 64  1  0  0  0
 49120  1  0  0  0
 50 51  1  0  0  0
 50121  1  0  0  0
 50122  1  0  0  0
 51 52  1  0  0  0
 51123  1  0  0  0
 51124  1  0  0  0
 52125  1  0  0  0
 52126  1  0  0  0
 53 54  1  0  0  0
 54 55  2  0  0  0
 54127  1  0  0  0
 55 57  1  0  0  0
 55128  1  0  0  0
 56 69  2  0  0  0
 57 58  2  0  0  0
 57129  1  0  0  0
 58130  1  0  0  0
 59 60  1  0  0  0
 59 61  1  0  0  0
 59 62  1  0  0  0
 60131  1  0  0  0
 60132  1  0  0  0
 60133  1  0  0  0
 61134  1  0  0  0
 61135  1  0  0  0
 61136  1  0  0  0
 62137  1  0  0  0
 62138  1  0  0  0
 62139  1  0  0  0
 63 65  1  0  0  0
 63140  1  0  0  0
 63141  1  0  0  0
 63142  1  0  0  0
 64143  1  0  0  0
 65144  1  0  0  0
 68 83  1  0  0  0
 71 72  2  0  0  0
 71 81  1  0  0  0
 71145  1  0  0  0
 72 73  1  0  0  0
 72 79  1  0  0  0
 73 80  1  0  0  0
 73 82  2  0  0  0
 74 81  2  0  0  0
 74 82  1  0  0  0
 74 83  1  0  0  0
 75 76  1  0  0  0
 75 77  1  0  0  0
 75146  1  0  0  0
 75147  1  0  0  0
 76 77  1  0  0  0
 76148  1  0  0  0
 76149  1  0  0  0
 77 85  1  0  0  0
 77150  1  0  0  0
 78151  1  0  0  0
 78152  1  0  0  0
 78153  1  0  0  0
 78 80  1  0  0  0
 79 84  1  0  0  0
 79154  1  0  0  0
 79155  1  0  0  0
 80 85  1  0  0  0
 80156  1  0  0  0
 83157  1  0  0  0
 84158  1  0  0  0
 85159  1  0  0  0
 85160  1  0  0  0
M  CHG  1  85   1
M  ISO  4   1 100  68 101  83 101  84 100
M  END
> <chiral flag>
0

> <version>
0

> <s_m_source_file>
/data/baiqing/PycharmProjects/Reinvent-master-3.2/result/LINK_invent/BTK/process_docking_weight1_custom_sum_contain_oxygen_bond_distance_aromatic_linkinvent_7_9_3/rearranged_h_0119.sdf

> <i_m_source_file_index>
16

> <r_mmod_Potential_Energy-OPLS-2005>
525.148254394531

> <r_mmod_Stretch_Energy-OPLS-2005>
528.0419921875

> <r_mmod_Bend_Energy-OPLS-2005>
513.440185546875

> <r_mmod_Torsional_Energy-OPLS-2005>
231.047958374023

> <r_mmod_Improper_Torsional_Energy-OPLS-2005>
5.0538067817688

> <r_mmod_Van_der_Waal_Energy-OPLS-2005>
133.398315429688

> <r_mmod_Electrostatic_Energy-OPLS-2005>
-830.188537597656

> <r_mmod_Solvation_Energy-OPLS-2005>
-519.953125

> <b_mmod_Minimization_Converged-OPLS-2005>
0

> <r_mmod_RMS_Derivative-OPLS-2005>
0.676470696926117

$$$$
16
                    3D
 Structure written by MMmdl.
169177  0  0  1  0            999 V2000
  -30.6739  -14.6382   20.5773 C   0  0  0  0  0  0
  -30.4311  -12.3999   19.4686 C   0  0  0  0  0  0
  -29.5276  -12.5148   18.2202 C   0  0  0  0  0  0
  -28.0385  -12.3446   18.6020 C   0  0  0  0  0  0
  -27.6431  -13.2041   19.8315 C   0  0  2  0  0  0
  -28.6771  -13.0635   20.9701 C   0  0  0  0  0  0
  -25.2380  -13.8030   20.5362 C   0  0  0  0  0  0
  -24.1730  -13.0416   20.9110 C   0  0  0  0  0  0
  -24.6286  -11.6898   20.8699 C   0  0  0  0  0  0
  -23.8923  -10.4336   21.0412 C   0  0  0  0  0  0
  -24.3522   -9.4278   21.9202 C   0  0  0  0  0  0
  -23.6247   -8.2282   22.0802 C   0  0  0  0  0  0
  -22.4239   -8.0251   21.3543 C   0  0  0  0  0  0
  -21.9827   -9.0236   20.4680 C   0  0  0  0  0  0
  -22.7118  -10.2134   20.3056 C   0  0  0  0  0  0
  -21.6852   -6.0720   22.5295 C   0  0  0  0  0  0
  -21.4018   -6.5606   23.8228 C   0  0  0  0  0  0
  -21.3657   -5.6775   24.9206 C   0  0  0  0  0  0
  -21.6030   -4.3035   24.7266 C   0  0  0  0  0  0
  -21.8750   -3.8122   23.4371 C   0  0  0  0  0  0
  -21.9174   -4.6932   22.3435 C   0  0  0  0  0  0
  -22.7762  -13.5344   21.1743 C   0  0  0  0  0  0
  -22.1638   -4.2114   21.1012 F   0  0  0  0  0  0
  -21.5648   -3.4516   25.7774 F   0  0  0  0  0  0
  -30.0074  -13.4321   20.4462 N   0  0  0  0  0  0
  -26.2871  -12.9260   20.3048 N   0  0  0  0  0  0
  -25.9193  -11.6445   20.5566 N   0  0  0  0  0  0
  -22.0384  -12.8474   22.0311 N   0  0  0  0  0  0
  -25.3797  -15.1702   20.3376 N   0  0  0  0  0  0
  -31.7745  -14.8004   20.0452 O   0  0  0  0  0  0
  -21.6604   -6.8843   21.4235 O   0  0  0  0  0  0
  -22.3550  -14.5717   20.6619 O   0  0  0  0  0  0
  -24.6248  -31.8628   23.2042 C   0  0  0  0  0  0
  -25.9137  -32.4765   23.8300 C   0  0  1  0  0  0
  -27.2255  -27.3192   20.1195 C   0  0  0  0  0  0
  -25.5973  -33.8566   24.2234 N   0  0  0  0  0  0
  -23.4143  -30.4851   21.5533 C   0  0  2  0  0  0
  -24.8640  -28.9445   20.1099 C   0  0  0  0  0  0
  -22.7470  -29.4622   22.5023 C   0  0  0  0  0  0
  -18.0286  -28.1274   22.8555 C   0  0  0  0  0  0
  -24.1494  -36.7240   23.2636 C   0  0  0  0  0  0
  -25.9598  -30.7875   21.3842 C   0  0  0  0  0  0
  -26.0336  -29.4202   20.7146 C   0  0  0  0  0  0
  -27.2183  -28.6223   20.7071 C   0  0  0  0  0  0
  -26.0375  -26.9072   19.4736 C   0  0  0  0  0  0
  -24.8707  -27.6931   19.4770 C   0  0  0  0  0  0
  -23.6245  -29.8184   20.1684 C   0  0  0  0  0  0
  -25.4141  -36.3070   24.0315 C   0  0  1  0  0  0
  -20.5909  -28.3587   23.1310 C   0  0  2  0  0  0
  -20.6765  -26.9296   22.5465 C   0  0  0  0  0  0
  -19.5710  -26.6247   21.5285 C   0  0  0  0  0  0
  -18.1902  -26.7818   22.1695 C   0  0  0  0  0  0
  -19.1550  -28.8758   23.2900 C   0  0  0  0  0  0
  -18.9465  -30.1377   23.8881 C   0  0  0  0  0  0
  -17.6455  -30.6524   24.0490 C   0  0  0  0  0  0
  -25.9105  -34.9453   23.5077 C   0  0  0  0  0  0
  -16.5352  -29.8991   23.6318 C   0  0  0  0  0  0
  -16.7264  -28.6368   23.0415 C   0  0  0  0  0  0
  -26.4532  -31.6581   25.0661 C   0  0  0  0  0  0
  -25.3723  -31.3740   26.1335 C   0  0  0  0  0  0
  -27.0397  -30.3000   24.6149 C   0  0  0  0  0  0
  -27.6096  -32.4305   25.7408 C   0  0  0  0  0  0
  -27.5582  -37.1777   24.8487 C   0  0  0  0  0  0
  -21.4201  -29.2976   22.3726 N   0  0  0  0  0  0
  -26.4312  -37.3767   23.9414 N   0  0  0  0  0  0
  -24.6838  -31.0617   22.1014 N   0  0  0  0  0  0
  -23.4192  -28.8164   23.3116 O   0  0  0  0  0  0
  -28.3453  -26.4668   20.1465 O   0  0  0  0  0  0
  -26.5656  -34.8943   22.4620 O   0  0  0  0  0  0
  -23.5427  -32.1450   23.7383 O   0  0  0  0  0  0
  -28.2518  -16.3770   22.5874 C   0  0  0  0  0  0
  -28.0563  -16.8939   21.1561 C   0  0  0  0  0  0
  -29.6477  -15.7363   22.5745 C   0  0  0  0  0  0
  -29.4591  -16.9730   20.5573 C   0  0  1  0  0  0
  -30.8984  -23.5237   18.0428 C   0  0  0  0  0  0
  -30.4425  -21.4431   22.0962 C   0  0  0  0  0  0
  -29.5577  -24.0842   18.5215 C   0  0  0  0  0  0
  -29.2758  -19.7209   20.5455 C   0  0  0  0  0  0
  -28.8201  -22.4098   20.3790 C   0  0  0  0  0  0
  -28.1175  -25.0127   20.3808 C   0  0  0  0  0  0
  -30.1280  -18.4003   20.8919 C   0  0  2  0  0  0
  -29.8589  -21.2184   20.6845 C   0  0  1  0  0  0
  -29.2438  -23.9302   20.0329 C   0  0  2  0  0  0
  -30.0286  -15.7099   21.1673 N   0  0  0  0  0  0
  -31.3185  -18.4592   20.1377 O   0  0  0  0  0  0
  -31.4836  -12.4858   19.1923 H   0  0  0  0  0  0
  -30.3291  -11.4053   19.9058 H   0  0  0  0  0  0
  -29.8132  -11.7706   17.4733 H   0  0  0  0  0  0
  -29.6839  -13.4886   17.7509 H   0  0  0  0  0  0
  -27.8718  -11.2863   18.8129 H   0  0  0  0  0  0
  -27.4057  -12.5854   17.7446 H   0  0  0  0  0  0
  -27.6537  -14.2303   19.4769 H   0  0  0  0  0  0
  -28.6821  -12.0372   21.3456 H   0  0  0  0  0  0
  -28.3616  -13.6712   21.8082 H   0  0  0  0  0  0
  -25.2682   -9.5807   22.4756 H   0  0  0  0  0  0
  -23.9934   -7.4699   22.7570 H   0  0  0  0  0  0
  -21.0754   -8.8775   19.9035 H   0  0  0  0  0  0
  -22.3599  -10.9652   19.6136 H   0  0  0  0  0  0
  -21.2011   -7.6099   23.9740 H   0  0  0  0  0  0
  -21.1552   -6.0526   25.9125 H   0  0  0  0  0  0
  -22.0523   -2.7578   23.2906 H   0  0  0  0  0  0
  -22.3889  -12.0074   22.4641 H   0  0  0  0  0  0
  -21.1115  -13.1755   22.2606 H   0  0  0  0  0  0
  -24.6076  -15.8221   20.4082 H   0  0  0  0  0  0
  -26.2291  -15.6036   20.0066 H   0  0  0  0  0  0
  -26.7177  -32.5421   23.1002 H   0  0  0  0  0  0
  -25.0124  -33.9686   25.0395 H   0  0  0  0  0  0
  -22.7016  -31.3008   21.4176 H   0  0  0  0  0  0
  -23.3793  -35.9538   23.3337 H   0  0  0  0  0  0
  -24.3591  -36.8811   22.2046 H   0  0  0  0  0  0
  -23.7195  -37.6427   23.6642 H   0  0  0  0  0  0
  -26.1187  -31.5667   20.6357 H   0  0  0  0  0  0
  -26.8267  -30.8093   22.0313 H   0  0  0  0  0  0
  -28.1139  -28.9985   21.1810 H   0  0  0  0  0  0
  -25.9806  -25.9726   18.9404 H   0  0  0  0  0  0
  -23.9845  -27.3202   18.9828 H   0  0  0  0  0  0
  -23.7183  -30.5928   19.4052 H   0  0  0  0  0  0
  -22.7455  -29.2347   19.8859 H   0  0  0  0  0  0
  -25.1327  -36.1911   25.0806 H   0  0  0  0  0  0
  -20.9974  -28.3126   24.1425 H   0  0  0  0  0  0
  -20.5658  -26.2177   23.3652 H   0  0  0  0  0  0
  -21.6628  -26.7298   22.1240 H   0  0  0  0  0  0
  -19.6844  -25.6163   21.1293 H   0  0  0  0  0  0
  -19.6610  -27.3018   20.6788 H   0  0  0  0  0  0
  -17.4175  -26.6590   21.4063 H   0  0  0  0  0  0
  -18.0304  -25.9922   22.9062 H   0  0  0  0  0  0
  -19.7930  -30.7194   24.2235 H   0  0  0  0  0  0
  -17.5006  -31.6256   24.4980 H   0  0  0  0  0  0
  -15.5330  -30.2877   23.7590 H   0  0  0  0  0  0
  -15.8705  -28.0593   22.7245 H   0  0  0  0  0  0
  -24.5880  -30.7138   25.7605 H   0  0  0  0  0  0
  -24.8943  -32.2933   26.4731 H   0  0  0  0  0  0
  -25.7975  -30.8869   27.0107 H   0  0  0  0  0  0
  -26.2993  -29.6675   24.1218 H   0  0  0  0  0  0
  -27.4166  -29.7312   25.4662 H   0  0  0  0  0  0
  -27.8841  -30.4282   23.9354 H   0  0  0  0  0  0
  -27.2723  -33.3593   26.2003 H   0  0  0  0  0  0
  -28.3876  -32.6853   25.0204 H   0  0  0  0  0  0
  -28.0795  -31.8392   26.5270 H   0  0  0  0  0  0
  -28.2642  -38.0034   24.7530 H   0  0  0  0  0  0
  -28.1012  -36.2568   24.6343 H   0  0  0  0  0  0
  -27.2277  -37.1460   25.8878 H   0  0  0  0  0  0
  -20.9377  -29.8626   21.6881 H   0  0  0  0  0  0
  -26.0193  -38.2832   24.1425 H   0  0  0  0  0  0
  -27.4830  -15.6535   22.8499 H   0  0  0  0  0  0
  -28.1963  -17.1880   23.3113 H   0  0  0  0  0  0
  -27.4293  -17.7813   21.0738 H   0  0  0  0  0  0
  -27.5559  -16.1333   20.5743 H   0  0  0  0  0  0
  -30.3642  -16.3729   23.0863 H   0  0  0  0  0  0
  -29.6985  -14.7754   23.0853 H   0  0  0  0  0  0
  -29.3683  -16.8549   19.4750 H   0  0  0  0  0  0
  -31.7347  -24.0606   18.4996 H   0  0  0  0  0  0
  -30.9901  -23.6346   16.9620 H   0  0  0  0  0  0
  -31.0050  -22.4648   18.2560 H   0  0  0  0  0  0
  -31.3113  -20.8075   22.2788 H   0  0  0  0  0  0
  -29.7033  -21.2160   22.8693 H   0  0  0  0  0  0
  -30.7528  -22.4795   22.2504 H   0  0  0  0  0  0
  -28.7446  -23.6520   17.9370 H   0  0  0  0  0  0
  -29.5569  -25.1424   18.2564 H   0  0  0  0  0  0
  -28.3967  -19.6880   21.1896 H   0  0  0  0  0  0
  -28.8870  -19.5975   19.5351 H   0  0  0  0  0  0
  -28.1884  -22.4676   21.2637 H   0  0  0  0  0  0
  -28.1460  -22.0802   19.5873 H   0  0  0  0  0  0
  -27.8457  -24.9167   21.4352 H   0  0  0  0  0  0
  -27.2432  -24.6564   19.8372 H   0  0  0  0  0  0
  -30.3715  -18.4464   21.9567 H   0  0  0  0  0  0
  -30.6876  -21.2881   19.9812 H   0  0  0  0  0  0
  -30.1214  -24.2077   20.6151 H   0  0  0  0  0  0
  -31.7411  -19.2947   20.3129 H   0  0  0  0  0  0
  1 25  1  0  0  0
  1 30  2  0  0  0
  1 84  1  0  0  0
  2  3  1  0  0  0
  2 25  1  0  0  0
  2 86  1  0  0  0
  2 87  1  0  0  0
  3  4  1  0  0  0
  3 88  1  0  0  0
  3 89  1  0  0  0
  4  5  1  0  0  0
  4 90  1  0  0  0
  4 91  1  0  0  0
  5  6  1  0  0  0
  5 26  1  0  0  0
  5 92  1  0  0  0
  6 25  1  0  0  0
  6 93  1  0  0  0
  6 94  1  0  0  0
  7  8  2  0  0  0
  7 26  1  0  0  0
  7 29  1  0  0  0
  8  9  1  0  0  0
  8 22  1  0  0  0
  9 10  1  0  0  0
  9 27  2  0  0  0
 10 11  2  0  0  0
 10 15  1  0  0  0
 11 12  1  0  0  0
 11 95  1  0  0  0
 12 13  2  0  0  0
 12 96  1  0  0  0
 13 14  1  0  0  0
 13 31  1  0  0  0
 14 15  2  0  0  0
 14 97  1  0  0  0
 15 98  1  0  0  0
 16 17  2  0  0  0
 16 21  1  0  0  0
 16 31  1  0  0  0
 17 18  1  0  0  0
 17 99  1  0  0  0
 18 19  2  0  0  0
 18100  1  0  0  0
 19 20  1  0  0  0
 19 24  1  0  0  0
 20 21  2  0  0  0
 20101  1  0  0  0
 21 23  1  0  0  0
 22 28  1  0  0  0
 22 32  2  0  0  0
 26 27  1  0  0  0
 28102  1  0  0  0
 28103  1  0  0  0
 29104  1  0  0  0
 29105  1  0  0  0
 33 34  1  0  0  0
 33 66  1  0  0  0
 33 70  2  0  0  0
 34 36  1  0  0  0
 34 59  1  0  0  0
 34106  1  0  0  0
 35 44  2  0  0  0
 35 45  1  0  0  0
 35 68  1  0  0  0
 36 56  1  0  0  0
 36107  1  0  0  0
 37 39  1  0  0  0
 37 47  1  0  0  0
 37 66  1  0  0  0
 37108  1  0  0  0
 38 43  2  0  0  0
 38 46  1  0  0  0
 38 47  1  0  0  0
 39 64  1  0  0  0
 39 67  2  0  0  0
 40 52  1  0  0  0
 40 53  2  0  0  0
 40 58  1  0  0  0
 41109  1  0  0  0
 41110  1  0  0  0
 41111  1  0  0  0
 41 48  1  0  0  0
 42 43  1  0  0  0
 42 66  1  0  0  0
 42112  1  0  0  0
 42113  1  0  0  0
 43 44  1  0  0  0
 44114  1  0  0  0
 45 46  2  0  0  0
 45115  1  0  0  0
 46116  1  0  0  0
 47117  1  0  0  0
 47118  1  0  0  0
 48 56  1  0  0  0
 48 65  1  0  0  0
 48119  1  0  0  0
 49 50  1  0  0  0
 49 53  1  0  0  0
 49 64  1  0  0  0
 49120  1  0  0  0
 50 51  1  0  0  0
 50121  1  0  0  0
 50122  1  0  0  0
 51 52  1  0  0  0
 51123  1  0  0  0
 51124  1  0  0  0
 52125  1  0  0  0
 52126  1  0  0  0
 53 54  1  0  0  0
 54 55  2  0  0  0
 54127  1  0  0  0
 55 57  1  0  0  0
 55128  1  0  0  0
 56 69  2  0  0  0
 57 58  2  0  0  0
 57129  1  0  0  0
 58130  1  0  0  0
 59 60  1  0  0  0
 59 61  1  0  0  0
 59 62  1  0  0  0
 60131  1  0  0  0
 60132  1  0  0  0
 60133  1  0  0  0
 61134  1  0  0  0
 61135  1  0  0  0
 61136  1  0  0  0
 62137  1  0  0  0
 62138  1  0  0  0
 62139  1  0  0  0
 63 65  1  0  0  0
 63140  1  0  0  0
 63141  1  0  0  0
 63142  1  0  0  0
 64143  1  0  0  0
 65144  1  0  0  0
 68 80  1  0  0  0
 71 72  1  0  0  0
 71 73  1  0  0  0
 71145  1  0  0  0
 71146  1  0  0  0
 72147  1  0  0  0
 72148  1  0  0  0
 72 74  1  0  0  0
 73 84  1  0  0  0
 73149  1  0  0  0
 73150  1  0  0  0
 74 81  1  0  0  0
 74 84  1  0  0  0
 74151  1  0  0  0
 75 77  1  0  0  0
 75152  1  0  0  0
 75153  1  0  0  0
 75154  1  0  0  0
 76155  1  0  0  0
 76156  1  0  0  0
 76157  1  0  0  0
 76 82  1  0  0  0
 77158  1  0  0  0
 77159  1  0  0  0
 77 83  1  0  0  0
 78 81  1  0  0  0
 78 82  1  0  0  0
 78160  1  0  0  0
 78161  1  0  0  0
 79 82  1  0  0  0
 79 83  1  0  0  0
 79162  1  0  0  0
 79163  1  0  0  0
 80 83  1  0  0  0
 80164  1  0  0  0
 80165  1  0  0  0
 81 85  1  0  0  0
 81166  1  0  0  0
 82167  1  0  0  0
 83168  1  0  0  0
 85169  1  0  0  0
M  ISO  4   1 100  68 101  80 101  84 100
M  END
> <chiral flag>
0

> <version>
0

> <s_m_source_file>
/data/baiqing/PycharmProjects/Reinvent-master-3.2/result/LINK_invent/BTK/process_docking_weight1_custom_sum_contain_oxygen_bond_distance_aromatic_linkinvent_7_9_3/rearranged_h_0119.sdf

> <i_m_source_file_index>
17

> <r_mmod_Potential_Energy-OPLS-2005>
405.447204589844

> <r_mmod_Stretch_Energy-OPLS-2005>
106.951591491699

> <r_mmod_Bend_Energy-OPLS-2005>
205.140426635742

> <r_mmod_Torsional_Energy-OPLS-2005>
407.366149902344

> <r_mmod_Improper_Torsional_Energy-OPLS-2005>
3.84986448287964

> <r_mmod_Van_der_Waal_Energy-OPLS-2005>
123.325012207031

> <r_mmod_Electrostatic_Energy-OPLS-2005>
-282.629486083984

> <r_mmod_Solvation_Energy-OPLS-2005>
-206.075942993164

> <b_mmod_Minimization_Converged-OPLS-2005>
0

> <r_mmod_RMS_Derivative-OPLS-2005>
8.82196807861328

$$$$
17
                    3D
 Structure written by MMmdl.
161169  0  0  1  0            999 V2000
  -30.6975  -14.5210   20.5802 C   0  0  0  0  0  0
  -30.4180  -12.3517   19.4075 C   0  0  0  0  0  0
  -29.4694  -12.4990   18.1989 C   0  0  0  0  0  0
  -27.9983  -12.3404   18.6256 C   0  0  0  0  0  0
  -27.6486  -13.1968   19.8678 C   0  0  2  0  0  0
  -28.6996  -13.0119   20.9847 C   0  0  0  0  0  0
  -25.2552  -13.8191   20.5716 C   0  0  0  0  0  0
  -24.1788  -13.0453   20.9216 C   0  0  0  0  0  0
  -24.6340  -11.6929   20.8784 C   0  0  0  0  0  0
  -23.9043  -10.4302   21.0445 C   0  0  0  0  0  0
  -24.3604   -9.4216   21.9216 C   0  0  0  0  0  0
  -23.6287   -8.2235   22.0752 C   0  0  0  0  0  0
  -22.4273   -8.0280   21.3540 C   0  0  0  0  0  0
  -21.9926   -9.0255   20.4631 C   0  0  0  0  0  0
  -22.7243  -10.2141   20.3065 C   0  0  0  0  0  0
  -21.6842   -6.0738   22.5288 C   0  0  0  0  0  0
  -21.3979   -6.5634   23.8218 C   0  0  0  0  0  0
  -21.3637   -5.6788   24.9179 C   0  0  0  0  0  0
  -21.6063   -4.3054   24.7231 C   0  0  0  0  0  0
  -21.8818   -3.8149   23.4345 C   0  0  0  0  0  0
  -21.9187   -4.6972   22.3410 C   0  0  0  0  0  0
  -22.7820  -13.5248   21.1892 C   0  0  0  0  0  0
  -22.1662   -4.2167   21.0987 F   0  0  0  0  0  0
  -21.5650   -3.4535   25.7741 F   0  0  0  0  0  0
  -30.0225  -13.3403   20.4289 N   0  0  0  0  0  0
  -26.2952  -12.9297   20.3405 N   0  0  0  0  0  0
  -25.9268  -11.6481   20.5844 N   0  0  0  0  0  0
  -22.0464  -12.8198   22.0422 N   0  0  0  0  0  0
  -25.4355  -15.1889   20.4086 N   0  0  0  0  0  0
  -31.8074  -14.6770   20.0571 O   0  0  0  0  0  0
  -21.6616   -6.8891   21.4249 O   0  0  0  0  0  0
  -22.3514  -14.5564   20.6776 O   0  0  0  0  0  0
  -24.6071  -31.8651   23.2094 C   0  0  0  0  0  0
  -25.8981  -32.4736   23.8368 C   0  0  1  0  0  0
  -27.2079  -27.4221   20.1078 C   0  0  0  0  0  0
  -25.5885  -33.8539   24.2331 N   0  0  0  0  0  0
  -23.3983  -30.4920   21.5431 C   0  0  2  0  0  0
  -24.8519  -28.9674   20.1007 C   0  0  0  0  0  0
  -22.7444  -29.4597   22.4923 C   0  0  0  0  0  0
  -18.0285  -28.1358   22.8443 C   0  0  0  0  0  0
  -24.1450  -36.7221   23.2667 C   0  0  0  0  0  0
  -25.9303  -30.8348   21.3632 C   0  0  0  0  0  0
  -26.0106  -29.4711   20.7055 C   0  0  0  0  0  0
  -27.1996  -28.7024   20.7079 C   0  0  0  0  0  0
  -26.0387  -26.9424   19.4892 C   0  0  0  0  0  0
  -24.8577  -27.7014   19.4891 C   0  0  0  0  0  0
  -23.6144  -29.8357   20.1499 C   0  0  0  0  0  0
  -25.4025  -36.3039   24.0422 C   0  0  1  0  0  0
  -20.5892  -28.3589   23.1330 C   0  0  2  0  0  0
  -20.6775  -26.9351   22.5349 C   0  0  0  0  0  0
  -19.5725  -26.6422   21.5144 C   0  0  0  0  0  0
  -18.1908  -26.7897   22.1603 C   0  0  0  0  0  0
  -19.1553  -28.8784   23.2870 C   0  0  0  0  0  0
  -18.9523  -30.1402   23.8881 C   0  0  0  0  0  0
  -17.6535  -30.6560   24.0558 C   0  0  0  0  0  0
  -25.9007  -34.9411   23.5153 C   0  0  0  0  0  0
  -16.5407  -29.9093   23.6339 C   0  0  0  0  0  0
  -16.7305  -28.6527   23.0294 C   0  0  0  0  0  0
  -26.4385  -31.6569   25.0717 C   0  0  0  0  0  0
  -25.3648  -31.3736   26.1528 C   0  0  0  0  0  0
  -27.0266  -30.3076   24.5984 C   0  0  0  0  0  0
  -27.5992  -32.4285   25.7433 C   0  0  0  0  0  0
  -27.5512  -37.1725   24.8500 C   0  0  0  0  0  0
  -21.4180  -29.2992   22.3790 N   0  0  0  0  0  0
  -26.4198  -37.3748   23.9510 N   0  0  0  0  0  0
  -24.6635  -31.0784   22.0963 N   0  0  0  0  0  0
  -23.4278  -28.8065   23.2862 O   0  0  0  0  0  0
  -28.3010  -26.5923   20.1964 O   0  0  0  0  0  0
  -26.5544  -34.8882   22.4690 O   0  0  0  0  0  0
  -23.5288  -32.1367   23.7538 O   0  0  0  0  0  0
  -29.4022  -16.7650   20.5009 C   0  0  0  0  0  0
  -27.0704  -23.2471   21.7367 C   0  0  0  0  0  0
  -27.3270  -21.7711   21.3648 C   0  0  0  0  0  0
  -28.9001  -23.2515   20.1754 C   0  0  0  0  0  0
  -27.7302  -24.1298   20.6570 C   0  0  2  0  0  0
  -28.3648  -21.7874   20.2194 C   0  0  1  0  0  0
  -30.4303  -20.7289   21.4160 C   0  0  0  0  0  0
  -30.1408  -15.7288   21.4020 C   0  0  0  0  0  0
  -28.1153  -25.5511   21.1840 C   0  0  0  0  0  0
  -28.8266  -19.1952   20.0813 C   0  0  0  0  0  0
  -29.4385  -20.6326   20.2368 C   0  0  1  0  0  0
  -29.5916  -18.0903   20.7201 N   0  0  0  0  0  0
  -28.5962  -16.3959   19.6459 O   0  0  0  0  0  0
  -31.4494  -12.4774   19.0752 H   0  0  0  0  0  0
  -30.3668  -11.3435   19.8213 H   0  0  0  0  0  0
  -29.7126  -11.7528   17.4414 H   0  0  0  0  0  0
  -29.6107  -13.4717   17.7268 H   0  0  0  0  0  0
  -27.8244  -11.2855   18.8482 H   0  0  0  0  0  0
  -27.3358  -12.5912   17.7992 H   0  0  0  0  0  0
  -27.6666  -14.2280   19.5395 H   0  0  0  0  0  0
  -28.6925  -11.9723   21.3169 H   0  0  0  0  0  0
  -28.4401  -13.6025   21.8623 H   0  0  0  0  0  0
  -25.2749   -9.5673   22.4795 H   0  0  0  0  0  0
  -24.0006   -7.4603   22.7434 H   0  0  0  0  0  0
  -21.0891   -8.8773   19.8887 H   0  0  0  0  0  0
  -22.3747  -10.9687   19.6148 H   0  0  0  0  0  0
  -21.1919   -7.6129   23.9734 H   0  0  0  0  0  0
  -21.1476   -6.0502   25.9091 H   0  0  0  0  0  0
  -22.0615   -2.7615   23.2844 H   0  0  0  0  0  0
  -22.4080  -11.9821   22.4747 H   0  0  0  0  0  0
  -21.1067  -13.1166   22.2630 H   0  0  0  0  0  0
  -24.6844  -15.8620   20.5134 H   0  0  0  0  0  0
  -26.3064  -15.6125   20.1022 H   0  0  0  0  0  0
  -26.7018  -32.5504   23.1150 H   0  0  0  0  0  0
  -25.0021  -33.9662   25.0477 H   0  0  0  0  0  0
  -22.6800  -31.2984   21.3949 H   0  0  0  0  0  0
  -23.3736  -35.9545   23.3331 H   0  0  0  0  0  0
  -24.3606  -36.8802   22.2097 H   0  0  0  0  0  0
  -23.7209  -37.6440   23.6640 H   0  0  0  0  0  0
  -26.0252  -31.6038   20.5985 H   0  0  0  0  0  0
  -26.8251  -30.8941   21.9707 H   0  0  0  0  0  0
  -28.0877  -29.0587   21.2097 H   0  0  0  0  0  0
  -26.0225  -25.9673   19.0294 H   0  0  0  0  0  0
  -23.9681  -27.3026   19.0224 H   0  0  0  0  0  0
  -23.7378  -30.6177   19.4002 H   0  0  0  0  0  0
  -22.7392  -29.2649   19.8387 H   0  0  0  0  0  0
  -25.1181  -36.1858   25.0928 H   0  0  0  0  0  0
  -20.9920  -28.3072   24.1485 H   0  0  0  0  0  0
  -20.5732  -26.2126   23.3471 H   0  0  0  0  0  0
  -21.6598  -26.7407   22.1045 H   0  0  0  0  0  0
  -19.6879  -25.6387   21.1055 H   0  0  0  0  0  0
  -19.6668  -27.3315   20.6738 H   0  0  0  0  0  0
  -17.4137  -26.6647   21.4077 H   0  0  0  0  0  0
  -18.0361  -26.0023   22.9006 H   0  0  0  0  0  0
  -19.8029  -30.7143   24.2272 H   0  0  0  0  0  0
  -17.5156  -31.6272   24.5132 H   0  0  0  0  0  0
  -15.5420  -30.2994   23.7750 H   0  0  0  0  0  0
  -15.8669  -28.0933   22.6934 H   0  0  0  0  0  0
  -24.5837  -30.7000   25.7989 H   0  0  0  0  0  0
  -24.8767  -32.2906   26.4837 H   0  0  0  0  0  0
  -25.8030  -30.9088   27.0377 H   0  0  0  0  0  0
  -26.2845  -29.6819   24.1020 H   0  0  0  0  0  0
  -27.4212  -29.7284   25.4347 H   0  0  0  0  0  0
  -27.8537  -30.4589   23.9047 H   0  0  0  0  0  0
  -27.2649  -33.3614   26.1968 H   0  0  0  0  0  0
  -28.3764  -32.6772   25.0196 H   0  0  0  0  0  0
  -28.0631  -31.8397   26.5358 H   0  0  0  0  0  0
  -28.2443  -38.0066   24.7499 H   0  0  0  0  0  0
  -28.1059  -36.2608   24.6315 H   0  0  0  0  0  0
  -27.2263  -37.1351   25.8902 H   0  0  0  0  0  0
  -20.9318  -29.8871   21.7149 H   0  0  0  0  0  0
  -26.0069  -38.2799   24.1606 H   0  0  0  0  0  0
  -27.5167  -23.4556   22.7133 H   0  0  0  0  0  0
  -26.0021  -23.4540   21.8346 H   0  0  0  0  0  0
  -26.4028  -21.2881   21.0336 H   0  0  0  0  0  0
  -27.6521  -21.2012   22.2388 H   0  0  0  0  0  0
  -29.7302  -23.3911   20.8611 H   0  0  0  0  0  0
  -29.2445  -23.5475   19.1849 H   0  0  0  0  0  0
  -27.0211  -24.2237   19.8375 H   0  0  0  0  0  0
  -27.7905  -21.6727   19.2995 H   0  0  0  0  0  0
  -30.8467  -21.7276   21.5205 H   0  0  0  0  0  0
  -31.2948  -20.0785   21.2507 H   0  0  0  0  0  0
  -29.9695  -20.4467   22.3653 H   0  0  0  0  0  0
  -29.4981  -15.4088   22.2188 H   0  0  0  0  0  0
  -30.9916  -16.2175   21.8821 H   0  0  0  0  0  0
  -29.0193  -25.4835   21.7901 H   0  0  0  0  0  0
  -27.3486  -25.8646   21.8957 H   0  0  0  0  0  0
  -28.6810  -18.9817   19.0188 H   0  0  0  0  0  0
  -27.8235  -19.1870   20.5104 H   0  0  0  0  0  0
  -30.0481  -20.8099   19.3488 H   0  0  0  0  0  0
  -30.2341  -18.3570   21.4576 H   0  0  0  0  0  0
  1 25  1  0  0  0
  1 30  2  0  0  0
  1 78  1  0  0  0
  2  3  1  0  0  0
  2 25  1  0  0  0
  2 84  1  0  0  0
  2 85  1  0  0  0
  3  4  1  0  0  0
  3 86  1  0  0  0
  3 87  1  0  0  0
  4  5  1  0  0  0
  4 88  1  0  0  0
  4 89  1  0  0  0
  5  6  1  0  0  0
  5 26  1  0  0  0
  5 90  1  0  0  0
  6 25  1  0  0  0
  6 91  1  0  0  0
  6 92  1  0  0  0
  7  8  2  0  0  0
  7 26  1  0  0  0
  7 29  1  0  0  0
  8  9  1  0  0  0
  8 22  1  0  0  0
  9 10  1  0  0  0
  9 27  2  0  0  0
 10 11  2  0  0  0
 10 15  1  0  0  0
 11 12  1  0  0  0
 11 93  1  0  0  0
 12 13  2  0  0  0
 12 94  1  0  0  0
 13 14  1  0  0  0
 13 31  1  0  0  0
 14 15  2  0  0  0
 14 95  1  0  0  0
 15 96  1  0  0  0
 16 17  2  0  0  0
 16 21  1  0  0  0
 16 31  1  0  0  0
 17 18  1  0  0  0
 17 97  1  0  0  0
 18 19  2  0  0  0
 18 98  1  0  0  0
 19 20  1  0  0  0
 19 24  1  0  0  0
 20 21  2  0  0  0
 20 99  1  0  0  0
 21 23  1  0  0  0
 22 28  1  0  0  0
 22 32  2  0  0  0
 26 27  1  0  0  0
 28100  1  0  0  0
 28101  1  0  0  0
 29102  1  0  0  0
 29103  1  0  0  0
 33 34  1  0  0  0
 33 66  1  0  0  0
 33 70  2  0  0  0
 34 36  1  0  0  0
 34 59  1  0  0  0
 34104  1  0  0  0
 35 44  2  0  0  0
 35 45  1  0  0  0
 35 68  1  0  0  0
 36 56  1  0  0  0
 36105  1  0  0  0
 37 39  1  0  0  0
 37 47  1  0  0  0
 37 66  1  0  0  0
 37106  1  0  0  0
 38 43  2  0  0  0
 38 46  1  0  0  0
 38 47  1  0  0  0
 39 64  1  0  0  0
 39 67  2  0  0  0
 40 52  1  0  0  0
 40 53  2  0  0  0
 40 58  1  0  0  0
 41107  1  0  0  0
 41108  1  0  0  0
 41109  1  0  0  0
 41 48  1  0  0  0
 42 43  1  0  0  0
 42 66  1  0  0  0
 42110  1  0  0  0
 42111  1  0  0  0
 43 44  1  0  0  0
 44112  1  0  0  0
 45 46  2  0  0  0
 45113  1  0  0  0
 46114  1  0  0  0
 47115  1  0  0  0
 47116  1  0  0  0
 48 56  1  0  0  0
 48 65  1  0  0  0
 48117  1  0  0  0
 49 50  1  0  0  0
 49 53  1  0  0  0
 49 64  1  0  0  0
 49118  1  0  0  0
 50 51  1  0  0  0
 50119  1  0  0  0
 50120  1  0  0  0
 51 52  1  0  0  0
 51121  1  0  0  0
 51122  1  0  0  0
 52123  1  0  0  0
 52124  1  0  0  0
 53 54  1  0  0  0
 54 55  2  0  0  0
 54125  1  0  0  0
 55 57  1  0  0  0
 55126  1  0  0  0
 56 69  2  0  0  0
 57 58  2  0  0  0
 57127  1  0  0  0
 58128  1  0  0  0
 59 60  1  0  0  0
 59 61  1  0  0  0
 59 62  1  0  0  0
 60129  1  0  0  0
 60130  1  0  0  0
 60131  1  0  0  0
 61132  1  0  0  0
 61133  1  0  0  0
 61134  1  0  0  0
 62135  1  0  0  0
 62136  1  0  0  0
 62137  1  0  0  0
 63 65  1  0  0  0
 63138  1  0  0  0
 63139  1  0  0  0
 63140  1  0  0  0
 64141  1  0  0  0
 65142  1  0  0  0
 68 79  1  0  0  0
 71 78  1  0  0  0
 71 82  1  0  0  0
 71 83  2  0  0  0
 72 73  1  0  0  0
 72 75  1  0  0  0
 72143  1  0  0  0
 72144  1  0  0  0
 73145  1  0  0  0
 73146  1  0  0  0
 73 76  1  0  0  0
 74 75  1  0  0  0
 74 76  1  0  0  0
 74147  1  0  0  0
 74148  1  0  0  0
 75 79  1  0  0  0
 75149  1  0  0  0
 76 81  1  0  0  0
 76150  1  0  0  0
 77151  1  0  0  0
 77152  1  0  0  0
 77153  1  0  0  0
 77 81  1  0  0  0
 78154  1  0  0  0
 78155  1  0  0  0
 79156  1  0  0  0
 79157  1  0  0  0
 80 81  1  0  0  0
 80 82  1  0  0  0
 80158  1  0  0  0
 80159  1  0  0  0
 81160  1  0  0  0
 82161  1  0  0  0
M  ISO  4   1 100  68 101  78 100  79 101
M  END
> <chiral flag>
0

> <version>
0

> <s_m_source_file>
/data/baiqing/PycharmProjects/Reinvent-master-3.2/result/LINK_invent/BTK/process_docking_weight1_custom_sum_contain_oxygen_bond_distance_aromatic_linkinvent_7_9_3/rearranged_h_0119.sdf

> <i_m_source_file_index>
18

> <r_mmod_Potential_Energy-OPLS-2005>
48.5803413391113

> <r_mmod_Stretch_Energy-OPLS-2005>
47.9797554016113

> <r_mmod_Bend_Energy-OPLS-2005>
136.125610351562

> <r_mmod_Torsional_Energy-OPLS-2005>
273.648742675781

> <r_mmod_Improper_Torsional_Energy-OPLS-2005>
2.52673602104187

> <r_mmod_Van_der_Waal_Energy-OPLS-2005>
129.730972290039

> <r_mmod_Electrostatic_Energy-OPLS-2005>
-367.140930175781

> <r_mmod_Solvation_Energy-OPLS-2005>
-196.930908203125

> <b_mmod_Minimization_Converged-OPLS-2005>
0

> <r_mmod_RMS_Derivative-OPLS-2005>
8.72674655914307

$$$$
18
                    3D
 Structure written by MMmdl.
156164  0  0  1  0            999 V2000
  -30.6611  -14.6152   20.4975 C   0  0  0  0  0  0
  -30.4151  -12.3820   19.4500 C   0  0  0  0  0  0
  -29.4971  -12.5019   18.2154 C   0  0  0  0  0  0
  -28.0141  -12.3645   18.6250 C   0  0  0  0  0  0
  -27.6439  -13.2287   19.8620 C   0  0  2  0  0  0
  -28.6887  -13.0964   20.9899 C   0  0  0  0  0  0
  -25.2532  -13.8218   20.5706 C   0  0  0  0  0  0
  -24.1809  -13.0455   20.9199 C   0  0  0  0  0  0
  -24.6379  -11.6934   20.8734 C   0  0  0  0  0  0
  -23.9069  -10.4312   21.0413 C   0  0  0  0  0  0
  -24.3637   -9.4241   21.9195 C   0  0  0  0  0  0
  -23.6331   -8.2259   22.0776 C   0  0  0  0  0  0
  -22.4301   -8.0303   21.3563 C   0  0  0  0  0  0
  -21.9926   -9.0262   20.4657 C   0  0  0  0  0  0
  -22.7233  -10.2154   20.3056 C   0  0  0  0  0  0
  -21.6862   -6.0741   22.5274 C   0  0  0  0  0  0
  -21.4007   -6.5635   23.8204 C   0  0  0  0  0  0
  -21.3666   -5.6786   24.9176 C   0  0  0  0  0  0
  -21.6055   -4.3047   24.7203 C   0  0  0  0  0  0
  -21.8805   -3.8141   23.4322 C   0  0  0  0  0  0
  -21.9189   -4.6969   22.3388 C   0  0  0  0  0  0
  -22.7843  -13.5245   21.1862 C   0  0  0  0  0  0
  -22.1683   -4.2153   21.0963 F   0  0  0  0  0  0
  -21.5670   -3.4537   25.7721 F   0  0  0  0  0  0
  -29.9970  -13.4211   20.4115 N   0  0  0  0  0  0
  -26.2947  -12.9402   20.3342 N   0  0  0  0  0  0
  -25.9299  -11.6540   20.5772 N   0  0  0  0  0  0
  -22.0493  -12.8230   22.0414 N   0  0  0  0  0  0
  -25.4264  -15.1952   20.4153 N   0  0  0  0  0  0
  -31.8512  -14.6855   20.1681 O   0  0  0  0  0  0
  -21.6681   -6.8885   21.4242 O   0  0  0  0  0  0
  -22.3504  -14.5549   20.6713 O   0  0  0  0  0  0
  -24.6185  -31.8587   23.2001 C   0  0  0  0  0  0
  -25.9034  -32.4760   23.8327 C   0  0  1  0  0  0
  -27.2377  -27.3486   20.1249 C   0  0  0  0  0  0
  -25.5849  -33.8570   24.2237 N   0  0  0  0  0  0
  -23.4115  -30.4782   21.5385 C   0  0  2  0  0  0
  -24.8612  -28.9286   20.1086 C   0  0  0  0  0  0
  -22.7423  -29.4606   22.4911 C   0  0  0  0  0  0
  -18.0274  -28.1359   22.8488 C   0  0  0  0  0  0
  -24.1488  -36.7328   23.2638 C   0  0  0  0  0  0
  -25.9473  -30.7967   21.3662 C   0  0  0  0  0  0
  -26.0215  -29.4249   20.7139 C   0  0  0  0  0  0
  -27.2054  -28.6438   20.7140 C   0  0  0  0  0  0
  -26.0547  -26.8846   19.5057 C   0  0  0  0  0  0
  -24.8785  -27.6616   19.4963 C   0  0  0  0  0  0
  -23.6255  -29.8020   20.1550 C   0  0  0  0  0  0
  -25.4101  -36.3083   24.0323 C   0  0  1  0  0  0
  -20.5861  -28.3649   23.1279 C   0  0  2  0  0  0
  -20.6738  -26.9372   22.5395 C   0  0  0  0  0  0
  -19.5714  -26.6353   21.5196 C   0  0  0  0  0  0
  -18.1904  -26.7893   22.1635 C   0  0  0  0  0  0
  -19.1520  -28.8819   23.2884 C   0  0  0  0  0  0
  -18.9465  -30.1422   23.8901 C   0  0  0  0  0  0
  -17.6467  -30.6572   24.0548 C   0  0  0  0  0  0
  -25.9036  -34.9451   23.5100 C   0  0  0  0  0  0
  -16.5358  -29.9090   23.6308 C   0  0  0  0  0  0
  -16.7261  -28.6485   23.0343 C   0  0  0  0  0  0
  -26.4419  -31.6578   25.0714 C   0  0  0  0  0  0
  -25.3679  -31.3737   26.1462 C   0  0  0  0  0  0
  -27.0203  -30.2975   24.6174 C   0  0  0  0  0  0
  -27.5938  -32.4323   25.7525 C   0  0  0  0  0  0
  -27.5578  -37.1810   24.8445 C   0  0  0  0  0  0
  -21.4143  -29.3018   22.3675 N   0  0  0  0  0  0
  -26.4278  -37.3774   23.9408 N   0  0  0  0  0  0
  -24.6770  -31.0627   22.0921 N   0  0  0  0  0  0
  -23.4169  -28.8162   23.2982 O   0  0  0  0  0  0
  -28.4060  -26.5909   20.2030 O   0  0  0  0  0  0
  -26.5638  -34.8913   22.4694 O   0  0  0  0  0  0
  -23.5352  -32.1369   23.7357 O   0  0  0  0  0  0
  -28.4766  -21.2531   20.7444 C   0  0  0  0  0  0
  -29.1969  -17.9700   19.2933 C   0  0  0  0  0  0
  -29.4733  -17.9402   21.7883 C   0  0  0  0  0  0
  -30.2072  -16.7800   19.4151 C   0  0  0  0  0  0
  -29.2536  -16.3813   21.6483 C   0  0  0  0  0  0
  -28.8946  -18.7580   20.5965 C   0  0  0  0  0  0
  -28.9466  -22.6190   20.1304 C   0  0  0  0  0  0
  -28.2870  -23.9823   20.6207 C   0  0  0  0  0  0
  -28.5386  -25.2298   19.6781 C   0  0  0  0  0  0
  -29.8992  -15.7674   20.4591 N   0  0  0  0  0  0
  -27.4242  -21.1731   21.3798 O   0  0  0  0  0  0
  -29.3115  -20.1587   20.4665 O   0  0  0  0  0  0
  -31.4588  -12.4809   19.1512 H   0  0  0  0  0  0
  -30.3291  -11.3927   19.8978 H   0  0  0  0  0  0
  -29.7528  -11.7399   17.4746 H   0  0  0  0  0  0
  -29.6614  -13.4655   17.7333 H   0  0  0  0  0  0
  -27.8281  -11.3121   18.8348 H   0  0  0  0  0  0
  -27.3682  -12.6268   17.7857 H   0  0  0  0  0  0
  -27.6539  -14.2662   19.5245 H   0  0  0  0  0  0
  -28.6931  -12.0828   21.3916 H   0  0  0  0  0  0
  -28.4474  -13.7522   21.8260 H   0  0  0  0  0  0
  -25.2809   -9.5750   22.4733 H   0  0  0  0  0  0
  -24.0077   -7.4654   22.7457 H   0  0  0  0  0  0
  -21.0882   -8.8756   19.8938 H   0  0  0  0  0  0
  -22.3711  -10.9700   19.6158 H   0  0  0  0  0  0
  -21.1998   -7.6140   23.9716 H   0  0  0  0  0  0
  -21.1543   -6.0526   25.9083 H   0  0  0  0  0  0
  -22.0584   -2.7598   23.2822 H   0  0  0  0  0  0
  -22.4127  -11.9904   22.4834 H   0  0  0  0  0  0
  -21.1099  -13.1262   22.2570 H   0  0  0  0  0  0
  -24.6721  -15.8582   20.5484 H   0  0  0  0  0  0
  -26.2887  -15.6337   20.1172 H   0  0  0  0  0  0
  -26.7115  -32.5409   23.1079 H   0  0  0  0  0  0
  -24.9901  -33.9711   25.0309 H   0  0  0  0  0  0
  -22.7049  -31.2968   21.3895 H   0  0  0  0  0  0
  -23.3733  -35.9675   23.3268 H   0  0  0  0  0  0
  -24.3595  -36.9001   22.2064 H   0  0  0  0  0  0
  -23.7264  -37.6530   23.6695 H   0  0  0  0  0  0
  -26.0786  -31.5615   20.5972 H   0  0  0  0  0  0
  -26.8286  -30.8444   21.9958 H   0  0  0  0  0  0
  -28.0968  -29.0247   21.1930 H   0  0  0  0  0  0
  -26.0143  -25.9088   19.0438 H   0  0  0  0  0  0
  -23.9859  -27.2712   19.0262 H   0  0  0  0  0  0
  -23.7398  -30.5749   19.3931 H   0  0  0  0  0  0
  -22.7479  -29.2241   19.8558 H   0  0  0  0  0  0
  -25.1284  -36.1932   25.0814 H   0  0  0  0  0  0
  -20.9960  -28.3212   24.1393 H   0  0  0  0  0  0
  -20.5606  -26.2262   23.3588 H   0  0  0  0  0  0
  -21.6607  -26.7365   22.1201 H   0  0  0  0  0  0
  -19.6873  -25.6264   21.1221 H   0  0  0  0  0  0
  -19.6647  -27.3162   20.6724 H   0  0  0  0  0  0
  -17.4149  -26.6607   21.4069 H   0  0  0  0  0  0
  -18.0351  -26.0036   22.9047 H   0  0  0  0  0  0
  -19.7942  -30.7221   24.2274 H   0  0  0  0  0  0
  -17.5033  -31.6263   24.5144 H   0  0  0  0  0  0
  -15.5357  -30.3016   23.7598 H   0  0  0  0  0  0
  -15.8650  -28.0820   22.7065 H   0  0  0  0  0  0
  -24.5844  -30.7069   25.7849 H   0  0  0  0  0  0
  -24.8879  -32.2913   26.4880 H   0  0  0  0  0  0
  -25.8039  -30.8958   27.0246 H   0  0  0  0  0  0
  -26.2761  -29.6818   24.1106 H   0  0  0  0  0  0
  -27.3742  -29.7144   25.4687 H   0  0  0  0  0  0
  -27.8710  -30.4200   23.9463 H   0  0  0  0  0  0
  -27.2467  -33.3589   26.2110 H   0  0  0  0  0  0
  -28.3766  -32.6951   25.0405 H   0  0  0  0  0  0
  -28.0569  -31.8461   26.5470 H   0  0  0  0  0  0
  -28.2542  -38.0155   24.7511 H   0  0  0  0  0  0
  -28.1124  -36.2684   24.6219 H   0  0  0  0  0  0
  -27.2311  -37.1396   25.8849 H   0  0  0  0  0  0
  -20.9289  -29.8783   21.6936 H   0  0  0  0  0  0
  -26.0158  -38.2844   24.1423 H   0  0  0  0  0  0
  -28.2558  -17.5690   18.9198 H   0  0  0  0  0  0
  -29.5443  -18.6559   18.5192 H   0  0  0  0  0  0
  -30.5400  -18.1411   21.8977 H   0  0  0  0  0  0
  -29.0091  -18.2849   22.7146 H   0  0  0  0  0  0
  -31.2089  -17.1765   19.5905 H   0  0  0  0  0  0
  -30.2531  -16.2744   18.4493 H   0  0  0  0  0  0
  -28.1839  -16.1840   21.5652 H   0  0  0  0  0  0
  -29.5866  -15.8837   22.5619 H   0  0  0  0  0  0
  -27.8090  -18.7557   20.7113 H   0  0  0  0  0  0
  -28.7660  -22.5304   19.0597 H   0  0  0  0  0  0
  -30.0288  -22.6811   20.2361 H   0  0  0  0  0  0
  -28.6847  -24.2135   21.6103 H   0  0  0  0  0  0
  -27.2109  -23.8559   20.7604 H   0  0  0  0  0  0
  -28.0067  -25.1199   18.7342 H   0  0  0  0  0  0
  -29.5893  -25.1759   19.3929 H   0  0  0  0  0  0
  1 25  1  0  0  0
  1 30  2  0  0  0
  1 80  1  0  0  0
  2  3  1  0  0  0
  2 25  1  0  0  0
  2 83  1  0  0  0
  2 84  1  0  0  0
  3  4  1  0  0  0
  3 85  1  0  0  0
  3 86  1  0  0  0
  4  5  1  0  0  0
  4 87  1  0  0  0
  4 88  1  0  0  0
  5  6  1  0  0  0
  5 26  1  0  0  0
  5 89  1  0  0  0
  6 25  1  0  0  0
  6 90  1  0  0  0
  6 91  1  0  0  0
  7  8  2  0  0  0
  7 26  1  0  0  0
  7 29  1  0  0  0
  8  9  1  0  0  0
  8 22  1  0  0  0
  9 10  1  0  0  0
  9 27  2  0  0  0
 10 11  2  0  0  0
 10 15  1  0  0  0
 11 12  1  0  0  0
 11 92  1  0  0  0
 12 13  2  0  0  0
 12 93  1  0  0  0
 13 14  1  0  0  0
 13 31  1  0  0  0
 14 15  2  0  0  0
 14 94  1  0  0  0
 15 95  1  0  0  0
 16 17  2  0  0  0
 16 21  1  0  0  0
 16 31  1  0  0  0
 17 18  1  0  0  0
 17 96  1  0  0  0
 18 19  2  0  0  0
 18 97  1  0  0  0
 19 20  1  0  0  0
 19 24  1  0  0  0
 20 21  2  0  0  0
 20 98  1  0  0  0
 21 23  1  0  0  0
 22 28  1  0  0  0
 22 32  2  0  0  0
 26 27  1  0  0  0
 28 99  1  0  0  0
 28100  1  0  0  0
 29101  1  0  0  0
 29102  1  0  0  0
 33 34  1  0  0  0
 33 66  1  0  0  0
 33 70  2  0  0  0
 34 36  1  0  0  0
 34 59  1  0  0  0
 34103  1  0  0  0
 35 44  2  0  0  0
 35 45  1  0  0  0
 35 68  1  0  0  0
 36 56  1  0  0  0
 36104  1  0  0  0
 37 39  1  0  0  0
 37 47  1  0  0  0
 37 66  1  0  0  0
 37105  1  0  0  0
 38 43  2  0  0  0
 38 46  1  0  0  0
 38 47  1  0  0  0
 39 64  1  0  0  0
 39 67  2  0  0  0
 40 52  1  0  0  0
 40 53  2  0  0  0
 40 58  1  0  0  0
 41106  1  0  0  0
 41107  1  0  0  0
 41108  1  0  0  0
 41 48  1  0  0  0
 42 43  1  0  0  0
 42 66  1  0  0  0
 42109  1  0  0  0
 42110  1  0  0  0
 43 44  1  0  0  0
 44111  1  0  0  0
 45 46  2  0  0  0
 45112  1  0  0  0
 46113  1  0  0  0
 47114  1  0  0  0
 47115  1  0  0  0
 48 56  1  0  0  0
 48 65  1  0  0  0
 48116  1  0  0  0
 49 50  1  0  0  0
 49 53  1  0  0  0
 49 64  1  0  0  0
 49117  1  0  0  0
 50 51  1  0  0  0
 50118  1  0  0  0
 50119  1  0  0  0
 51 52  1  0  0  0
 51120  1  0  0  0
 51121  1  0  0  0
 52122  1  0  0  0
 52123  1  0  0  0
 53 54  1  0  0  0
 54 55  2  0  0  0
 54124  1  0  0  0
 55 57  1  0  0  0
 55125  1  0  0  0
 56 69  2  0  0  0
 57 58  2  0  0  0
 57126  1  0  0  0
 58127  1  0  0  0
 59 60  1  0  0  0
 59 61  1  0  0  0
 59 62  1  0  0  0
 60128  1  0  0  0
 60129  1  0  0  0
 60130  1  0  0  0
 61131  1  0  0  0
 61132  1  0  0  0
 61133  1  0  0  0
 62134  1  0  0  0
 62135  1  0  0  0
 62136  1  0  0  0
 63 65  1  0  0  0
 63137  1  0  0  0
 63138  1  0  0  0
 63139  1  0  0  0
 64140  1  0  0  0
 65141  1  0  0  0
 68 79  1  0  0  0
 71 77  1  0  0  0
 71 81  2  0  0  0
 71 82  1  0  0  0
 72 74  1  0  0  0
 72 76  1  0  0  0
 72142  1  0  0  0
 72143  1  0  0  0
 73 75  1  0  0  0
 73 76  1  0  0  0
 73144  1  0  0  0
 73145  1  0  0  0
 74 80  1  0  0  0
 74146  1  0  0  0
 74147  1  0  0  0
 75 80  1  0  0  0
 75148  1  0  0  0
 75149  1  0  0  0
 76 82  1  0  0  0
 76150  1  0  0  0
 77 78  1  0  0  0
 77151  1  0  0  0
 77152  1  0  0  0
 78 79  1  0  0  0
 78153  1  0  0  0
 78154  1  0  0  0
 79155  1  0  0  0
 79156  1  0  0  0
M  ISO  4   1 100  68 101  79 101  80 100
M  END
> <chiral flag>
0

> <version>
0

> <s_m_source_file>
/data/baiqing/PycharmProjects/Reinvent-master-3.2/result/LINK_invent/BTK/process_docking_weight1_custom_sum_contain_oxygen_bond_distance_aromatic_linkinvent_7_9_3/rearranged_h_0119.sdf

> <i_m_source_file_index>
19

> <r_mmod_Potential_Energy-OPLS-2005>
213.775680541992

> <r_mmod_Stretch_Energy-OPLS-2005>
73.3463363647461

> <r_mmod_Bend_Energy-OPLS-2005>
148.138275146484

> <r_mmod_Torsional_Energy-OPLS-2005>
324.744506835938

> <r_mmod_Improper_Torsional_Energy-OPLS-2005>
17.6045398712158

> <r_mmod_Van_der_Waal_Energy-OPLS-2005>
127.93497467041

> <r_mmod_Electrostatic_Energy-OPLS-2005>
-312.641540527344

> <r_mmod_Solvation_Energy-OPLS-2005>
-205.4853515625

> <b_mmod_Minimization_Converged-OPLS-2005>
0

> <r_mmod_RMS_Derivative-OPLS-2005>
3.99381732940674

$$$$
19
                    3D
 Structure written by MMmdl.
173181  0  0  1  0            999 V2000
  -30.7393  -14.4104   20.6220 C   0  0  0  0  0  0
  -30.4161  -12.2906   19.4068 C   0  0  0  0  0  0
  -29.4861  -12.5122   18.1980 C   0  0  0  0  0  0
  -28.0095  -12.3726   18.6137 C   0  0  0  0  0  0
  -27.6628  -13.2040   19.8767 C   0  0  2  0  0  0
  -28.7031  -12.9642   20.9947 C   0  0  0  0  0  0
  -25.2571  -13.8155   20.5672 C   0  0  0  0  0  0
  -24.1807  -13.0436   20.9156 C   0  0  0  0  0  0
  -24.6366  -11.6903   20.8719 C   0  0  0  0  0  0
  -23.9034  -10.4288   21.0401 C   0  0  0  0  0  0
  -24.3591   -9.4203   21.9183 C   0  0  0  0  0  0
  -23.6276   -8.2233   22.0746 C   0  0  0  0  0  0
  -22.4256   -8.0263   21.3545 C   0  0  0  0  0  0
  -21.9885   -9.0232   20.4647 C   0  0  0  0  0  0
  -22.7204  -10.2120   20.3051 C   0  0  0  0  0  0
  -21.6847   -6.0716   22.5281 C   0  0  0  0  0  0
  -21.4008   -6.5629   23.8207 C   0  0  0  0  0  0
  -21.3667   -5.6782   24.9177 C   0  0  0  0  0  0
  -21.6045   -4.3043   24.7223 C   0  0  0  0  0  0
  -21.8819   -3.8134   23.4345 C   0  0  0  0  0  0
  -21.9193   -4.6945   22.3404 C   0  0  0  0  0  0
  -22.7843  -13.5246   21.1837 C   0  0  0  0  0  0
  -22.1664   -4.2139   21.0976 F   0  0  0  0  0  0
  -21.5636   -3.4528   25.7737 F   0  0  0  0  0  0
  -30.0405  -13.2577   20.4484 N   0  0  0  0  0  0
  -26.3012  -12.9329   20.3363 N   0  0  0  0  0  0
  -25.9290  -11.6488   20.5749 N   0  0  0  0  0  0
  -22.0481  -12.8249   22.0400 N   0  0  0  0  0  0
  -25.4319  -15.1875   20.4134 N   0  0  0  0  0  0
  -31.8264  -14.6311   20.0819 O   0  0  0  0  0  0
  -21.6626   -6.8853   21.4242 O   0  0  0  0  0  0
  -22.3542  -14.5575   20.6707 O   0  0  0  0  0  0
  -24.6123  -31.8695   23.2111 C   0  0  0  0  0  0
  -25.9023  -32.4832   23.8406 C   0  0  1  0  0  0
  -27.2417  -27.4727   20.0816 C   0  0  0  0  0  0
  -25.5886  -33.8634   24.2340 N   0  0  0  0  0  0
  -23.4004  -30.4923   21.5505 C   0  0  2  0  0  0
  -24.8510  -28.9646   20.1103 C   0  0  0  0  0  0
  -22.7402  -29.4662   22.4996 C   0  0  0  0  0  0
  -18.0270  -28.1375   22.8493 C   0  0  0  0  0  0
  -24.1486  -36.7324   23.2636 C   0  0  0  0  0  0
  -25.9260  -30.8478   21.3582 C   0  0  0  0  0  0
  -26.0096  -29.4863   20.7019 C   0  0  0  0  0  0
  -27.2120  -28.7467   20.6876 C   0  0  0  0  0  0
  -26.0698  -26.9502   19.5031 C   0  0  0  0  0  0
  -24.8741  -27.6939   19.5076 C   0  0  0  0  0  0
  -23.6083  -29.8242   20.1646 C   0  0  0  0  0  0
  -25.4103  -36.3123   24.0341 C   0  0  1  0  0  0
  -20.5860  -28.3659   23.1324 C   0  0  2  0  0  0
  -20.6764  -26.9400   22.5416 C   0  0  0  0  0  0
  -19.5743  -26.6387   21.5211 C   0  0  0  0  0  0
  -18.1920  -26.7922   22.1624 C   0  0  0  0  0  0
  -19.1520  -28.8834   23.2905 C   0  0  0  0  0  0
  -18.9449  -30.1440   23.8914 C   0  0  0  0  0  0
  -17.6452  -30.6584   24.0564 C   0  0  0  0  0  0
  -25.9029  -34.9479   23.5137 C   0  0  0  0  0  0
  -16.5345  -29.9089   23.6324 C   0  0  0  0  0  0
  -16.7261  -28.6504   23.0348 C   0  0  0  0  0  0
  -26.4465  -31.6605   25.0721 C   0  0  0  0  0  0
  -25.3751  -31.3712   26.1489 C   0  0  0  0  0  0
  -27.0276  -30.3049   24.6067 C   0  0  0  0  0  0
  -27.6059  -32.4310   25.7469 C   0  0  0  0  0  0
  -27.5583  -37.1812   24.8463 C   0  0  0  0  0  0
  -21.4133  -29.3030   22.3733 N   0  0  0  0  0  0
  -26.4293  -37.3800   23.9411 N   0  0  0  0  0  0
  -24.6645  -31.0824   22.0996 N   0  0  0  0  0  0
  -23.4183  -28.8206   23.3028 O   0  0  0  0  0  0
  -28.3503  -26.6709   20.1253 O   0  0  0  0  0  0
  -26.5590  -34.8930   22.4700 O   0  0  0  0  0  0
  -23.5320  -32.1427   23.7527 O   0  0  0  0  0  0
  -32.1251  -23.7921   20.5083 C   0  0  0  0  0  0
  -32.8143  -22.6316   20.8858 C   0  0  0  0  0  0
  -30.5037  -22.3700   19.4120 C   0  0  0  0  0  0
  -30.9373  -23.6723   19.7606 C   0  0  0  0  0  0
  -31.2987  -21.2558   19.7901 C   0  0  0  0  0  0
  -29.1821  -22.1906   18.6701 C   0  0  0  0  0  0
  -33.3608  -18.9241   18.6988 C   0  0  0  0  0  0
  -30.9491  -19.9729   16.0387 C   0  0  0  0  0  0
  -30.6225  -16.7122   21.5760 C   0  0  0  0  0  0
  -30.5031  -17.5749   20.3041 C   0  0  0  0  0  0
  -29.4620  -27.0493   19.3325 C   0  0  0  0  0  0
  -30.5927  -26.0717   19.6904 C   0  0  0  0  0  0
  -30.9811  -19.8052   19.3709 C   0  0  1  0  0  0
  -31.9308  -19.2770   18.2308 C   0  0  1  0  0  0
  -32.4195  -21.3957   20.5308 N   0  0  0  0  0  0
  -30.1295  -15.3526   21.3543 N   0  0  0  0  0  0
  -30.9879  -18.9316   20.5527 N   0  0  0  0  0  0
  -31.9896  -20.1929   17.0657 N   0  3  0  0  0  0
  -30.1821  -24.7494   19.3419 O   0  0  0  0  0  0
  -31.4602  -12.3840   19.1034 H   0  0  0  0  0  0
  -30.3081  -11.2749   19.7895 H   0  0  0  0  0  0
  -29.7186  -11.7946   17.4099 H   0  0  0  0  0  0
  -29.6587  -13.5025   17.7739 H   0  0  0  0  0  0
  -27.8163  -11.3161   18.8034 H   0  0  0  0  0  0
  -27.3567  -12.6557   17.7864 H   0  0  0  0  0  0
  -27.7167  -14.2547   19.5910 H   0  0  0  0  0  0
  -28.6689  -11.9246   21.3235 H   0  0  0  0  0  0
  -28.4599  -13.5523   21.8795 H   0  0  0  0  0  0
  -25.2738   -9.5683   22.4756 H   0  0  0  0  0  0
  -23.9989   -7.4620   22.7463 H   0  0  0  0  0  0
  -21.0809   -8.8731   19.8967 H   0  0  0  0  0  0
  -22.3646  -10.9640   19.6149 H   0  0  0  0  0  0
  -21.1992   -7.6135   23.9704 H   0  0  0  0  0  0
  -21.1503   -6.0517   25.9077 H   0  0  0  0  0  0
  -22.0598   -2.7594   23.2846 H   0  0  0  0  0  0
  -22.4083  -11.9913   22.4801 H   0  0  0  0  0  0
  -21.1106  -13.1297   22.2608 H   0  0  0  0  0  0
  -24.6748  -15.8504   20.5395 H   0  0  0  0  0  0
  -26.2984  -15.6282   20.1308 H   0  0  0  0  0  0
  -26.7101  -32.5563   23.1185 H   0  0  0  0  0  0
  -25.0046  -33.9797   25.0492 H   0  0  0  0  0  0
  -22.6877  -31.3077   21.4121 H   0  0  0  0  0  0
  -23.3743  -35.9663   23.3305 H   0  0  0  0  0  0
  -24.3584  -36.8932   22.2050 H   0  0  0  0  0  0
  -23.7241  -37.6536   23.6642 H   0  0  0  0  0  0
  -26.0316  -31.6171   20.5921 H   0  0  0  0  0  0
  -26.8158  -30.9034   21.9733 H   0  0  0  0  0  0
  -28.1027  -29.1379   21.1594 H   0  0  0  0  0  0
  -26.0836  -25.9650   19.0582 H   0  0  0  0  0  0
  -23.9820  -27.2810   19.0572 H   0  0  0  0  0  0
  -23.7097  -30.5988   19.4036 H   0  0  0  0  0  0
  -22.7350  -29.2384   19.8720 H   0  0  0  0  0  0
  -25.1274  -36.1993   25.0833 H   0  0  0  0  0  0
  -20.9951  -28.3223   24.1443 H   0  0  0  0  0  0
  -20.5675  -26.2263   23.3596 H   0  0  0  0  0  0
  -21.6637  -26.7450   22.1205 H   0  0  0  0  0  0
  -19.6906  -25.6301   21.1230 H   0  0  0  0  0  0
  -19.6680  -27.3207   20.6748 H   0  0  0  0  0  0
  -17.4188  -26.6664   21.4030 H   0  0  0  0  0  0
  -18.0328  -26.0063   22.9020 H   0  0  0  0  0  0
  -19.7927  -30.7249   24.2295 H   0  0  0  0  0  0
  -17.5012  -31.6270   24.5159 H   0  0  0  0  0  0
  -15.5346  -30.2999   23.7641 H   0  0  0  0  0  0
  -15.8658  -28.0831   22.7056 H   0  0  0  0  0  0
  -24.5873  -30.7118   25.7829 H   0  0  0  0  0  0
  -24.9004  -32.2875   26.5010 H   0  0  0  0  0  0
  -25.8113  -30.8813   27.0203 H   0  0  0  0  0  0
  -26.2795  -29.6820   24.1147 H   0  0  0  0  0  0
  -27.4087  -29.7276   25.4502 H   0  0  0  0  0  0
  -27.8619  -30.4374   23.9172 H   0  0  0  0  0  0
  -27.2699  -33.3609   26.2067 H   0  0  0  0  0  0
  -28.3851  -32.6866   25.0277 H   0  0  0  0  0  0
  -28.0740  -31.8415   26.5361 H   0  0  0  0  0  0
  -28.2603  -38.0108   24.7517 H   0  0  0  0  0  0
  -28.1074  -36.2641   24.6273 H   0  0  0  0  0  0
  -27.2304  -37.1454   25.8867 H   0  0  0  0  0  0
  -20.9286  -29.8754   21.6963 H   0  0  0  0  0  0
  -26.0186  -38.2881   24.1413 H   0  0  0  0  0  0
  -32.5276  -24.7455   20.8165 H   0  0  0  0  0  0
  -33.7197  -22.6964   21.4713 H   0  0  0  0  0  0
  -28.6047  -23.1125   18.6075 H   0  0  0  0  0  0
  -28.5465  -21.4686   19.1840 H   0  0  0  0  0  0
  -29.3474  -21.8505   17.6509 H   0  0  0  0  0  0
  -33.3524  -18.1982   19.5119 H   0  0  0  0  0  0
  -33.9100  -19.7996   19.0436 H   0  0  0  0  0  0
  -33.9384  -18.4747   17.8901 H   0  0  0  0  0  0
  -31.0270  -20.7271   15.2552 H   0  0  0  0  0  0
  -29.9450  -20.0251   16.4571 H   0  0  0  0  0  0
  -31.0655  -18.9946   15.5712 H   0  0  0  0  0  0
  -30.0466  -17.1589   22.3876 H   0  0  0  0  0  0
  -31.6596  -16.6695   21.9142 H   0  0  0  0  0  0
  -29.4632  -17.6128   19.9752 H   0  0  0  0  0  0
  -31.0781  -17.1000   19.5097 H   0  0  0  0  0  0
  -29.2120  -26.9831   18.2727 H   0  0  0  0  0  0
  -29.7642  -28.0757   19.5430 H   0  0  0  0  0  0
  -30.8035  -26.1553   20.7571 H   0  0  0  0  0  0
  -31.5010  -26.3290   19.1445 H   0  0  0  0  0  0
  -29.9642  -19.7801   18.9827 H   0  0  0  0  0  0
  -31.5165  -18.3444   17.8478 H   0  0  0  0  0  0
  -29.2325  -15.1147   21.7503 H   0  0  0  0  0  0
  -31.9449  -18.9335   20.8928 H   0  0  0  0  0  0
  -31.9654  -21.1501   17.3803 H   0  0  0  0  0  0
  -32.8778  -20.0587   16.6098 H   0  0  0  0  0  0
  1 25  1  0  0  0
  1 30  2  0  0  0
  1 86  1  0  0  0
  2  3  1  0  0  0
  2 25  1  0  0  0
  2 90  1  0  0  0
  2 91  1  0  0  0
  3  4  1  0  0  0
  3 92  1  0  0  0
  3 93  1  0  0  0
  4  5  1  0  0  0
  4 94  1  0  0  0
  4 95  1  0  0  0
  5  6  1  0  0  0
  5 26  1  0  0  0
  5 96  1  0  0  0
  6 25  1  0  0  0
  6 97  1  0  0  0
  6 98  1  0  0  0
  7  8  2  0  0  0
  7 26  1  0  0  0
  7 29  1  0  0  0
  8  9  1  0  0  0
  8 22  1  0  0  0
  9 10  1  0  0  0
  9 27  2  0  0  0
 10 11  2  0  0  0
 10 15  1  0  0  0
 11 12  1  0  0  0
 11 99  1  0  0  0
 12 13  2  0  0  0
 12100  1  0  0  0
 13 14  1  0  0  0
 13 31  1  0  0  0
 14 15  2  0  0  0
 14101  1  0  0  0
 15102  1  0  0  0
 16 17  2  0  0  0
 16 21  1  0  0  0
 16 31  1  0  0  0
 17 18  1  0  0  0
 17103  1  0  0  0
 18 19  2  0  0  0
 18104  1  0  0  0
 19 20  1  0  0  0
 19 24  1  0  0  0
 20 21  2  0  0  0
 20105  1  0  0  0
 21 23  1  0  0  0
 22 28  1  0  0  0
 22 32  2  0  0  0
 26 27  1  0  0  0
 28106  1  0  0  0
 28107  1  0  0  0
 29108  1  0  0  0
 29109  1  0  0  0
 33 34  1  0  0  0
 33 66  1  0  0  0
 33 70  2  0  0  0
 34 36  1  0  0  0
 34 59  1  0  0  0
 34110  1  0  0  0
 35 44  2  0  0  0
 35 45  1  0  0  0
 35 68  1  0  0  0
 36 56  1  0  0  0
 36111  1  0  0  0
 37 39  1  0  0  0
 37 47  1  0  0  0
 37 66  1  0  0  0
 37112  1  0  0  0
 38 43  2  0  0  0
 38 46  1  0  0  0
 38 47  1  0  0  0
 39 64  1  0  0  0
 39 67  2  0  0  0
 40 52  1  0  0  0
 40 53  2  0  0  0
 40 58  1  0  0  0
 41113  1  0  0  0
 41114  1  0  0  0
 41115  1  0  0  0
 41 48  1  0  0  0
 42 43  1  0  0  0
 42 66  1  0  0  0
 42116  1  0  0  0
 42117  1  0  0  0
 43 44  1  0  0  0
 44118  1  0  0  0
 45 46  2  0  0  0
 45119  1  0  0  0
 46120  1  0  0  0
 47121  1  0  0  0
 47122  1  0  0  0
 48 56  1  0  0  0
 48 65  1  0  0  0
 48123  1  0  0  0
 49 50  1  0  0  0
 49 53  1  0  0  0
 49 64  1  0  0  0
 49124  1  0  0  0
 50 51  1  0  0  0
 50125  1  0  0  0
 50126  1  0  0  0
 51 52  1  0  0  0
 51127  1  0  0  0
 51128  1  0  0  0
 52129  1  0  0  0
 52130  1  0  0  0
 53 54  1  0  0  0
 54 55  2  0  0  0
 54131  1  0  0  0
 55 57  1  0  0  0
 55132  1  0  0  0
 56 69  2  0  0  0
 57 58  2  0  0  0
 57133  1  0  0  0
 58134  1  0  0  0
 59 60  1  0  0  0
 59 61  1  0  0  0
 59 62  1  0  0  0
 60135  1  0  0  0
 60136  1  0  0  0
 60137  1  0  0  0
 61138  1  0  0  0
 61139  1  0  0  0
 61140  1  0  0  0
 62141  1  0  0  0
 62142  1  0  0  0
 62143  1  0  0  0
 63 65  1  0  0  0
 63144  1  0  0  0
 63145  1  0  0  0
 63146  1  0  0  0
 64147  1  0  0  0
 65148  1  0  0  0
 68 81  1  0  0  0
 71 72  2  0  0  0
 71 74  1  0  0  0
 71149  1  0  0  0
 72 85  1  0  0  0
 72150  1  0  0  0
 73 74  2  0  0  0
 73 75  1  0  0  0
 73 76  1  0  0  0
 74 89  1  0  0  0
 75 83  1  0  0  0
 75 85  2  0  0  0
 76151  1  0  0  0
 76152  1  0  0  0
 76153  1  0  0  0
 77154  1  0  0  0
 77155  1  0  0  0
 77156  1  0  0  0
 77 84  1  0  0  0
 78 88  1  0  0  0
 78157  1  0  0  0
 78158  1  0  0  0
 78159  1  0  0  0
 79 80  1  0  0  0
 79 86  1  0  0  0
 79160  1  0  0  0
 79161  1  0  0  0
 80 87  1  0  0  0
 80162  1  0  0  0
 80163  1  0  0  0
 81 82  1  0  0  0
 81164  1  0  0  0
 81165  1  0  0  0
 82 89  1  0  0  0
 82166  1  0  0  0
 82167  1  0  0  0
 83 84  1  0  0  0
 83 87  1  0  0  0
 83168  1  0  0  0
 84 88  1  0  0  0
 84169  1  0  0  0
 86170  1  0  0  0
 87171  1  0  0  0
 88172  1  0  0  0
 88173  1  0  0  0
M  CHG  1  88   1
M  ISO  4   1 100  68 101  81 101  86 100
M  END
> <chiral flag>
0

> <version>
0

> <s_m_source_file>
/data/baiqing/PycharmProjects/Reinvent-master-3.2/result/LINK_invent/BTK/process_docking_weight1_custom_sum_contain_oxygen_bond_distance_aromatic_linkinvent_7_9_3/rearranged_h_0119.sdf

> <i_m_source_file_index>
20

> <r_mmod_Potential_Energy-OPLS-2005>
-452.470550537109

> <r_mmod_Stretch_Energy-OPLS-2005>
37.8234062194824

> <r_mmod_Bend_Energy-OPLS-2005>
108.133590698242

> <r_mmod_Torsional_Energy-OPLS-2005>
243.56510925293

> <r_mmod_Improper_Torsional_Energy-OPLS-2005>
2.53338241577148

> <r_mmod_Van_der_Waal_Energy-OPLS-2005>
164.221130371094

> <r_mmod_Electrostatic_Energy-OPLS-2005>
-556.170593261719

> <r_mmod_Solvation_Energy-OPLS-2005>
-462.022583007812

> <b_mmod_Minimization_Converged-OPLS-2005>
0

> <r_mmod_RMS_Derivative-OPLS-2005>
1.56594479084015

$$$$
20
                    3D
 Structure written by MMmdl.
163172  0  0  1  0            999 V2000
  -30.7049  -14.5345   20.5792 C   0  0  0  0  0  0
  -30.4254  -12.3487   19.4436 C   0  0  0  0  0  0
  -29.5015  -12.5147   18.2201 C   0  0  0  0  0  0
  -28.0243  -12.3656   18.6312 C   0  0  0  0  0  0
  -27.6601  -13.2180   19.8765 C   0  0  2  0  0  0
  -28.7023  -13.0396   21.0041 C   0  0  0  0  0  0
  -25.2573  -13.8181   20.5703 C   0  0  0  0  0  0
  -24.1827  -13.0440   20.9173 C   0  0  0  0  0  0
  -24.6394  -11.6913   20.8727 C   0  0  0  0  0  0
  -23.9057  -10.4296   21.0389 C   0  0  0  0  0  0
  -24.3609   -9.4213   21.9171 C   0  0  0  0  0  0
  -23.6289   -8.2245   22.0745 C   0  0  0  0  0  0
  -22.4272   -8.0278   21.3538 C   0  0  0  0  0  0
  -21.9904   -9.0244   20.4638 C   0  0  0  0  0  0
  -22.7225  -10.2128   20.3044 C   0  0  0  0  0  0
  -21.6857   -6.0730   22.5273 C   0  0  0  0  0  0
  -21.4016   -6.5635   23.8205 C   0  0  0  0  0  0
  -21.3664   -5.6789   24.9170 C   0  0  0  0  0  0
  -21.6045   -4.3050   24.7221 C   0  0  0  0  0  0
  -21.8821   -3.8141   23.4343 C   0  0  0  0  0  0
  -21.9193   -4.6958   22.3398 C   0  0  0  0  0  0
  -22.7848  -13.5229   21.1846 C   0  0  0  0  0  0
  -22.1663   -4.2143   21.0976 F   0  0  0  0  0  0
  -21.5630   -3.4538   25.7737 F   0  0  0  0  0  0
  -30.0287  -13.3532   20.4485 N   0  0  0  0  0  0
  -26.3021  -12.9370   20.3380 N   0  0  0  0  0  0
  -25.9331  -11.6516   20.5771 N   0  0  0  0  0  0
  -22.0493  -12.8218   22.0401 N   0  0  0  0  0  0
  -25.4287  -15.1900   20.4137 N   0  0  0  0  0  0
  -31.8135  -14.7093   20.0619 O   0  0  0  0  0  0
  -21.6641   -6.8869   21.4235 O   0  0  0  0  0  0
  -22.3528  -14.5538   20.6703 O   0  0  0  0  0  0
  -24.6233  -31.8638   23.2095 C   0  0  0  0  0  0
  -25.9095  -32.4803   23.8396 C   0  0  1  0  0  0
  -27.2157  -27.3615   20.0948 C   0  0  0  0  0  0
  -25.5931  -33.8606   24.2326 N   0  0  0  0  0  0
  -23.4153  -30.4911   21.5513 C   0  0  2  0  0  0
  -24.8609  -28.9661   20.1044 C   0  0  0  0  0  0
  -22.7466  -29.4635   22.4954 C   0  0  0  0  0  0
  -18.0284  -28.1381   22.8479 C   0  0  0  0  0  0
  -24.1491  -36.7303   23.2637 C   0  0  0  0  0  0
  -25.9559  -30.8067   21.3782 C   0  0  0  0  0  0
  -26.0294  -29.4426   20.7117 C   0  0  0  0  0  0
  -27.2120  -28.6492   20.7033 C   0  0  0  0  0  0
  -26.0322  -26.9515   19.4323 C   0  0  0  0  0  0
  -24.8627  -27.7247   19.4569 C   0  0  0  0  0  0
  -23.6270  -29.8372   20.1633 C   0  0  0  0  0  0
  -25.4112  -36.3100   24.0340 C   0  0  1  0  0  0
  -20.5879  -28.3677   23.1301 C   0  0  2  0  0  0
  -20.6770  -26.9407   22.5415 C   0  0  0  0  0  0
  -19.5746  -26.6387   21.5218 C   0  0  0  0  0  0
  -18.1923  -26.7923   22.1624 C   0  0  0  0  0  0
  -19.1532  -28.8846   23.2884 C   0  0  0  0  0  0
  -18.9454  -30.1455   23.8903 C   0  0  0  0  0  0
  -17.6458  -30.6580   24.0563 C   0  0  0  0  0  0
  -25.9047  -34.9458   23.5123 C   0  0  0  0  0  0
  -16.5344  -29.9073   23.6332 C   0  0  0  0  0  0
  -16.7271  -28.6498   23.0344 C   0  0  0  0  0  0
  -26.4497  -31.6594   25.0744 C   0  0  0  0  0  0
  -25.3735  -31.3699   26.1471 C   0  0  0  0  0  0
  -27.0347  -30.3025   24.6172 C   0  0  0  0  0  0
  -27.6074  -32.4315   25.7490 C   0  0  0  0  0  0
  -27.5582  -37.1799   24.8468 C   0  0  0  0  0  0
  -21.4178  -29.3037   22.3703 N   0  0  0  0  0  0
  -26.4299  -37.3788   23.9415 N   0  0  0  0  0  0
  -24.6830  -31.0683   22.1032 N   0  0  0  0  0  0
  -23.4208  -28.8150   23.2998 O   0  0  0  0  0  0
  -28.3055  -26.4879   20.1929 O   0  0  0  0  0  0
  -26.5608  -34.8918   22.4686 O   0  0  0  0  0  0
  -23.5405  -32.1425   23.7442 O   0  0  0  0  0  0
  -31.1106  -22.1703   21.0638 C   0  0  0  0  0  0
  -31.2433  -23.5498   21.3002 C   0  0  0  0  0  0
  -28.9092  -22.6279   20.1946 C   0  0  0  0  0  0
  -29.9228  -21.6756   20.5044 C   0  0  0  0  0  0
  -29.1136  -24.0188   20.4980 C   0  0  0  0  0  0
  -30.0516  -17.3891   22.7745 C   0  0  0  0  0  0
  -30.3506  -15.8980   22.5627 C   0  0  0  0  0  0
  -29.8044  -16.8800   20.4713 C   0  0  0  0  0  0
  -30.2276  -18.0493   21.4088 C   0  0  1  0  0  0
  -27.6105  -22.1431   19.5604 C   0  0  0  0  0  0
  -27.1865  -24.9704   21.7718 C   0  0  0  0  0  0
  -29.4833  -19.4383   21.3247 C   0  0  0  0  0  0
  -27.9641  -25.0690   20.4374 C   0  0  1  0  0  0
  -30.2716  -24.4503   21.0427 N   0  0  0  0  0  0
  -30.0454  -15.5791   21.1634 N   0  0  0  0  0  0
  -29.8135  -20.3138   20.2228 O   0  0  0  0  0  0
  -31.4706  -12.4457   19.1445 H   0  0  0  0  0  0
  -30.3320  -11.3451   19.8614 H   0  0  0  0  0  0
  -29.7530  -11.7794   17.4549 H   0  0  0  0  0  0
  -29.6613  -13.4946   17.7674 H   0  0  0  0  0  0
  -27.8460  -11.3103   18.8405 H   0  0  0  0  0  0
  -27.3730  -12.6232   17.7953 H   0  0  0  0  0  0
  -27.6927  -14.2618   19.5629 H   0  0  0  0  0  0
  -28.6903  -12.0148   21.3782 H   0  0  0  0  0  0
  -28.4532  -13.6702   21.8585 H   0  0  0  0  0  0
  -25.2753   -9.5698   22.4743 H   0  0  0  0  0  0
  -24.0004   -7.4639   22.7465 H   0  0  0  0  0  0
  -21.0835   -8.8752   19.8941 H   0  0  0  0  0  0
  -22.3673  -10.9662   19.6151 H   0  0  0  0  0  0
  -21.2010   -7.6142   23.9708 H   0  0  0  0  0  0
  -21.1486   -6.0519   25.9071 H   0  0  0  0  0  0
  -22.0599   -2.7603   23.2844 H   0  0  0  0  0  0
  -22.4115  -11.9886   22.4800 H   0  0  0  0  0  0
  -21.1100  -13.1223   22.2593 H   0  0  0  0  0  0
  -24.6660  -15.8490   20.5294 H   0  0  0  0  0  0
  -26.2930  -15.6303   20.1240 H   0  0  0  0  0  0
  -26.7143  -32.5474   23.1125 H   0  0  0  0  0  0
  -25.0087  -33.9773   25.0467 H   0  0  0  0  0  0
  -22.7075  -31.3106   21.4127 H   0  0  0  0  0  0
  -23.3764  -35.9627   23.3311 H   0  0  0  0  0  0
  -24.3583  -36.8928   22.2054 H   0  0  0  0  0  0
  -23.7240  -37.6505   23.6650 H   0  0  0  0  0  0
  -26.0881  -31.5760   20.6164 H   0  0  0  0  0  0
  -26.8365  -30.8473   22.0077 H   0  0  0  0  0  0
  -28.1028  -28.9991   21.2063 H   0  0  0  0  0  0
  -25.9687  -26.0189   18.8944 H   0  0  0  0  0  0
  -23.9683  -27.3662   18.9669 H   0  0  0  0  0  0
  -23.7409  -30.6180   19.4111 H   0  0  0  0  0  0
  -22.7488  -29.2637   19.8612 H   0  0  0  0  0  0
  -25.1280  -36.1961   25.0836 H   0  0  0  0  0  0
  -20.9962  -28.3229   24.1425 H   0  0  0  0  0  0
  -20.5701  -26.2264   23.3599 H   0  0  0  0  0  0
  -21.6627  -26.7448   22.1186 H   0  0  0  0  0  0
  -19.6921  -25.6306   21.1232 H   0  0  0  0  0  0
  -19.6701  -27.3204   20.6760 H   0  0  0  0  0  0
  -17.4199  -26.6689   21.4020 H   0  0  0  0  0  0
  -18.0318  -26.0064   22.9019 H   0  0  0  0  0  0
  -19.7932  -30.7267   24.2277 H   0  0  0  0  0  0
  -17.5003  -31.6261   24.5158 H   0  0  0  0  0  0
  -15.5343  -30.2969   23.7670 H   0  0  0  0  0  0
  -15.8666  -28.0820   22.7054 H   0  0  0  0  0  0
  -24.5928  -30.7031   25.7785 H   0  0  0  0  0  0
  -24.8890  -32.2845   26.4893 H   0  0  0  0  0  0
  -25.8058  -30.8869   27.0241 H   0  0  0  0  0  0
  -26.2908  -29.6762   24.1229 H   0  0  0  0  0  0
  -27.4110  -29.7287   25.4655 H   0  0  0  0  0  0
  -27.8745  -30.4344   23.9347 H   0  0  0  0  0  0
  -27.2726  -33.3638   26.2040 H   0  0  0  0  0  0
  -28.3879  -32.6848   25.0302 H   0  0  0  0  0  0
  -28.0737  -31.8453   26.5419 H   0  0  0  0  0  0
  -28.2593  -38.0102   24.7521 H   0  0  0  0  0  0
  -28.1088  -36.2634   24.6271 H   0  0  0  0  0  0
  -27.2301  -37.1424   25.8872 H   0  0  0  0  0  0
  -20.9356  -29.8765   21.6918 H   0  0  0  0  0  0
  -26.0192  -38.2875   24.1401 H   0  0  0  0  0  0
  -31.9266  -21.5022   21.2995 H   0  0  0  0  0  0
  -32.1569  -23.9428   21.7223 H   0  0  0  0  0  0
  -30.6932  -17.8359   23.5363 H   0  0  0  0  0  0
  -29.0196  -17.5043   23.1105 H   0  0  0  0  0  0
  -29.7742  -15.2744   23.2484 H   0  0  0  0  0  0
  -31.4071  -15.7092   22.7666 H   0  0  0  0  0  0
  -30.3263  -16.9416   19.5146 H   0  0  0  0  0  0
  -28.7383  -16.9428   20.2519 H   0  0  0  0  0  0
  -31.2958  -18.2261   21.2706 H   0  0  0  0  0  0
  -27.6122  -21.0670   19.3859 H   0  0  0  0  0  0
  -27.4542  -22.6218   18.5929 H   0  0  0  0  0  0
  -26.7547  -22.3652   20.1959 H   0  0  0  0  0  0
  -26.8590  -23.9491   21.9606 H   0  0  0  0  0  0
  -26.2905  -25.5898   21.7934 H   0  0  0  0  0  0
  -27.8174  -25.2700   22.6083 H   0  0  0  0  0  0
  -29.6751  -19.9703   22.2592 H   0  0  0  0  0  0
  -28.4066  -19.2668   21.3063 H   0  0  0  0  0  0
  -27.3375  -24.7200   19.6232 H   0  0  0  0  0  0
  1 25  1  0  0  0
  1 30  2  0  0  0
  1 85  1  0  0  0
  2  3  1  0  0  0
  2 25  1  0  0  0
  2 87  1  0  0  0
  2 88  1  0  0  0
  3  4  1  0  0  0
  3 89  1  0  0  0
  3 90  1  0  0  0
  4  5  1  0  0  0
  4 91  1  0  0  0
  4 92  1  0  0  0
  5  6  1  0  0  0
  5 26  1  0  0  0
  5 93  1  0  0  0
  6 25  1  0  0  0
  6 94  1  0  0  0
  6 95  1  0  0  0
  7  8  2  0  0  0
  7 26  1  0  0  0
  7 29  1  0  0  0
  8  9  1  0  0  0
  8 22  1  0  0  0
  9 10  1  0  0  0
  9 27  2  0  0  0
 10 11  2  0  0  0
 10 15  1  0  0  0
 11 12  1  0  0  0
 11 96  1  0  0  0
 12 13  2  0  0  0
 12 97  1  0  0  0
 13 14  1  0  0  0
 13 31  1  0  0  0
 14 15  2  0  0  0
 14 98  1  0  0  0
 15 99  1  0  0  0
 16 17  2  0  0  0
 16 21  1  0  0  0
 16 31  1  0  0  0
 17 18  1  0  0  0
 17100  1  0  0  0
 18 19  2  0  0  0
 18101  1  0  0  0
 19 20  1  0  0  0
 19 24  1  0  0  0
 20 21  2  0  0  0
 20102  1  0  0  0
 21 23  1  0  0  0
 22 28  1  0  0  0
 22 32  2  0  0  0
 26 27  1  0  0  0
 28103  1  0  0  0
 28104  1  0  0  0
 29105  1  0  0  0
 29106  1  0  0  0
 33 34  1  0  0  0
 33 66  1  0  0  0
 33 70  2  0  0  0
 34 36  1  0  0  0
 34 59  1  0  0  0
 34107  1  0  0  0
 35 44  2  0  0  0
 35 45  1  0  0  0
 35 68  1  0  0  0
 36 56  1  0  0  0
 36108  1  0  0  0
 37 39  1  0  0  0
 37 47  1  0  0  0
 37 66  1  0  0  0
 37109  1  0  0  0
 38 43  2  0  0  0
 38 46  1  0  0  0
 38 47  1  0  0  0
 39 64  1  0  0  0
 39 67  2  0  0  0
 40 52  1  0  0  0
 40 53  2  0  0  0
 40 58  1  0  0  0
 41110  1  0  0  0
 41111  1  0  0  0
 41112  1  0  0  0
 41 48  1  0  0  0
 42 43  1  0  0  0
 42 66  1  0  0  0
 42113  1  0  0  0
 42114  1  0  0  0
 43 44  1  0  0  0
 44115  1  0  0  0
 45 46  2  0  0  0
 45116  1  0  0  0
 46117  1  0  0  0
 47118  1  0  0  0
 47119  1  0  0  0
 48 56  1  0  0  0
 48 65  1  0  0  0
 48120  1  0  0  0
 49 50  1  0  0  0
 49 53  1  0  0  0
 49 64  1  0  0  0
 49121  1  0  0  0
 50 51  1  0  0  0
 50122  1  0  0  0
 50123  1  0  0  0
 51 52  1  0  0  0
 51124  1  0  0  0
 51125  1  0  0  0
 52126  1  0  0  0
 52127  1  0  0  0
 53 54  1  0  0  0
 54 55  2  0  0  0
 54128  1  0  0  0
 55 57  1  0  0  0
 55129  1  0  0  0
 56 69  2  0  0  0
 57 58  2  0  0  0
 57130  1  0  0  0
 58131  1  0  0  0
 59 60  1  0  0  0
 59 61  1  0  0  0
 59 62  1  0  0  0
 60132  1  0  0  0
 60133  1  0  0  0
 60134  1  0  0  0
 61135  1  0  0  0
 61136  1  0  0  0
 61137  1  0  0  0
 62138  1  0  0  0
 62139  1  0  0  0
 62140  1  0  0  0
 63 65  1  0  0  0
 63141  1  0  0  0
 63142  1  0  0  0
 63143  1  0  0  0
 64144  1  0  0  0
 65145  1  0  0  0
 68 83  1  0  0  0
 71 72  2  0  0  0
 71 74  1  0  0  0
 71146  1  0  0  0
 72 84  1  0  0  0
 72147  1  0  0  0
 73 74  2  0  0  0
 73 75  1  0  0  0
 73 80  1  0  0  0
 74 86  1  0  0  0
 75 83  1  0  0  0
 75 84  2  0  0  0
 76 77  1  0  0  0
 76 79  1  0  0  0
 76148  1  0  0  0
 76149  1  0  0  0
 77 85  1  0  0  0
 77150  1  0  0  0
 77151  1  0  0  0
 78 79  1  0  0  0
 78 85  1  0  0  0
 78152  1  0  0  0
 78153  1  0  0  0
 79 82  1  0  0  0
 79154  1  0  0  0
 80155  1  0  0  0
 80156  1  0  0  0
 80157  1  0  0  0
 81158  1  0  0  0
 81159  1  0  0  0
 81160  1  0  0  0
 81 83  1  0  0  0
 82 86  1  0  0  0
 82161  1  0  0  0
 82162  1  0  0  0
 83163  1  0  0  0
M  ISO  4   1 100  68 101  83 101  85 100
M  END
> <chiral flag>
0

> <version>
0

> <s_m_source_file>
/data/baiqing/PycharmProjects/Reinvent-master-3.2/result/LINK_invent/BTK/process_docking_weight1_custom_sum_contain_oxygen_bond_distance_aromatic_linkinvent_7_9_3/rearranged_h_0119.sdf

> <i_m_source_file_index>
21

> <r_mmod_Potential_Energy-OPLS-2005>
90.9878158569336

> <r_mmod_Stretch_Energy-OPLS-2005>
62.3404312133789

> <r_mmod_Bend_Energy-OPLS-2005>
137.076965332031

> <r_mmod_Torsional_Energy-OPLS-2005>
363.64990234375

> <r_mmod_Improper_Torsional_Energy-OPLS-2005>
8.20701789855957

> <r_mmod_Van_der_Waal_Energy-OPLS-2005>
152.781860351562

> <r_mmod_Electrostatic_Energy-OPLS-2005>
-451.89404296875

> <r_mmod_Solvation_Energy-OPLS-2005>
-212.961807250977

> <b_mmod_Minimization_Converged-OPLS-2005>
0

> <r_mmod_RMS_Derivative-OPLS-2005>
1.67272245883942

$$$$
21
                    3D
 Structure written by MMmdl.
173182  0  0  1  0            999 V2000
  -30.7105  -14.4234   20.5796 C   0  0  0  0  0  0
  -30.4233  -12.2746   19.4253 C   0  0  0  0  0  0
  -29.5032  -12.5030   18.2067 C   0  0  0  0  0  0
  -28.0183  -12.3784   18.6082 C   0  0  0  0  0  0
  -27.6689  -13.2015   19.8797 C   0  0  2  0  0  0
  -28.7067  -12.9654   21.0044 C   0  0  0  0  0  0
  -25.2588  -13.8144   20.5510 C   0  0  0  0  0  0
  -24.1835  -13.0461   20.9137 C   0  0  0  0  0  0
  -24.6376  -11.6938   20.8769 C   0  0  0  0  0  0
  -23.9033  -10.4309   21.0454 C   0  0  0  0  0  0
  -24.3634   -9.4215   21.9209 C   0  0  0  0  0  0
  -23.6350   -8.2211   22.0751 C   0  0  0  0  0  0
  -22.4309   -8.0257   21.3531 C   0  0  0  0  0  0
  -21.9932   -9.0219   20.4623 C   0  0  0  0  0  0
  -22.7231  -10.2128   20.3071 C   0  0  0  0  0  0
  -21.6836   -6.0775   22.5302 C   0  0  0  0  0  0
  -21.3988   -6.5666   23.8243 C   0  0  0  0  0  0
  -21.3691   -5.6801   24.9199 C   0  0  0  0  0  0
  -21.6044   -4.3053   24.7208 C   0  0  0  0  0  0
  -21.8824   -3.8168   23.4308 C   0  0  0  0  0  0
  -21.9177   -4.7010   22.3388 C   0  0  0  0  0  0
  -22.7876  -13.5293   21.1835 C   0  0  0  0  0  0
  -22.1680   -4.2211   21.0963 F   0  0  0  0  0  0
  -21.5627   -3.4537   25.7722 F   0  0  0  0  0  0
  -30.0475  -13.2454   20.4623 N   0  0  0  0  0  0
  -26.3039  -12.9306   20.3347 N   0  0  0  0  0  0
  -25.9304  -11.6471   20.5813 N   0  0  0  0  0  0
  -22.0517  -12.8283   22.0391 N   0  0  0  0  0  0
  -25.4267  -15.1829   20.3614 N   0  0  0  0  0  0
  -31.8096  -14.6458   20.0714 O   0  0  0  0  0  0
  -21.6600   -6.8911   21.4260 O   0  0  0  0  0  0
  -22.3587  -14.5603   20.6711 O   0  0  0  0  0  0
  -24.6188  -31.8678   23.2136 C   0  0  0  0  0  0
  -25.9081  -32.4818   23.8433 C   0  0  1  0  0  0
  -27.2391  -27.4376   20.0851 C   0  0  0  0  0  0
  -25.5934  -33.8615   24.2349 N   0  0  0  0  0  0
  -23.4057  -30.4944   21.5526 C   0  0  2  0  0  0
  -24.8484  -28.9539   20.1225 C   0  0  0  0  0  0
  -22.7411  -29.4690   22.4989 C   0  0  0  0  0  0
  -18.0308  -28.1394   22.8506 C   0  0  0  0  0  0
  -24.1480  -36.7311   23.2630 C   0  0  0  0  0  0
  -25.9358  -30.8295   21.3704 C   0  0  0  0  0  0
  -26.0089  -29.4693   20.7073 C   0  0  0  0  0  0
  -27.2067  -28.7217   20.6746 C   0  0  0  0  0  0
  -26.0487  -26.9223   19.5186 C   0  0  0  0  0  0
  -24.8590  -27.6783   19.5301 C   0  0  0  0  0  0
  -23.6161  -29.8280   20.1680 C   0  0  0  0  0  0
  -25.4100  -36.3118   24.0341 C   0  0  1  0  0  0
  -20.5886  -28.3692   23.1278 C   0  0  2  0  0  0
  -20.6791  -26.9424   22.5387 C   0  0  0  0  0  0
  -19.5760  -26.6401   21.5193 C   0  0  0  0  0  0
  -18.1946  -26.7948   22.1613 C   0  0  0  0  0  0
  -19.1558  -28.8859   23.2898 C   0  0  0  0  0  0
  -18.9477  -30.1459   23.8920 C   0  0  0  0  0  0
  -17.6473  -30.6594   24.0577 C   0  0  0  0  0  0
  -25.9044  -34.9476   23.5140 C   0  0  0  0  0  0
  -16.5368  -29.9092   23.6338 C   0  0  0  0  0  0
  -16.7295  -28.6515   23.0356 C   0  0  0  0  0  0
  -26.4499  -31.6624   25.0776 C   0  0  0  0  0  0
  -25.3783  -31.3744   26.1544 C   0  0  0  0  0  0
  -27.0336  -30.3057   24.6204 C   0  0  0  0  0  0
  -27.6079  -32.4364   25.7528 C   0  0  0  0  0  0
  -27.5587  -37.1814   24.8468 C   0  0  0  0  0  0
  -21.4144  -29.3059   22.3682 N   0  0  0  0  0  0
  -26.4302  -37.3791   23.9412 N   0  0  0  0  0  0
  -24.6712  -31.0791   22.1034 N   0  0  0  0  0  0
  -23.4171  -28.8236   23.3055 O   0  0  0  0  0  0
  -28.4380  -26.7507   20.0844 O   0  0  0  0  0  0
  -26.5568  -34.8917   22.4673 O   0  0  0  0  0  0
  -23.5378  -32.1442   23.7510 O   0  0  0  0  0  0
  -28.6726  -22.2902   20.2290 C   0  0  0  0  0  0
  -28.5843  -20.8823   20.2310 C   0  0  0  0  0  0
  -26.9181  -22.3903   21.9104 C   0  0  0  0  0  0
  -29.1891  -16.8656   18.3758 C   0  0  0  0  0  0
  -27.8205  -23.0573   21.0565 C   0  0  0  0  0  0
  -27.6642  -20.2141   21.0735 C   0  0  0  0  0  0
  -26.8494  -20.9825   21.9429 C   0  0  0  0  0  0
  -29.1583  -17.2282   19.7004 C   0  0  0  0  0  0
  -27.3583  -18.0998   18.6660 C   0  0  0  0  0  0
  -25.9140  -20.3271   22.9463 C   0  0  0  0  0  0
  -23.6379  -19.4605   18.6681 C   0  0  0  0  0  0
  -27.8727  -24.5842   21.1281 C   0  0  0  0  0  0
  -27.5727  -18.6843   21.0873 C   0  0  0  0  0  0
  -30.1136  -16.8297   20.7987 C   0  0  0  0  0  0
  -26.0994  -18.8446   18.2560 C   0  0  0  0  0  0
  -24.9645  -18.9944   19.2894 C   0  0  0  0  0  0
  -28.4475  -25.3265   19.9012 C   0  0  0  0  0  0
  -28.0266  -18.0221   19.8448 N   0  0  0  0  0  0
  -28.0828  -17.4055   17.7827 N   0  3  0  0  0  0
  -29.9757  -15.4070   21.1076 N   0  0  0  0  0  0
  -31.4706  -12.3594   19.1272 H   0  0  0  0  0  0
  -30.2957  -11.2618   19.8041 H   0  0  0  0  0  0
  -29.7364  -11.7913   17.4135 H   0  0  0  0  0  0
  -29.6913  -13.4915   17.7852 H   0  0  0  0  0  0
  -27.8111  -11.3228   18.7814 H   0  0  0  0  0  0
  -27.3797  -12.6808   17.7753 H   0  0  0  0  0  0
  -27.7185  -14.2522   19.5911 H   0  0  0  0  0  0
  -28.6601  -11.9362   21.3615 H   0  0  0  0  0  0
  -28.4715  -13.5728   21.8802 H   0  0  0  0  0  0
  -25.2791   -9.5680   22.4808 H   0  0  0  0  0  0
  -24.0052   -7.4562   22.7444 H   0  0  0  0  0  0
  -21.0877   -8.8684   19.8948 H   0  0  0  0  0  0
  -22.3647  -10.9657   19.6182 H   0  0  0  0  0  0
  -21.1960   -7.6170   23.9760 H   0  0  0  0  0  0
  -21.1559   -6.0534   25.9116 H   0  0  0  0  0  0
  -22.0574   -2.7619   23.2759 H   0  0  0  0  0  0
  -22.4052  -11.9893   22.4783 H   0  0  0  0  0  0
  -21.1170  -13.1373   22.2620 H   0  0  0  0  0  0
  -24.6168  -15.7855   20.2689 H   0  0  0  0  0  0
  -26.2634  -15.5601   19.9413 H   0  0  0  0  0  0
  -26.7123  -32.5504   23.1169 H   0  0  0  0  0  0
  -25.0186  -33.9781   25.0564 H   0  0  0  0  0  0
  -22.6971  -31.3137   21.4157 H   0  0  0  0  0  0
  -23.3757  -35.9638   23.3317 H   0  0  0  0  0  0
  -24.3575  -36.8900   22.2045 H   0  0  0  0  0  0
  -23.7244  -37.6520   23.6624 H   0  0  0  0  0  0
  -26.0652  -31.5989   20.6099 H   0  0  0  0  0  0
  -26.8157  -30.8618   22.0021 H   0  0  0  0  0  0
  -28.1095  -29.1247   21.1128 H   0  0  0  0  0  0
  -26.0111  -25.9424   19.0699 H   0  0  0  0  0  0
  -23.9594  -27.2641   19.0956 H   0  0  0  0  0  0
  -23.7391  -30.6060   19.4144 H   0  0  0  0  0  0
  -22.7333  -29.2635   19.8656 H   0  0  0  0  0  0
  -25.1278  -36.1975   25.0840 H   0  0  0  0  0  0
  -20.9992  -28.3263   24.1395 H   0  0  0  0  0  0
  -20.5709  -26.2297   23.3587 H   0  0  0  0  0  0
  -21.6657  -26.7470   22.1152 H   0  0  0  0  0  0
  -19.6907  -25.6318   21.1205 H   0  0  0  0  0  0
  -19.6697  -27.3212   20.6720 H   0  0  0  0  0  0
  -17.4222  -26.6720   21.4011 H   0  0  0  0  0  0
  -18.0326  -26.0092   22.9001 H   0  0  0  0  0  0
  -19.7954  -30.7277   24.2265 H   0  0  0  0  0  0
  -17.5027  -31.6286   24.5159 H   0  0  0  0  0  0
  -15.5370  -30.2986   23.7649 H   0  0  0  0  0  0
  -15.8703  -28.0842   22.7042 H   0  0  0  0  0  0
  -24.5911  -30.7126   25.7909 H   0  0  0  0  0  0
  -24.9028  -32.2902   26.5063 H   0  0  0  0  0  0
  -25.8149  -30.8872   27.0270 H   0  0  0  0  0  0
  -26.2883  -29.6808   24.1256 H   0  0  0  0  0  0
  -27.4071  -29.7317   25.4701 H   0  0  0  0  0  0
  -27.8742  -30.4365   23.9384 H   0  0  0  0  0  0
  -27.2684  -33.3625   26.2171 H   0  0  0  0  0  0
  -28.3838  -32.6997   25.0335 H   0  0  0  0  0  0
  -28.0803  -31.8473   26.5397 H   0  0  0  0  0  0
  -28.2618  -38.0095   24.7500 H   0  0  0  0  0  0
  -28.1069  -36.2636   24.6302 H   0  0  0  0  0  0
  -27.2306  -37.1474   25.8869 H   0  0  0  0  0  0
  -20.9324  -29.8768   21.6880 H   0  0  0  0  0  0
  -26.0198  -38.2869   24.1409 H   0  0  0  0  0  0
  -29.4198  -22.7631   19.6059 H   0  0  0  0  0  0
  -29.2486  -20.3210   19.5879 H   0  0  0  0  0  0
  -26.2914  -22.9755   22.5700 H   0  0  0  0  0  0
  -29.8962  -16.2550   17.8327 H   0  0  0  0  0  0
  -25.3295  -21.0674   23.4924 H   0  0  0  0  0  0
  -26.4884  -19.7509   23.6733 H   0  0  0  0  0  0
  -25.2001  -19.6585   22.4639 H   0  0  0  0  0  0
  -22.8873  -19.6473   19.4409 H   0  0  0  0  0  0
  -23.2357  -18.7099   17.9841 H   0  0  0  0  0  0
  -23.7755  -20.3898   18.1112 H   0  0  0  0  0  0
  -28.4531  -24.8535   22.0135 H   0  0  0  0  0  0
  -26.8599  -24.9408   21.3145 H   0  0  0  0  0  0
  -26.5667  -18.3287   21.2942 H   0  0  0  0  0  0
  -28.1559  -18.3408   21.9354 H   0  0  0  0  0  0
  -29.9518  -17.3916   21.7108 H   0  0  0  0  0  0
  -31.1319  -17.0825   20.4992 H   0  0  0  0  0  0
  -25.7047  -18.2990   17.3947 H   0  0  0  0  0  0
  -26.4111  -19.8276   17.8941 H   0  0  0  0  0  0
  -24.7990  -18.0528   19.8125 H   0  0  0  0  0  0
  -25.2448  -19.7312   20.0381 H   0  0  0  0  0  0
  -27.9570  -25.0386   18.9719 H   0  0  0  0  0  0
  -29.4920  -25.0377   19.7848 H   0  0  0  0  0  0
  -27.8451  -17.2908   16.8026 H   0  0  0  0  0  0
  -29.1137  -15.1234   21.5449 H   0  0  0  0  0  0
  1 25  1  0  0  0
  1 30  2  0  0  0
  1 90  1  0  0  0
  2  3  1  0  0  0
  2 25  1  0  0  0
  2 91  1  0  0  0
  2 92  1  0  0  0
  3  4  1  0  0  0
  3 93  1  0  0  0
  3 94  1  0  0  0
  4  5  1  0  0  0
  4 95  1  0  0  0
  4 96  1  0  0  0
  5  6  1  0  0  0
  5 26  1  0  0  0
  5 97  1  0  0  0
  6 25  1  0  0  0
  6 98  1  0  0  0
  6 99  1  0  0  0
  7  8  2  0  0  0
  7 26  1  0  0  0
  7 29  1  0  0  0
  8  9  1  0  0  0
  8 22  1  0  0  0
  9 10  1  0  0  0
  9 27  2  0  0  0
 10 11  2  0  0  0
 10 15  1  0  0  0
 11 12  1  0  0  0
 11100  1  0  0  0
 12 13  2  0  0  0
 12101  1  0  0  0
 13 14  1  0  0  0
 13 31  1  0  0  0
 14 15  2  0  0  0
 14102  1  0  0  0
 15103  1  0  0  0
 16 17  2  0  0  0
 16 21  1  0  0  0
 16 31  1  0  0  0
 17 18  1  0  0  0
 17104  1  0  0  0
 18 19  2  0  0  0
 18105  1  0  0  0
 19 20  1  0  0  0
 19 24  1  0  0  0
 20 21  2  0  0  0
 20106  1  0  0  0
 21 23  1  0  0  0
 22 28  1  0  0  0
 22 32  2  0  0  0
 26 27  1  0  0  0
 28107  1  0  0  0
 28108  1  0  0  0
 29109  1  0  0  0
 29110  1  0  0  0
 33 34  1  0  0  0
 33 66  1  0  0  0
 33 70  2  0  0  0
 34 36  1  0  0  0
 34 59  1  0  0  0
 34111  1  0  0  0
 35 44  2  0  0  0
 35 45  1  0  0  0
 35 68  1  0  0  0
 36 56  1  0  0  0
 36112  1  0  0  0
 37 39  1  0  0  0
 37 47  1  0  0  0
 37 66  1  0  0  0
 37113  1  0  0  0
 38 43  2  0  0  0
 38 46  1  0  0  0
 38 47  1  0  0  0
 39 64  1  0  0  0
 39 67  2  0  0  0
 40 52  1  0  0  0
 40 53  2  0  0  0
 40 58  1  0  0  0
 41114  1  0  0  0
 41115  1  0  0  0
 41116  1  0  0  0
 41 48  1  0  0  0
 42 43  1  0  0  0
 42 66  1  0  0  0
 42117  1  0  0  0
 42118  1  0  0  0
 43 44  1  0  0  0
 44119  1  0  0  0
 45 46  2  0  0  0
 45120  1  0  0  0
 46121  1  0  0  0
 47122  1  0  0  0
 47123  1  0  0  0
 48 56  1  0  0  0
 48 65  1  0  0  0
 48124  1  0  0  0
 49 50  1  0  0  0
 49 53  1  0  0  0
 49 64  1  0  0  0
 49125  1  0  0  0
 50 51  1  0  0  0
 50126  1  0  0  0
 50127  1  0  0  0
 51 52  1  0  0  0
 51128  1  0  0  0
 51129  1  0  0  0
 52130  1  0  0  0
 52131  1  0  0  0
 53 54  1  0  0  0
 54 55  2  0  0  0
 54132  1  0  0  0
 55 57  1  0  0  0
 55133  1  0  0  0
 56 69  2  0  0  0
 57 58  2  0  0  0
 57134  1  0  0  0
 58135  1  0  0  0
 59 60  1  0  0  0
 59 61  1  0  0  0
 59 62  1  0  0  0
 60136  1  0  0  0
 60137  1  0  0  0
 60138  1  0  0  0
 61139  1  0  0  0
 61140  1  0  0  0
 61141  1  0  0  0
 62142  1  0  0  0
 62143  1  0  0  0
 62144  1  0  0  0
 63 65  1  0  0  0
 63145  1  0  0  0
 63146  1  0  0  0
 63147  1  0  0  0
 64148  1  0  0  0
 65149  1  0  0  0
 68 87  1  0  0  0
 71 72  2  0  0  0
 71 75  1  0  0  0
 71150  1  0  0  0
 72 76  1  0  0  0
 72151  1  0  0  0
 73 75  2  0  0  0
 73 77  1  0  0  0
 73152  1  0  0  0
 74 78  2  0  0  0
 74 89  1  0  0  0
 74153  1  0  0  0
 75 82  1  0  0  0
 76 77  2  0  0  0
 76 83  1  0  0  0
 77 80  1  0  0  0
 78 84  1  0  0  0
 78 88  1  0  0  0
 79 85  1  0  0  0
 79 88  1  0  0  0
 79 89  2  0  0  0
 80154  1  0  0  0
 80155  1  0  0  0
 80156  1  0  0  0
 81 86  1  0  0  0
 81157  1  0  0  0
 81158  1  0  0  0
 81159  1  0  0  0
 82 87  1  0  0  0
 82160  1  0  0  0
 82161  1  0  0  0
 83 88  1  0  0  0
 83162  1  0  0  0
 83163  1  0  0  0
 84 90  1  0  0  0
 84164  1  0  0  0
 84165  1  0  0  0
 85 86  1  0  0  0
 85166  1  0  0  0
 85167  1  0  0  0
 86168  1  0  0  0
 86169  1  0  0  0
 87170  1  0  0  0
 87171  1  0  0  0
 89172  1  0  0  0
 90173  1  0  0  0
M  CHG  1  89   1
M  ISO  4   1 100  68 101  87 101  90 100
M  END
> <chiral flag>
0

> <version>
0

> <s_m_source_file>
/data/baiqing/PycharmProjects/Reinvent-master-3.2/result/LINK_invent/BTK/process_docking_weight1_custom_sum_contain_oxygen_bond_distance_aromatic_linkinvent_7_9_3/rearranged_h_0119.sdf

> <i_m_source_file_index>
22

> <r_mmod_Potential_Energy-OPLS-2005>
-150.654006958008

> <r_mmod_Stretch_Energy-OPLS-2005>
39.4027824401855

> <r_mmod_Bend_Energy-OPLS-2005>
109.062423706055

> <r_mmod_Torsional_Energy-OPLS-2005>
211.086029052734

> <r_mmod_Improper_Torsional_Energy-OPLS-2005>
7.50368118286133

> <r_mmod_Van_der_Waal_Energy-OPLS-2005>
140.357223510742

> <r_mmod_Electrostatic_Energy-OPLS-2005>
-244.399337768555

> <r_mmod_Solvation_Energy-OPLS-2005>
-424.52294921875

> <b_mmod_Minimization_Converged-OPLS-2005>
0

> <r_mmod_RMS_Derivative-OPLS-2005>
5.70319509506226

$$$$
22
                    3D
 Structure written by MMmdl.
160168  0  0  1  0            999 V2000
  -30.5264  -15.0107   20.3792 C   0  0  0  0  0  0
  -30.4393  -12.6285   19.4898 C   0  0  0  0  0  0
  -29.5272  -12.5597   18.2440 C   0  0  0  0  0  0
  -28.0599  -12.3282   18.6568 C   0  0  0  0  0  0
  -27.6266  -13.2512   19.8269 C   0  0  2  0  0  0
  -28.6715  -13.3101   20.9586 C   0  0  0  0  0  0
  -25.2485  -13.8216   20.5705 C   0  0  0  0  0  0
  -24.1785  -13.0423   20.9206 C   0  0  0  0  0  0
  -24.6400  -11.6930   20.8703 C   0  0  0  0  0  0
  -23.9068  -10.4291   21.0381 C   0  0  0  0  0  0
  -24.3629   -9.4219   21.9162 C   0  0  0  0  0  0
  -23.6304   -8.2254   22.0765 C   0  0  0  0  0  0
  -22.4293   -8.0278   21.3553 C   0  0  0  0  0  0
  -21.9911   -9.0243   20.4656 C   0  0  0  0  0  0
  -22.7235  -10.2127   20.3047 C   0  0  0  0  0  0
  -21.6848   -6.0724   22.5280 C   0  0  0  0  0  0
  -21.4006   -6.5631   23.8216 C   0  0  0  0  0  0
  -21.3661   -5.6788   24.9185 C   0  0  0  0  0  0
  -21.6050   -4.3058   24.7244 C   0  0  0  0  0  0
  -21.8815   -3.8143   23.4368 C   0  0  0  0  0  0
  -21.9191   -4.6948   22.3418 C   0  0  0  0  0  0
  -22.7809  -13.5221   21.1849 C   0  0  0  0  0  0
  -22.1667   -4.2155   21.0994 F   0  0  0  0  0  0
  -21.5650   -3.4539   25.7750 F   0  0  0  0  0  0
  -29.9314  -13.7427   20.3412 N   0  0  0  0  0  0
  -26.2880  -12.9419   20.3172 N   0  0  0  0  0  0
  -25.9331  -11.6555   20.5668 N   0  0  0  0  0  0
  -22.0428  -12.8218   22.0396 N   0  0  0  0  0  0
  -25.4138  -15.1955   20.4200 N   0  0  0  0  0  0
  -31.7478  -15.0485   20.1968 O   0  0  0  0  0  0
  -21.6657   -6.8880   21.4255 O   0  0  0  0  0  0
  -22.3478  -14.5494   20.6670 O   0  0  0  0  0  0
  -24.6524  -31.8377   23.1833 C   0  0  0  0  0  0
  -25.9252  -32.4672   23.8263 C   0  0  1  0  0  0
  -27.2052  -27.0803   20.1585 C   0  0  0  0  0  0
  -25.5993  -33.8490   24.2162 N   0  0  0  0  0  0
  -23.4554  -30.4548   21.5322 C   0  0  2  0  0  0
  -24.9001  -28.8668   20.1202 C   0  0  0  0  0  0
  -22.7603  -29.4503   22.4857 C   0  0  0  0  0  0
  -18.0318  -28.1361   22.8469 C   0  0  0  0  0  0
  -24.1495  -36.7257   23.2633 C   0  0  0  0  0  0
  -26.0180  -30.6937   21.3888 C   0  0  0  0  0  0
  -26.0834  -29.3001   20.7307 C   0  0  0  0  0  0
  -27.2402  -28.4259   20.7245 C   0  0  0  0  0  0
  -25.9938  -26.7547   19.5201 C   0  0  0  0  0  0
  -24.8691  -27.6071   19.4991 C   0  0  0  0  0  0
  -23.6834  -29.7770   20.1549 C   0  0  0  0  0  0
  -25.4128  -36.3016   24.0301 C   0  0  1  0  0  0
  -20.5929  -28.3699   23.1222 C   0  0  2  0  0  0
  -20.6786  -26.9394   22.5403 C   0  0  0  0  0  0
  -19.5766  -26.6332   21.5207 C   0  0  0  0  0  0
  -18.1949  -26.7901   22.1608 C   0  0  0  0  0  0
  -19.1569  -28.8853   23.2830 C   0  0  0  0  0  0
  -18.9483  -30.1458   23.8846 C   0  0  0  0  0  0
  -17.6473  -30.6564   24.0529 C   0  0  0  0  0  0
  -25.9088  -34.9406   23.5024 C   0  0  0  0  0  0
  -16.5362  -29.9046   23.6329 C   0  0  0  0  0  0
  -16.7301  -28.6460   23.0356 C   0  0  0  0  0  0
  -26.4514  -31.6589   25.0762 C   0  0  0  0  0  0
  -25.3681  -31.3852   26.1453 C   0  0  0  0  0  0
  -27.0372  -30.2956   24.6442 C   0  0  0  0  0  0
  -27.6021  -32.4386   25.7582 C   0  0  0  0  0  0
  -27.5576  -37.1792   24.8444 C   0  0  0  0  0  0
  -21.4290  -29.3026   22.3605 N   0  0  0  0  0  0
  -26.4279  -37.3740   23.9395 N   0  0  0  0  0  0
  -24.7291  -31.0184   22.0887 N   0  0  0  0  0  0
  -23.4224  -28.8053   23.3023 O   0  0  0  0  0  0
  -28.2528  -26.0785   20.1631 O   0  0  0  0  0  0
  -26.5672  -34.8905   22.4600 O   0  0  0  0  0  0
  -23.5628  -32.1267   23.7025 O   0  0  0  0  0  0
  -29.1873  -20.4891   20.5704 C   0  0  0  0  0  0
  -29.1924  -20.8200   18.4446 C   0  0  0  0  0  0
  -28.9972  -21.5980   19.5746 C   0  0  0  0  0  0
  -29.5282  -19.1883   20.0481 C   0  0  0  0  0  0
  -28.3801  -23.6295   17.9916 C   0  0  0  0  0  0
  -31.3139  -18.6255   17.1975 C   0  0  0  0  0  0
  -28.8934  -18.5634   16.4182 C   0  0  0  0  0  0
  -30.1403  -17.7487   20.6502 C   0  0  0  0  0  0
  -28.0348  -24.5168   20.3465 C   0  0  0  0  0  0
  -28.8199  -23.3041   19.4486 C   0  0  1  0  0  0
  -29.8434  -18.4923   17.6270 C   0  0  0  0  0  0
  -29.4996  -19.4594   18.6809 N   0  0  0  0  0  0
  -29.7515  -16.2194   20.4149 N   0  0  0  0  0  0
  -31.4778  -12.7857   19.1933 H   0  0  0  0  0  0
  -30.4277  -11.6814   20.0319 H   0  0  0  0  0  0
  -29.8610  -11.7794   17.5583 H   0  0  0  0  0  0
  -29.6111  -13.5015   17.6988 H   0  0  0  0  0  0
  -27.9508  -11.2798   18.9402 H   0  0  0  0  0  0
  -27.4115  -12.4833   17.7931 H   0  0  0  0  0  0
  -27.5761  -14.2484   19.3884 H   0  0  0  0  0  0
  -28.7812  -12.3373   21.4455 H   0  0  0  0  0  0
  -28.3598  -14.0161   21.7305 H   0  0  0  0  0  0
  -25.2786   -9.5719   22.4727 H   0  0  0  0  0  0
  -24.0021   -7.4646   22.7493 H   0  0  0  0  0  0
  -21.0844   -8.8744   19.8962 H   0  0  0  0  0  0
  -22.3674  -10.9650   19.6164 H   0  0  0  0  0  0
  -21.1978   -7.6146   23.9734 H   0  0  0  0  0  0
  -21.1492   -6.0519   25.9085 H   0  0  0  0  0  0
  -22.0590   -2.7606   23.2883 H   0  0  0  0  0  0
  -22.4036  -11.9905   22.4839 H   0  0  0  0  0  0
  -21.1054  -13.1290   22.2572 H   0  0  0  0  0  0
  -24.6421  -15.8450   20.5342 H   0  0  0  0  0  0
  -26.2524  -15.6419   20.0720 H   0  0  0  0  0  0
  -26.7355  -32.5228   23.1023 H   0  0  0  0  0  0
  -25.0145  -33.9607   25.0317 H   0  0  0  0  0  0
  -22.7631  -31.2832   21.3699 H   0  0  0  0  0  0
  -23.3764  -35.9575   23.3246 H   0  0  0  0  0  0
  -24.3561  -36.8950   22.2053 H   0  0  0  0  0  0
  -23.7260  -37.6442   23.6710 H   0  0  0  0  0  0
  -26.1865  -31.4458   20.6163 H   0  0  0  0  0  0
  -26.8854  -30.7393   22.0364 H   0  0  0  0  0  0
  -28.1477  -28.7590   21.2099 H   0  0  0  0  0  0
  -25.8984  -25.7893   19.0435 H   0  0  0  0  0  0
  -23.9653  -27.2599   19.0158 H   0  0  0  0  0  0
  -23.8344  -30.5459   19.3979 H   0  0  0  0  0  0
  -22.7979  -29.2239   19.8368 H   0  0  0  0  0  0
  -25.1326  -36.1815   25.0800 H   0  0  0  0  0  0
  -21.0024  -28.3275   24.1332 H   0  0  0  0  0  0
  -20.5642  -26.2319   23.3623 H   0  0  0  0  0  0
  -21.6656  -26.7357   22.1221 H   0  0  0  0  0  0
  -19.6918  -25.6222   21.1280 H   0  0  0  0  0  0
  -19.6712  -27.3103   20.6703 H   0  0  0  0  0  0
  -17.4223  -26.6668   21.4002 H   0  0  0  0  0  0
  -18.0329  -26.0035   22.8995 H   0  0  0  0  0  0
  -19.7949  -30.7290   24.2185 H   0  0  0  0  0  0
  -17.5010  -31.6234   24.5124 H   0  0  0  0  0  0
  -15.5355  -30.2918   23.7648 H   0  0  0  0  0  0
  -15.8707  -28.0738   22.7107 H   0  0  0  0  0  0
  -24.5836  -30.7209   25.7790 H   0  0  0  0  0  0
  -24.8902  -32.3079   26.4781 H   0  0  0  0  0  0
  -25.7950  -30.9096   27.0297 H   0  0  0  0  0  0
  -26.3007  -29.6704   24.1383 H   0  0  0  0  0  0
  -27.3815  -29.7256   25.5084 H   0  0  0  0  0  0
  -27.8994  -30.4111   23.9870 H   0  0  0  0  0  0
  -27.2553  -33.3676   26.2121 H   0  0  0  0  0  0
  -28.3882  -32.6986   25.0485 H   0  0  0  0  0  0
  -28.0638  -31.8563   26.5564 H   0  0  0  0  0  0
  -28.2569  -38.0115   24.7509 H   0  0  0  0  0  0
  -28.1110  -36.2649   24.6247 H   0  0  0  0  0  0
  -27.2294  -37.1410   25.8848 H   0  0  0  0  0  0
  -20.9513  -29.8793   21.6830 H   0  0  0  0  0  0
  -26.0131  -38.2797   24.1414 H   0  0  0  0  0  0
  -29.1600  -20.6581   21.6387 H   0  0  0  0  0  0
  -29.1993  -21.1477   17.4148 H   0  0  0  0  0  0
  -29.1731  -23.4391   17.2651 H   0  0  0  0  0  0
  -28.1062  -24.6800   17.8621 H   0  0  0  0  0  0
  -27.5008  -23.0529   17.6897 H   0  0  0  0  0  0
  -31.9862  -18.4335   18.0306 H   0  0  0  0  0  0
  -31.5346  -19.6190   16.8163 H   0  0  0  0  0  0
  -31.5634  -17.9057   16.4172 H   0  0  0  0  0  0
  -29.1382  -17.7929   15.6853 H   0  0  0  0  0  0
  -28.9462  -19.5181   15.8966 H   0  0  0  0  0  0
  -27.8619  -18.4002   16.7283 H   0  0  0  0  0  0
  -30.1067  -17.8513   21.7357 H   0  0  0  0  0  0
  -31.2059  -17.7670   20.4169 H   0  0  0  0  0  0
  -28.2795  -24.3276   21.3921 H   0  0  0  0  0  0
  -26.9680  -24.3015   20.2990 H   0  0  0  0  0  0
  -29.8606  -23.6241   19.5265 H   0  0  0  0  0  0
  -29.7183  -17.4920   18.0394 H   0  0  0  0  0  0
  -28.7581  -16.0581   20.4537 H   0  0  0  0  0  0
  1 25  1  0  0  0
  1 30  2  0  0  0
  1 83  1  0  0  0
  2  3  1  0  0  0
  2 25  1  0  0  0
  2 84  1  0  0  0
  2 85  1  0  0  0
  3  4  1  0  0  0
  3 86  1  0  0  0
  3 87  1  0  0  0
  4  5  1  0  0  0
  4 88  1  0  0  0
  4 89  1  0  0  0
  5  6  1  0  0  0
  5 26  1  0  0  0
  5 90  1  0  0  0
  6 25  1  0  0  0
  6 91  1  0  0  0
  6 92  1  0  0  0
  7  8  2  0  0  0
  7 26  1  0  0  0
  7 29  1  0  0  0
  8  9  1  0  0  0
  8 22  1  0  0  0
  9 10  1  0  0  0
  9 27  2  0  0  0
 10 11  2  0  0  0
 10 15  1  0  0  0
 11 12  1  0  0  0
 11 93  1  0  0  0
 12 13  2  0  0  0
 12 94  1  0  0  0
 13 14  1  0  0  0
 13 31  1  0  0  0
 14 15  2  0  0  0
 14 95  1  0  0  0
 15 96  1  0  0  0
 16 17  2  0  0  0
 16 21  1  0  0  0
 16 31  1  0  0  0
 17 18  1  0  0  0
 17 97  1  0  0  0
 18 19  2  0  0  0
 18 98  1  0  0  0
 19 20  1  0  0  0
 19 24  1  0  0  0
 20 21  2  0  0  0
 20 99  1  0  0  0
 21 23  1  0  0  0
 22 28  1  0  0  0
 22 32  2  0  0  0
 26 27  1  0  0  0
 28100  1  0  0  0
 28101  1  0  0  0
 29102  1  0  0  0
 29103  1  0  0  0
 33 34  1  0  0  0
 33 66  1  0  0  0
 33 70  2  0  0  0
 34 36  1  0  0  0
 34 59  1  0  0  0
 34104  1  0  0  0
 35 44  2  0  0  0
 35 45  1  0  0  0
 35 68  1  0  0  0
 36 56  1  0  0  0
 36105  1  0  0  0
 37 39  1  0  0  0
 37 47  1  0  0  0
 37 66  1  0  0  0
 37106  1  0  0  0
 38 43  2  0  0  0
 38 46  1  0  0  0
 38 47  1  0  0  0
 39 64  1  0  0  0
 39 67  2  0  0  0
 40 52  1  0  0  0
 40 53  2  0  0  0
 40 58  1  0  0  0
 41107  1  0  0  0
 41108  1  0  0  0
 41109  1  0  0  0
 41 48  1  0  0  0
 42 43  1  0  0  0
 42 66  1  0  0  0
 42110  1  0  0  0
 42111  1  0  0  0
 43 44  1  0  0  0
 44112  1  0  0  0
 45 46  2  0  0  0
 45113  1  0  0  0
 46114  1  0  0  0
 47115  1  0  0  0
 47116  1  0  0  0
 48 56  1  0  0  0
 48 65  1  0  0  0
 48117  1  0  0  0
 49 50  1  0  0  0
 49 53  1  0  0  0
 49 64  1  0  0  0
 49118  1  0  0  0
 50 51  1  0  0  0
 50119  1  0  0  0
 50120  1  0  0  0
 51 52  1  0  0  0
 51121  1  0  0  0
 51122  1  0  0  0
 52123  1  0  0  0
 52124  1  0  0  0
 53 54  1  0  0  0
 54 55  2  0  0  0
 54125  1  0  0  0
 55 57  1  0  0  0
 55126  1  0  0  0
 56 69  2  0  0  0
 57 58  2  0  0  0
 57127  1  0  0  0
 58128  1  0  0  0
 59 60  1  0  0  0
 59 61  1  0  0  0
 59 62  1  0  0  0
 60129  1  0  0  0
 60130  1  0  0  0
 60131  1  0  0  0
 61132  1  0  0  0
 61133  1  0  0  0
 61134  1  0  0  0
 62135  1  0  0  0
 62136  1  0  0  0
 62137  1  0  0  0
 63 65  1  0  0  0
 63138  1  0  0  0
 63139  1  0  0  0
 63140  1  0  0  0
 64141  1  0  0  0
 65142  1  0  0  0
 68 79  1  0  0  0
 71 73  1  0  0  0
 71 74  2  0  0  0
 71143  1  0  0  0
 72 73  2  0  0  0
 72 82  1  0  0  0
 72144  1  0  0  0
 73 80  1  0  0  0
 74 78  1  0  0  0
 74 82  1  0  0  0
 75145  1  0  0  0
 75146  1  0  0  0
 75147  1  0  0  0
 75 80  1  0  0  0
 76148  1  0  0  0
 76149  1  0  0  0
 76150  1  0  0  0
 76 81  1  0  0  0
 77 81  1  0  0  0
 77151  1  0  0  0
 77152  1  0  0  0
 77153  1  0  0  0
 78 83  1  0  0  0
 78154  1  0  0  0
 78155  1  0  0  0
 79 80  1  0  0  0
 79156  1  0  0  0
 79157  1  0  0  0
 80158  1  0  0  0
 81 82  1  0  0  0
 81159  1  0  0  0
 83160  1  0  0  0
M  ISO  4   1 100  68 101  79 101  83 100
M  END
> <chiral flag>
0

> <version>
0

> <s_m_source_file>
/data/baiqing/PycharmProjects/Reinvent-master-3.2/result/LINK_invent/BTK/process_docking_weight1_custom_sum_contain_oxygen_bond_distance_aromatic_linkinvent_7_9_3/rearranged_h_0119.sdf

> <i_m_source_file_index>
23

> <r_mmod_Potential_Energy-OPLS-2005>
641.764404296875

> <r_mmod_Stretch_Energy-OPLS-2005>
325.745727539062

> <r_mmod_Bend_Energy-OPLS-2005>
343.281372070312

> <r_mmod_Torsional_Energy-OPLS-2005>
254.475982666016

> <r_mmod_Improper_Torsional_Energy-OPLS-2005>
6.98159646987915

> <r_mmod_Van_der_Waal_Energy-OPLS-2005>
108.641242980957

> <r_mmod_Electrostatic_Energy-OPLS-2005>
-431.981231689453

> <r_mmod_Solvation_Energy-OPLS-2005>
-205.339752197266

> <b_mmod_Minimization_Converged-OPLS-2005>
0

> <r_mmod_RMS_Derivative-OPLS-2005>
4.7935962677002

$$$$
23
                    3D
 Structure written by MMmdl.
171180  0  0  1  0            999 V2000
  -30.8447  -14.3422   20.7445 C   0  0  0  0  0  0
  -30.4164  -12.3063   19.4116 C   0  0  0  0  0  0
  -29.4871  -12.5436   18.2108 C   0  0  0  0  0  0
  -28.0186  -12.3759   18.6286 C   0  0  0  0  0  0
  -27.6692  -13.2176   19.8808 C   0  0  2  0  0  0
  -28.7138  -13.0067   21.0058 C   0  0  0  0  0  0
  -25.2577  -13.8196   20.5708 C   0  0  0  0  0  0
  -24.1821  -13.0466   20.9139 C   0  0  0  0  0  0
  -24.6403  -11.6935   20.8657 C   0  0  0  0  0  0
  -23.9099  -10.4308   21.0313 C   0  0  0  0  0  0
  -24.3725   -9.4183   21.8998 C   0  0  0  0  0  0
  -23.6368   -8.2249   22.0639 C   0  0  0  0  0  0
  -22.4263   -8.0330   21.3561 C   0  0  0  0  0  0
  -21.9842   -9.0334   20.4725 C   0  0  0  0  0  0
  -22.7190  -10.2187   20.3090 C   0  0  0  0  0  0
  -21.6870   -6.0772   22.5320 C   0  0  0  0  0  0
  -21.4059   -6.5673   23.8268 C   0  0  0  0  0  0
  -21.3641   -5.6797   24.9215 C   0  0  0  0  0  0
  -21.6035   -4.3072   24.7245 C   0  0  0  0  0  0
  -21.8805   -3.8167   23.4365 C   0  0  0  0  0  0
  -21.9186   -4.6996   22.3421 C   0  0  0  0  0  0
  -22.7822  -13.5240   21.1768 C   0  0  0  0  0  0
  -22.1629   -4.2187   21.0992 F   0  0  0  0  0  0
  -21.5583   -3.4554   25.7747 F   0  0  0  0  0  0
  -30.0744  -13.2445   20.4953 N   0  0  0  0  0  0
  -26.3067  -12.9408   20.3412 N   0  0  0  0  0  0
  -25.9353  -11.6550   20.5748 N   0  0  0  0  0  0
  -22.0403  -12.8176   22.0235 N   0  0  0  0  0  0
  -25.4251  -15.1934   20.4153 N   0  0  0  0  0  0
  -31.6823  -14.7452   19.9290 O   0  0  0  0  0  0
  -21.6655   -6.8917   21.4266 O   0  0  0  0  0  0
  -22.3540  -14.5574   20.6646 O   0  0  0  0  0  0
  -24.6184  -31.8674   23.2135 C   0  0  0  0  0  0
  -25.9066  -32.4824   23.8414 C   0  0  1  0  0  0
  -27.2258  -27.4222   20.0781 C   0  0  0  0  0  0
  -25.5937  -33.8624   24.2355 N   0  0  0  0  0  0
  -23.4076  -30.4952   21.5537 C   0  0  2  0  0  0
  -24.8496  -28.9660   20.1158 C   0  0  0  0  0  0
  -22.7436  -29.4671   22.5002 C   0  0  0  0  0  0
  -18.0276  -28.1385   22.8482 C   0  0  0  0  0  0
  -24.1498  -36.7306   23.2645 C   0  0  0  0  0  0
  -25.9426  -30.8297   21.3692 C   0  0  0  0  0  0
  -26.0155  -29.4654   20.7096 C   0  0  0  0  0  0
  -27.2085  -28.7031   20.6827 C   0  0  0  0  0  0
  -26.0325  -26.9432   19.4853 C   0  0  0  0  0  0
  -24.8562  -27.7082   19.4998 C   0  0  0  0  0  0
  -23.6151  -29.8358   20.1662 C   0  0  0  0  0  0
  -25.4120  -36.3115   24.0353 C   0  0  1  0  0  0
  -20.5868  -28.3668   23.1331 C   0  0  2  0  0  0
  -20.6772  -26.9401   22.5434 C   0  0  0  0  0  0
  -19.5748  -26.6383   21.5233 C   0  0  0  0  0  0
  -18.1916  -26.7925   22.1619 C   0  0  0  0  0  0
  -19.1529  -28.8838   23.2897 C   0  0  0  0  0  0
  -18.9450  -30.1439   23.8907 C   0  0  0  0  0  0
  -17.6457  -30.6578   24.0559 C   0  0  0  0  0  0
  -25.9060  -34.9479   23.5146 C   0  0  0  0  0  0
  -16.5344  -29.9087   23.6325 C   0  0  0  0  0  0
  -16.7268  -28.6512   23.0332 C   0  0  0  0  0  0
  -26.4487  -31.6601   25.0739 C   0  0  0  0  0  0
  -25.3737  -31.3710   26.1474 C   0  0  0  0  0  0
  -27.0335  -30.3046   24.6124 C   0  0  0  0  0  0
  -27.6067  -32.4331   25.7489 C   0  0  0  0  0  0
  -27.5587  -37.1804   24.8468 C   0  0  0  0  0  0
  -21.4157  -29.3045   22.3743 N   0  0  0  0  0  0
  -26.4300  -37.3794   23.9422 N   0  0  0  0  0  0
  -24.6737  -31.0783   22.1035 N   0  0  0  0  0  0
  -23.4189  -28.8189   23.3029 O   0  0  0  0  0  0
  -28.3899  -26.6714   20.0777 O   0  0  0  0  0  0
  -26.5582  -34.8919   22.4688 O   0  0  0  0  0  0
  -23.5371  -32.1436   23.7513 O   0  0  0  0  0  0
  -29.3625  -20.6857   19.3312 C   0  0  0  0  0  0
  -29.5295  -22.0733   19.1418 C   0  0  0  0  0  0
  -28.9086  -21.1480   21.6551 C   0  0  0  0  0  0
  -29.0429  -20.2033   20.6163 C   0  0  0  0  0  0
  -29.3661  -22.9441   20.2390 C   0  0  0  0  0  0
  -28.0997  -15.4310   24.0166 C   0  0  0  0  0  0
  -28.1305  -16.7242   23.2175 C   0  0  0  0  0  0
  -29.5484  -14.9548   24.0386 C   0  0  0  0  0  0
  -29.2332  -16.5494   22.1580 C   0  0  2  0  0  0
  -30.2872  -15.6472   22.8663 C   0  0  2  0  0  0
  -32.3963  -13.1459   23.5154 C   0  0  0  0  0  0
  -28.7349  -18.7200   20.8468 C   0  0  0  0  0  0
  -29.5562  -24.4595   20.0967 C   0  0  0  0  0  0
  -29.7768  -17.9246   21.6703 C   0  0  0  0  0  0
  -32.3832  -14.3861   22.6144 C   0  0  0  0  0  0
  -28.2388  -25.2435   19.9165 C   0  0  0  0  0  0
  -29.0625  -22.4815   21.4740 N   0  0  0  0  0  0
  -31.0305  -14.6339   22.0594 N   0  0  0  0  0  0
  -31.4624  -12.3924   19.1033 H   0  0  0  0  0  0
  -30.3015  -11.2830   19.7717 H   0  0  0  0  0  0
  -29.7284  -11.8439   17.4098 H   0  0  0  0  0  0
  -29.6515  -13.5450   17.8124 H   0  0  0  0  0  0
  -27.8546  -11.3175   18.8331 H   0  0  0  0  0  0
  -27.3533  -12.6309   17.8006 H   0  0  0  0  0  0
  -27.7066  -14.2653   19.5776 H   0  0  0  0  0  0
  -28.6572  -11.9872   21.3870 H   0  0  0  0  0  0
  -28.4808  -13.6592   21.8397 H   0  0  0  0  0  0
  -25.2985   -9.5618   22.4395 H   0  0  0  0  0  0
  -24.0139   -7.4593   22.7261 H   0  0  0  0  0  0
  -21.0711   -8.8925   19.9113 H   0  0  0  0  0  0
  -22.3537  -10.9785   19.6316 H   0  0  0  0  0  0
  -21.2106   -7.6190   23.9811 H   0  0  0  0  0  0
  -21.1430   -6.0505   25.9122 H   0  0  0  0  0  0
  -22.0571   -2.7636   23.2841 H   0  0  0  0  0  0
  -22.3928  -11.9770   22.4584 H   0  0  0  0  0  0
  -21.0915  -13.1044   22.2200 H   0  0  0  0  0  0
  -24.6605  -15.8463   20.5497 H   0  0  0  0  0  0
  -26.2875  -15.6459   20.1472 H   0  0  0  0  0  0
  -26.7119  -32.5510   23.1161 H   0  0  0  0  0  0
  -25.0134  -33.9784   25.0528 H   0  0  0  0  0  0
  -22.7013  -31.3157   21.4149 H   0  0  0  0  0  0
  -23.3765  -35.9627   23.3312 H   0  0  0  0  0  0
  -24.3608  -36.8911   22.2059 H   0  0  0  0  0  0
  -23.7234  -37.6514   23.6640 H   0  0  0  0  0  0
  -26.0706  -31.6007   20.6073 H   0  0  0  0  0  0
  -26.8275  -30.8729   21.9935 H   0  0  0  0  0  0
  -28.1097  -29.0887   21.1365 H   0  0  0  0  0  0
  -25.9754  -25.9827   18.9965 H   0  0  0  0  0  0
  -23.9617  -27.3217   19.0332 H   0  0  0  0  0  0
  -23.7352  -30.6166   19.4136 H   0  0  0  0  0  0
  -22.7384  -29.2627   19.8582 H   0  0  0  0  0  0
  -25.1290  -36.1995   25.0842 H   0  0  0  0  0  0
  -20.9949  -28.3210   24.1458 H   0  0  0  0  0  0
  -20.5729  -26.2247   23.3603 H   0  0  0  0  0  0
  -21.6623  -26.7467   22.1175 H   0  0  0  0  0  0
  -19.6913  -25.6310   21.1226 H   0  0  0  0  0  0
  -19.6692  -27.3213   20.6778 H   0  0  0  0  0  0
  -17.4198  -26.6702   21.4002 H   0  0  0  0  0  0
  -18.0275  -26.0073   22.9016 H   0  0  0  0  0  0
  -19.7933  -30.7253   24.2274 H   0  0  0  0  0  0
  -17.5012  -31.6251   24.5167 H   0  0  0  0  0  0
  -15.5343  -30.2981   23.7661 H   0  0  0  0  0  0
  -15.8664  -28.0845   22.7028 H   0  0  0  0  0  0
  -24.5902  -30.7081   25.7790 H   0  0  0  0  0  0
  -24.8925  -32.2866   26.4921 H   0  0  0  0  0  0
  -25.8055  -30.8857   27.0233 H   0  0  0  0  0  0
  -26.2880  -29.6788   24.1194 H   0  0  0  0  0  0
  -27.4158  -29.7311   25.4581 H   0  0  0  0  0  0
  -27.8692  -30.4415   23.9252 H   0  0  0  0  0  0
  -27.2691  -33.3632   26.2077 H   0  0  0  0  0  0
  -28.3832  -32.6898   25.0269 H   0  0  0  0  0  0
  -28.0765  -31.8447   26.5383 H   0  0  0  0  0  0
  -28.2597  -38.0107   24.7523 H   0  0  0  0  0  0
  -28.1087  -36.2641   24.6272 H   0  0  0  0  0  0
  -27.2308  -37.1429   25.8869 H   0  0  0  0  0  0
  -20.9327  -29.8799   21.6988 H   0  0  0  0  0  0
  -26.0202  -38.2884   24.1388 H   0  0  0  0  0  0
  -29.4593  -20.0043   18.4962 H   0  0  0  0  0  0
  -29.7763  -22.4591   18.1612 H   0  0  0  0  0  0
  -28.6453  -20.8384   22.6562 H   0  0  0  0  0  0
  -27.4639  -14.6997   23.5173 H   0  0  0  0  0  0
  -27.7011  -15.5734   25.0231 H   0  0  0  0  0  0
  -28.3865  -17.5439   23.8921 H   0  0  0  0  0  0
  -27.1564  -16.9553   22.7862 H   0  0  0  0  0  0
  -29.5807  -13.8665   23.9796 H   0  0  0  0  0  0
  -30.0183  -15.2263   24.9835 H   0  0  0  0  0  0
  -28.7870  -16.0207   21.3182 H   0  0  0  0  0  0
  -30.9957  -16.3485   23.3145 H   0  0  0  0  0  0
  -33.4136  -12.8884   23.8183 H   0  0  0  0  0  0
  -31.9771  -12.2813   23.0004 H   0  0  0  0  0  0
  -31.8168  -13.3092   24.4225 H   0  0  0  0  0  0
  -28.5943  -18.2289   19.8818 H   0  0  0  0  0  0
  -27.7687  -18.6748   21.3482 H   0  0  0  0  0  0
  -30.2120  -24.6617   19.2474 H   0  0  0  0  0  0
  -30.0820  -24.8189   20.9790 H   0  0  0  0  0  0
  -30.6831  -17.7870   21.0790 H   0  0  0  0  0  0
  -30.0739  -18.5146   22.5394 H   0  0  0  0  0  0
  -33.1243  -14.2200   21.8322 H   0  0  0  0  0  0
  -32.7722  -15.2506   23.1575 H   0  0  0  0  0  0
  -27.5127  -24.8853   20.6478 H   0  0  0  0  0  0
  -27.8564  -25.0048   18.9224 H   0  0  0  0  0  0
  1 25  1  0  0  0
  1 30  2  0  0  0
  1 88  1  0  0  0
  2  3  1  0  0  0
  2 25  1  0  0  0
  2 89  1  0  0  0
  2 90  1  0  0  0
  3  4  1  0  0  0
  3 91  1  0  0  0
  3 92  1  0  0  0
  4  5  1  0  0  0
  4 93  1  0  0  0
  4 94  1  0  0  0
  5  6  1  0  0  0
  5 26  1  0  0  0
  5 95  1  0  0  0
  6 25  1  0  0  0
  6 96  1  0  0  0
  6 97  1  0  0  0
  7  8  2  0  0  0
  7 26  1  0  0  0
  7 29  1  0  0  0
  8  9  1  0  0  0
  8 22  1  0  0  0
  9 10  1  0  0  0
  9 27  2  0  0  0
 10 11  2  0  0  0
 10 15  1  0  0  0
 11 12  1  0  0  0
 11 98  1  0  0  0
 12 13  2  0  0  0
 12 99  1  0  0  0
 13 14  1  0  0  0
 13 31  1  0  0  0
 14 15  2  0  0  0
 14100  1  0  0  0
 15101  1  0  0  0
 16 17  2  0  0  0
 16 21  1  0  0  0
 16 31  1  0  0  0
 17 18  1  0  0  0
 17102  1  0  0  0
 18 19  2  0  0  0
 18103  1  0  0  0
 19 20  1  0  0  0
 19 24  1  0  0  0
 20 21  2  0  0  0
 20104  1  0  0  0
 21 23  1  0  0  0
 22 28  1  0  0  0
 22 32  2  0  0  0
 26 27  1  0  0  0
 28105  1  0  0  0
 28106  1  0  0  0
 29107  1  0  0  0
 29108  1  0  0  0
 33 34  1  0  0  0
 33 66  1  0  0  0
 33 70  2  0  0  0
 34 36  1  0  0  0
 34 59  1  0  0  0
 34109  1  0  0  0
 35 44  2  0  0  0
 35 45  1  0  0  0
 35 68  1  0  0  0
 36 56  1  0  0  0
 36110  1  0  0  0
 37 39  1  0  0  0
 37 47  1  0  0  0
 37 66  1  0  0  0
 37111  1  0  0  0
 38 43  2  0  0  0
 38 46  1  0  0  0
 38 47  1  0  0  0
 39 64  1  0  0  0
 39 67  2  0  0  0
 40 52  1  0  0  0
 40 53  2  0  0  0
 40 58  1  0  0  0
 41112  1  0  0  0
 41113  1  0  0  0
 41114  1  0  0  0
 41 48  1  0  0  0
 42 43  1  0  0  0
 42 66  1  0  0  0
 42115  1  0  0  0
 42116  1  0  0  0
 43 44  1  0  0  0
 44117  1  0  0  0
 45 46  2  0  0  0
 45118  1  0  0  0
 46119  1  0  0  0
 47120  1  0  0  0
 47121  1  0  0  0
 48 56  1  0  0  0
 48 65  1  0  0  0
 48122  1  0  0  0
 49 50  1  0  0  0
 49 53  1  0  0  0
 49 64  1  0  0  0
 49123  1  0  0  0
 50 51  1  0  0  0
 50124  1  0  0  0
 50125  1  0  0  0
 51 52  1  0  0  0
 51126  1  0  0  0
 51127  1  0  0  0
 52128  1  0  0  0
 52129  1  0  0  0
 53 54  1  0  0  0
 54 55  2  0  0  0
 54130  1  0  0  0
 55 57  1  0  0  0
 55131  1  0  0  0
 56 69  2  0  0  0
 57 58  2  0  0  0
 57132  1  0  0  0
 58133  1  0  0  0
 59 60  1  0  0  0
 59 61  1  0  0  0
 59 62  1  0  0  0
 60134  1  0  0  0
 60135  1  0  0  0
 60136  1  0  0  0
 61137  1  0  0  0
 61138  1  0  0  0
 61139  1  0  0  0
 62140  1  0  0  0
 62141  1  0  0  0
 62142  1  0  0  0
 63 65  1  0  0  0
 63143  1  0  0  0
 63144  1  0  0  0
 63145  1  0  0  0
 64146  1  0  0  0
 65147  1  0  0  0
 68 86  1  0  0  0
 71 72  2  0  0  0
 71 74  1  0  0  0
 71148  1  0  0  0
 72 75  1  0  0  0
 72149  1  0  0  0
 73 74  2  0  0  0
 73 87  1  0  0  0
 73150  1  0  0  0
 74 82  1  0  0  0
 75 83  1  0  0  0
 75 87  2  0  0  0
 76 77  1  0  0  0
 76 78  1  0  0  0
 76151  1  0  0  0
 76152  1  0  0  0
 77 79  1  0  0  0
 77153  1  0  0  0
 77154  1  0  0  0
 78 80  1  0  0  0
 78155  1  0  0  0
 78156  1  0  0  0
 79 80  1  0  0  0
 79 84  1  0  0  0
 79157  1  0  0  0
 80 88  1  0  0  0
 80158  1  0  0  0
 81 85  1  0  0  0
 81159  1  0  0  0
 81160  1  0  0  0
 81161  1  0  0  0
 82 84  1  0  0  0
 82162  1  0  0  0
 82163  1  0  0  0
 83 86  1  0  0  0
 83164  1  0  0  0
 83165  1  0  0  0
 84166  1  0  0  0
 84167  1  0  0  0
 85 88  1  0  0  0
 85168  1  0  0  0
 85169  1  0  0  0
 86170  1  0  0  0
 86171  1  0  0  0
M  ISO  4   1 100  68 101  86 101  88 100
M  END
> <chiral flag>
0

> <version>
0

> <s_m_source_file>
/data/baiqing/PycharmProjects/Reinvent-master-3.2/result/LINK_invent/BTK/process_docking_weight1_custom_sum_contain_oxygen_bond_distance_aromatic_linkinvent_7_9_3/rearranged_h_0119.sdf

> <i_m_source_file_index>
24

> <r_mmod_Potential_Energy-OPLS-2005>
104.465301513672

> <r_mmod_Stretch_Energy-OPLS-2005>
44.7437744140625

> <r_mmod_Bend_Energy-OPLS-2005>
125.14616394043

> <r_mmod_Torsional_Energy-OPLS-2005>
338.092346191406

> <r_mmod_Improper_Torsional_Energy-OPLS-2005>
18.197582244873

> <r_mmod_Van_der_Waal_Energy-OPLS-2005>
145.631652832031

> <r_mmod_Electrostatic_Energy-OPLS-2005>
-390.346496582031

> <r_mmod_Solvation_Energy-OPLS-2005>
-192.041763305664

> <b_mmod_Minimization_Converged-OPLS-2005>
0

> <r_mmod_RMS_Derivative-OPLS-2005>
4.25008964538574

$$$$
24
                    3D
 Structure written by MMmdl.
167175  0  0  1  0            999 V2000
  -30.6989  -14.4958   20.5375 C   0  0  0  0  0  0
  -30.4241  -12.3128   19.4275 C   0  0  0  0  0  0
  -29.4965  -12.5038   18.2094 C   0  0  0  0  0  0
  -28.0182  -12.3626   18.6223 C   0  0  0  0  0  0
  -27.6595  -13.2118   19.8700 C   0  0  2  0  0  0
  -28.7041  -13.0185   20.9931 C   0  0  0  0  0  0
  -25.2564  -13.8171   20.5656 C   0  0  0  0  0  0
  -24.1822  -13.0426   20.9153 C   0  0  0  0  0  0
  -24.6395  -11.6904   20.8746 C   0  0  0  0  0  0
  -23.9076  -10.4284   21.0426 C   0  0  0  0  0  0
  -24.3637   -9.4192   21.9188 C   0  0  0  0  0  0
  -23.6299   -8.2233   22.0755 C   0  0  0  0  0  0
  -22.4279   -8.0287   21.3546 C   0  0  0  0  0  0
  -21.9930   -9.0254   20.4643 C   0  0  0  0  0  0
  -22.7256  -10.2130   20.3061 C   0  0  0  0  0  0
  -21.6843   -6.0735   22.5276 C   0  0  0  0  0  0
  -21.4000   -6.5640   23.8213 C   0  0  0  0  0  0
  -21.3667   -5.6797   24.9175 C   0  0  0  0  0  0
  -21.6064   -4.3056   24.7239 C   0  0  0  0  0  0
  -21.8810   -3.8144   23.4354 C   0  0  0  0  0  0
  -21.9188   -4.6958   22.3404 C   0  0  0  0  0  0
  -22.7851  -13.5221   21.1837 C   0  0  0  0  0  0
  -22.1660   -4.2143   21.0983 F   0  0  0  0  0  0
  -21.5645   -3.4549   25.7751 F   0  0  0  0  0  0
  -30.0328  -13.3137   20.4310 N   0  0  0  0  0  0
  -26.3016  -12.9352   20.3356 N   0  0  0  0  0  0
  -25.9325  -11.6506   20.5785 N   0  0  0  0  0  0
  -22.0510  -12.8190   22.0405 N   0  0  0  0  0  0
  -25.4247  -15.1880   20.4037 N   0  0  0  0  0  0
  -31.8458  -14.6612   20.1158 O   0  0  0  0  0  0
  -21.6634   -6.8880   21.4238 O   0  0  0  0  0  0
  -22.3527  -14.5540   20.6721 O   0  0  0  0  0  0
  -24.6128  -31.8695   23.2118 C   0  0  0  0  0  0
  -25.9030  -32.4836   23.8394 C   0  0  1  0  0  0
  -27.2273  -27.4345   20.0857 C   0  0  0  0  0  0
  -25.5925  -33.8637   24.2339 N   0  0  0  0  0  0
  -23.4009  -30.4962   21.5508 C   0  0  2  0  0  0
  -24.8471  -28.9691   20.1067 C   0  0  0  0  0  0
  -22.7397  -29.4668   22.4960 C   0  0  0  0  0  0
  -18.0281  -28.1365   22.8470 C   0  0  0  0  0  0
  -24.1501  -36.7321   23.2625 C   0  0  0  0  0  0
  -25.9300  -30.8343   21.3660 C   0  0  0  0  0  0
  -26.0081  -29.4707   20.7086 C   0  0  0  0  0  0
  -27.2025  -28.7109   20.6954 C   0  0  0  0  0  0
  -26.0556  -26.9667   19.4492 C   0  0  0  0  0  0
  -24.8665  -27.7172   19.4700 C   0  0  0  0  0  0
  -23.6083  -29.8350   20.1623 C   0  0  0  0  0  0
  -25.4124  -36.3118   24.0323 C   0  0  1  0  0  0
  -20.5865  -28.3653   23.1305 C   0  0  2  0  0  0
  -20.6781  -26.9395   22.5394 C   0  0  0  0  0  0
  -19.5774  -26.6368   21.5177 C   0  0  0  0  0  0
  -18.1947  -26.7914   22.1586 C   0  0  0  0  0  0
  -19.1522  -28.8819   23.2892 C   0  0  0  0  0  0
  -18.9450  -30.1423   23.8909 C   0  0  0  0  0  0
  -17.6461  -30.6574   24.0550 C   0  0  0  0  0  0
  -25.9044  -34.9483   23.5117 C   0  0  0  0  0  0
  -16.5357  -29.9077   23.6312 C   0  0  0  0  0  0
  -16.7268  -28.6492   23.0328 C   0  0  0  0  0  0
  -26.4461  -31.6605   25.0714 C   0  0  0  0  0  0
  -25.3731  -31.3695   26.1459 C   0  0  0  0  0  0
  -27.0274  -30.3060   24.6044 C   0  0  0  0  0  0
  -27.6063  -32.4287   25.7478 C   0  0  0  0  0  0
  -27.5594  -37.1824   24.8458 C   0  0  0  0  0  0
  -21.4122  -29.3041   22.3707 N   0  0  0  0  0  0
  -26.4314  -37.3798   23.9392 N   0  0  0  0  0  0
  -24.6661  -31.0788   22.1023 N   0  0  0  0  0  0
  -23.4175  -28.8189   23.2982 O   0  0  0  0  0  0
  -28.3713  -26.6604   20.1013 O   0  0  0  0  0  0
  -26.5577  -34.8935   22.4658 O   0  0  0  0  0  0
  -23.5325  -32.1446   23.7530 O   0  0  0  0  0  0
  -29.2834  -20.3395   20.0233 C   0  0  0  0  0  0
  -31.0332  -21.9548   19.6628 C   0  0  0  0  0  0
  -29.6671  -21.6982   19.8972 C   0  0  0  0  0  0
  -30.2433  -19.3096   19.8798 C   0  0  0  0  0  0
  -31.9340  -20.8785   19.5614 C   0  0  0  0  0  0
  -27.5747  -22.6423   18.8496 C   0  0  0  0  0  0
  -34.0655  -21.8010   20.5598 C   0  0  0  0  0  0
  -33.6762  -21.9326   18.0439 C   0  0  0  0  0  0
  -29.8423  -17.8230   19.8533 C   0  0  0  0  0  0
  -29.1613  -24.2820   19.9855 C   0  0  0  0  0  0
  -30.3804  -16.9591   21.0295 C   0  0  0  0  0  0
  -28.1863  -25.3176   20.5978 C   0  0  0  0  0  0
  -28.6115  -22.8186   19.9796 C   0  0  2  0  0  0
  -33.4192  -21.1359   19.3351 C   0  0  0  0  0  0
  -31.5482  -19.5856   19.6550 N   0  0  0  0  0  0
  -29.9641  -15.5390   20.9695 N   0  0  0  0  0  0
  -31.4708  -12.4061   19.1311 H   0  0  0  0  0  0
  -30.3210  -11.3077   19.8416 H   0  0  0  0  0  0
  -29.7353  -11.7773   17.4320 H   0  0  0  0  0  0
  -29.6608  -13.4890   17.7702 H   0  0  0  0  0  0
  -27.8315  -11.3097   18.8300 H   0  0  0  0  0  0
  -27.3649  -12.6283   17.7892 H   0  0  0  0  0  0
  -27.6955  -14.2540   19.5542 H   0  0  0  0  0  0
  -28.6802  -11.9936   21.3646 H   0  0  0  0  0  0
  -28.4743  -13.6451   21.8560 H   0  0  0  0  0  0
  -25.2788   -9.5655   22.4754 H   0  0  0  0  0  0
  -24.0007   -7.4620   22.7477 H   0  0  0  0  0  0
  -21.0865   -8.8790   19.8951 H   0  0  0  0  0  0
  -22.3737  -10.9679   19.6174 H   0  0  0  0  0  0
  -21.1991   -7.6139   23.9714 H   0  0  0  0  0  0
  -21.1498   -6.0527   25.9083 H   0  0  0  0  0  0
  -22.0590   -2.7608   23.2856 H   0  0  0  0  0  0
  -22.4157  -11.9849   22.4757 H   0  0  0  0  0  0
  -21.1143  -13.1206   22.2678 H   0  0  0  0  0  0
  -24.6489  -15.8367   20.4898 H   0  0  0  0  0  0
  -26.2732  -15.6291   20.0747 H   0  0  0  0  0  0
  -26.7093  -32.5553   23.1156 H   0  0  0  0  0  0
  -25.0166  -33.9801   25.0539 H   0  0  0  0  0  0
  -22.6899  -31.3138   21.4156 H   0  0  0  0  0  0
  -23.3773  -35.9646   23.3284 H   0  0  0  0  0  0
  -24.3609  -36.8938   22.2044 H   0  0  0  0  0  0
  -23.7247  -37.6524   23.6636 H   0  0  0  0  0  0
  -26.0401  -31.6052   20.6017 H   0  0  0  0  0  0
  -26.8202  -30.8871   21.9810 H   0  0  0  0  0  0
  -28.0973  -29.0897   21.1685 H   0  0  0  0  0  0
  -26.0543  -26.0211   18.9259 H   0  0  0  0  0  0
  -23.9808  -27.3383   18.9778 H   0  0  0  0  0  0
  -23.7163  -30.6155   19.4076 H   0  0  0  0  0  0
  -22.7318  -29.2579   19.8610 H   0  0  0  0  0  0
  -25.1298  -36.1992   25.0819 H   0  0  0  0  0  0
  -20.9962  -28.3220   24.1423 H   0  0  0  0  0  0
  -20.5683  -26.2254   23.3565 H   0  0  0  0  0  0
  -21.6661  -26.7457   22.1199 H   0  0  0  0  0  0
  -19.6963  -25.6269   21.1227 H   0  0  0  0  0  0
  -19.6748  -27.3152   20.6687 H   0  0  0  0  0  0
  -17.4223  -26.6629   21.3989 H   0  0  0  0  0  0
  -18.0395  -26.0048   22.8979 H   0  0  0  0  0  0
  -19.7921  -30.7209   24.2323 H   0  0  0  0  0  0
  -17.5019  -31.6265   24.5123 H   0  0  0  0  0  0
  -15.5359  -30.2991   23.7615 H   0  0  0  0  0  0
  -15.8664  -28.0811   22.7053 H   0  0  0  0  0  0
  -24.5924  -30.7021   25.7784 H   0  0  0  0  0  0
  -24.8900  -32.2845   26.4902 H   0  0  0  0  0  0
  -25.8098  -30.8870   27.0212 H   0  0  0  0  0  0
  -26.2794  -29.6861   24.1096 H   0  0  0  0  0  0
  -27.4060  -29.7252   25.4460 H   0  0  0  0  0  0
  -27.8616  -30.4396   23.9158 H   0  0  0  0  0  0
  -27.2711  -33.3563   26.2123 H   0  0  0  0  0  0
  -28.3856  -32.6882   25.0300 H   0  0  0  0  0  0
  -28.0745  -31.8360   26.5346 H   0  0  0  0  0  0
  -28.2608  -38.0128   24.7522 H   0  0  0  0  0  0
  -28.1101  -36.2665   24.6270 H   0  0  0  0  0  0
  -27.2308  -37.1445   25.8860 H   0  0  0  0  0  0
  -20.9263  -29.8778   21.6949 H   0  0  0  0  0  0
  -26.0208  -38.2874   24.1416 H   0  0  0  0  0  0
  -28.2454  -20.0849   20.1928 H   0  0  0  0  0  0
  -31.4085  -22.9615   19.5505 H   0  0  0  0  0  0
  -27.1206  -21.6512   18.8660 H   0  0  0  0  0  0
  -28.0386  -22.7695   17.8692 H   0  0  0  0  0  0
  -26.7599  -23.3626   18.9232 H   0  0  0  0  0  0
  -33.9455  -21.1794   21.4469 H   0  0  0  0  0  0
  -33.6155  -22.7718   20.7681 H   0  0  0  0  0  0
  -35.1340  -21.9514   20.4064 H   0  0  0  0  0  0
  -33.2898  -21.3986   17.1755 H   0  0  0  0  0  0
  -34.7435  -22.0879   17.8863 H   0  0  0  0  0  0
  -33.2031  -22.9140   18.0731 H   0  0  0  0  0  0
  -30.1904  -17.3999   18.9110 H   0  0  0  0  0  0
  -28.7541  -17.7585   19.8217 H   0  0  0  0  0  0
  -30.0758  -24.3422   20.5745 H   0  0  0  0  0  0
  -29.4311  -24.5682   18.9683 H   0  0  0  0  0  0
  -30.0200  -17.3785   21.9686 H   0  0  0  0  0  0
  -31.4695  -17.0382   21.0722 H   0  0  0  0  0  0
  -28.3340  -25.3420   21.6783 H   0  0  0  0  0  0
  -27.1665  -24.9591   20.4732 H   0  0  0  0  0  0
  -28.1018  -22.6614   20.9311 H   0  0  0  0  0  0
  -33.9045  -20.1666   19.2039 H   0  0  0  0  0  0
  -29.0134  -15.3280   21.2384 H   0  0  0  0  0  0
  1 25  1  0  0  0
  1 30  2  0  0  0
  1 86  1  0  0  0
  2  3  1  0  0  0
  2 25  1  0  0  0
  2 87  1  0  0  0
  2 88  1  0  0  0
  3  4  1  0  0  0
  3 89  1  0  0  0
  3 90  1  0  0  0
  4  5  1  0  0  0
  4 91  1  0  0  0
  4 92  1  0  0  0
  5  6  1  0  0  0
  5 26  1  0  0  0
  5 93  1  0  0  0
  6 25  1  0  0  0
  6 94  1  0  0  0
  6 95  1  0  0  0
  7  8  2  0  0  0
  7 26  1  0  0  0
  7 29  1  0  0  0
  8  9  1  0  0  0
  8 22  1  0  0  0
  9 10  1  0  0  0
  9 27  2  0  0  0
 10 11  2  0  0  0
 10 15  1  0  0  0
 11 12  1  0  0  0
 11 96  1  0  0  0
 12 13  2  0  0  0
 12 97  1  0  0  0
 13 14  1  0  0  0
 13 31  1  0  0  0
 14 15  2  0  0  0
 14 98  1  0  0  0
 15 99  1  0  0  0
 16 17  2  0  0  0
 16 21  1  0  0  0
 16 31  1  0  0  0
 17 18  1  0  0  0
 17100  1  0  0  0
 18 19  2  0  0  0
 18101  1  0  0  0
 19 20  1  0  0  0
 19 24  1  0  0  0
 20 21  2  0  0  0
 20102  1  0  0  0
 21 23  1  0  0  0
 22 28  1  0  0  0
 22 32  2  0  0  0
 26 27  1  0  0  0
 28103  1  0  0  0
 28104  1  0  0  0
 29105  1  0  0  0
 29106  1  0  0  0
 33 34  1  0  0  0
 33 66  1  0  0  0
 33 70  2  0  0  0
 34 36  1  0  0  0
 34 59  1  0  0  0
 34107  1  0  0  0
 35 44  2  0  0  0
 35 45  1  0  0  0
 35 68  1  0  0  0
 36 56  1  0  0  0
 36108  1  0  0  0
 37 39  1  0  0  0
 37 47  1  0  0  0
 37 66  1  0  0  0
 37109  1  0  0  0
 38 43  2  0  0  0
 38 46  1  0  0  0
 38 47  1  0  0  0
 39 64  1  0  0  0
 39 67  2  0  0  0
 40 52  1  0  0  0
 40 53  2  0  0  0
 40 58  1  0  0  0
 41110  1  0  0  0
 41111  1  0  0  0
 41112  1  0  0  0
 41 48  1  0  0  0
 42 43  1  0  0  0
 42 66  1  0  0  0
 42113  1  0  0  0
 42114  1  0  0  0
 43 44  1  0  0  0
 44115  1  0  0  0
 45 46  2  0  0  0
 45116  1  0  0  0
 46117  1  0  0  0
 47118  1  0  0  0
 47119  1  0  0  0
 48 56  1  0  0  0
 48 65  1  0  0  0
 48120  1  0  0  0
 49 50  1  0  0  0
 49 53  1  0  0  0
 49 64  1  0  0  0
 49121  1  0  0  0
 50 51  1  0  0  0
 50122  1  0  0  0
 50123  1  0  0  0
 51 52  1  0  0  0
 51124  1  0  0  0
 51125  1  0  0  0
 52126  1  0  0  0
 52127  1  0  0  0
 53 54  1  0  0  0
 54 55  2  0  0  0
 54128  1  0  0  0
 55 57  1  0  0  0
 55129  1  0  0  0
 56 69  2  0  0  0
 57 58  2  0  0  0
 57130  1  0  0  0
 58131  1  0  0  0
 59 60  1  0  0  0
 59 61  1  0  0  0
 59 62  1  0  0  0
 60132  1  0  0  0
 60133  1  0  0  0
 60134  1  0  0  0
 61135  1  0  0  0
 61136  1  0  0  0
 61137  1  0  0  0
 62138  1  0  0  0
 62139  1  0  0  0
 62140  1  0  0  0
 63 65  1  0  0  0
 63141  1  0  0  0
 63142  1  0  0  0
 63143  1  0  0  0
 64144  1  0  0  0
 65145  1  0  0  0
 68 82  1  0  0  0
 71 73  2  0  0  0
 71 74  1  0  0  0
 71146  1  0  0  0
 72 73  1  0  0  0
 72 75  2  0  0  0
 72147  1  0  0  0
 73 83  1  0  0  0
 74 79  1  0  0  0
 74 85  2  0  0  0
 75 84  1  0  0  0
 75 85  1  0  0  0
 76148  1  0  0  0
 76149  1  0  0  0
 76150  1  0  0  0
 76 83  1  0  0  0
 77151  1  0  0  0
 77152  1  0  0  0
 77153  1  0  0  0
 77 84  1  0  0  0
 78 84  1  0  0  0
 78154  1  0  0  0
 78155  1  0  0  0
 78156  1  0  0  0
 79 81  1  0  0  0
 79157  1  0  0  0
 79158  1  0  0  0
 80 82  1  0  0  0
 80 83  1  0  0  0
 80159  1  0  0  0
 80160  1  0  0  0
 81 86  1  0  0  0
 81161  1  0  0  0
 81162  1  0  0  0
 82163  1  0  0  0
 82164  1  0  0  0
 83165  1  0  0  0
 84166  1  0  0  0
 86167  1  0  0  0
M  ISO  4   1 100  68 101  82 101  86 100
M  END
> <chiral flag>
0

> <version>
0

> <s_m_source_file>
/data/baiqing/PycharmProjects/Reinvent-master-3.2/result/LINK_invent/BTK/process_docking_weight1_custom_sum_contain_oxygen_bond_distance_aromatic_linkinvent_7_9_3/rearranged_h_0119.sdf

> <i_m_source_file_index>
25

> <r_mmod_Potential_Energy-OPLS-2005>
-250.233932495117

> <r_mmod_Stretch_Energy-OPLS-2005>
40.7551765441895

> <r_mmod_Bend_Energy-OPLS-2005>
96.4155120849609

> <r_mmod_Torsional_Energy-OPLS-2005>
209.621643066406

> <r_mmod_Improper_Torsional_Energy-OPLS-2005>
4.22493934631348

> <r_mmod_Van_der_Waal_Energy-OPLS-2005>
157.805038452148

> <r_mmod_Electrostatic_Energy-OPLS-2005>
-557.088500976562

> <r_mmod_Solvation_Energy-OPLS-2005>
-218.285461425781

> <b_mmod_Minimization_Converged-OPLS-2005>
0

> <r_mmod_RMS_Derivative-OPLS-2005>
3.18184089660645

$$$$
25
                    3D
 Structure written by MMmdl.
160169  0  0  1  0            999 V2000
  -30.5646  -14.7608   20.4681 C   0  0  0  0  0  0
  -30.4461  -12.4626   19.4720 C   0  0  0  0  0  0
  -29.5153  -12.5115   18.2378 C   0  0  0  0  0  0
  -28.0410  -12.3287   18.6504 C   0  0  0  0  0  0
  -27.6459  -13.2221   19.8556 C   0  0  2  0  0  0
  -28.6902  -13.1289   20.9907 C   0  0  0  0  0  0
  -25.2534  -13.8178   20.5673 C   0  0  0  0  0  0
  -24.1818  -13.0437   20.9205 C   0  0  0  0  0  0
  -24.6397  -11.6908   20.8758 C   0  0  0  0  0  0
  -23.9069  -10.4291   21.0419 C   0  0  0  0  0  0
  -24.3623   -9.4200   21.9188 C   0  0  0  0  0  0
  -23.6292   -8.2240   22.0755 C   0  0  0  0  0  0
  -22.4274   -8.0282   21.3546 C   0  0  0  0  0  0
  -21.9907   -9.0263   20.4655 C   0  0  0  0  0  0
  -22.7242  -10.2140   20.3067 C   0  0  0  0  0  0
  -21.6851   -6.0736   22.5278 C   0  0  0  0  0  0
  -21.4016   -6.5644   23.8211 C   0  0  0  0  0  0
  -21.3657   -5.6796   24.9171 C   0  0  0  0  0  0
  -21.6043   -4.3058   24.7222 C   0  0  0  0  0  0
  -21.8821   -3.8146   23.4346 C   0  0  0  0  0  0
  -21.9191   -4.6963   22.3403 C   0  0  0  0  0  0
  -22.7842  -13.5229   21.1863 C   0  0  0  0  0  0
  -22.1659   -4.2148   21.0981 F   0  0  0  0  0  0
  -21.5624   -3.4542   25.7735 F   0  0  0  0  0  0
  -29.9928  -13.5058   20.4210 N   0  0  0  0  0  0
  -26.2952  -12.9359   20.3279 N   0  0  0  0  0  0
  -25.9324  -11.6517   20.5762 N   0  0  0  0  0  0
  -22.0493  -12.8228   22.0431 N   0  0  0  0  0  0
  -25.4238  -15.1900   20.4043 N   0  0  0  0  0  0
  -31.7434  -14.9063   20.1206 O   0  0  0  0  0  0
  -21.6637   -6.8879   21.4238 O   0  0  0  0  0  0
  -22.3527  -14.5532   20.6704 O   0  0  0  0  0  0
  -24.6315  -31.8535   23.1953 C   0  0  0  0  0  0
  -25.9134  -32.4746   23.8308 C   0  0  1  0  0  0
  -27.2256  -27.2558   20.1381 C   0  0  0  0  0  0
  -25.5924  -33.8547   24.2232 N   0  0  0  0  0  0
  -23.4296  -30.4742   21.5382 C   0  0  2  0  0  0
  -24.8778  -28.9142   20.1122 C   0  0  0  0  0  0
  -22.7505  -29.4596   22.4898 C   0  0  0  0  0  0
  -18.0295  -28.1391   22.8484 C   0  0  0  0  0  0
  -24.1492  -36.7287   23.2640 C   0  0  0  0  0  0
  -25.9743  -30.7665   21.3737 C   0  0  0  0  0  0
  -26.0487  -29.3868   20.7182 C   0  0  0  0  0  0
  -27.2260  -28.5722   20.7135 C   0  0  0  0  0  0
  -26.0320  -26.8461   19.5072 C   0  0  0  0  0  0
  -24.8749  -27.6524   19.4945 C   0  0  0  0  0  0
  -23.6488  -29.8027   20.1562 C   0  0  0  0  0  0
  -25.4118  -36.3064   24.0325 C   0  0  1  0  0  0
  -20.5899  -28.3707   23.1264 C   0  0  2  0  0  0
  -20.6783  -26.9422   22.5412 C   0  0  0  0  0  0
  -19.5759  -26.6384   21.5217 C   0  0  0  0  0  0
  -18.1939  -26.7929   22.1628 C   0  0  0  0  0  0
  -19.1549  -28.8864   23.2869 C   0  0  0  0  0  0
  -18.9469  -30.1465   23.8890 C   0  0  0  0  0  0
  -17.6469  -30.6590   24.0565 C   0  0  0  0  0  0
  -25.9057  -34.9436   23.5085 C   0  0  0  0  0  0
  -16.5360  -29.9091   23.6329 C   0  0  0  0  0  0
  -16.7282  -28.6507   23.0349 C   0  0  0  0  0  0
  -26.4504  -31.6580   25.0700 C   0  0  0  0  0  0
  -25.3734  -31.3758   26.1433 C   0  0  0  0  0  0
  -27.0343  -30.2988   24.6199 C   0  0  0  0  0  0
  -27.6062  -32.4327   25.7461 C   0  0  0  0  0  0
  -27.5581  -37.1792   24.8464 C   0  0  0  0  0  0
  -21.4210  -29.3048   22.3642 N   0  0  0  0  0  0
  -26.4294  -37.3762   23.9407 N   0  0  0  0  0  0
  -24.6976  -31.0498   22.0924 N   0  0  0  0  0  0
  -23.4197  -28.8149   23.3013 O   0  0  0  0  0  0
  -28.3366  -26.3814   20.1813 O   0  0  0  0  0  0
  -26.5641  -34.8917   22.4661 O   0  0  0  0  0  0
  -23.5462  -32.1353   23.7247 O   0  0  0  0  0  0
  -28.3597  -19.4056   20.8233 C   0  0  0  0  0  0
  -28.5019  -17.9841   20.9367 C   0  0  0  0  0  0
  -29.4292  -20.2271   20.3827 C   0  0  0  0  0  0
  -29.7073  -17.2972   20.6146 C   0  0  0  0  0  0
  -30.6093  -19.4718   20.0867 C   0  0  0  0  0  0
  -29.1031  -22.6704   21.5404 C   0  0  0  0  0  0
  -28.2974  -22.4337   19.2294 C   0  0  0  0  0  0
  -29.1637  -24.2484   21.3581 C   0  0  0  0  0  0
  -28.3572  -24.0144   19.0377 C   0  0  0  0  0  0
  -29.3354  -21.8329   20.2393 C   0  0  2  0  0  0
  -28.1665  -24.8869   20.3287 C   0  0  2  0  0  0
  -32.9220  -19.4438   19.4007 C   0  0  0  0  0  0
  -30.7318  -18.0958   20.1947 N   0  0  0  0  0  0
  -29.7076  -15.8153   20.7616 N   0  0  0  0  0  0
  -31.7221  -20.1671   19.6614 O   0  0  0  0  0  0
  -31.4832  -12.6106   19.1667 H   0  0  0  0  0  0
  -30.4108  -11.4794   19.9438 H   0  0  0  0  0  0
  -29.7997  -11.7408   17.5203 H   0  0  0  0  0  0
  -29.6357  -13.4665   17.7237 H   0  0  0  0  0  0
  -27.9018  -11.2785   18.9105 H   0  0  0  0  0  0
  -27.3818  -12.5201   17.8029 H   0  0  0  0  0  0
  -27.6463  -14.2468   19.4841 H   0  0  0  0  0  0
  -28.7299  -12.1170   21.3971 H   0  0  0  0  0  0
  -28.4166  -13.7750   21.8265 H   0  0  0  0  0  0
  -25.2776   -9.5667   22.4756 H   0  0  0  0  0  0
  -23.9996   -7.4631   22.7477 H   0  0  0  0  0  0
  -21.0830   -8.8795   19.8973 H   0  0  0  0  0  0
  -22.3701  -10.9686   19.6180 H   0  0  0  0  0  0
  -21.2017   -7.6154   23.9717 H   0  0  0  0  0  0
  -21.1475   -6.0525   25.9074 H   0  0  0  0  0  0
  -22.0600   -2.7605   23.2850 H   0  0  0  0  0  0
  -22.4108  -11.9899   22.4838 H   0  0  0  0  0  0
  -21.1120  -13.1267   22.2656 H   0  0  0  0  0  0
  -24.6460  -15.8352   20.4917 H   0  0  0  0  0  0
  -26.2466  -15.6199   20.0029 H   0  0  0  0  0  0
  -26.7197  -32.5394   23.1047 H   0  0  0  0  0  0
  -25.0060  -33.9677   25.0370 H   0  0  0  0  0  0
  -22.7271  -31.2966   21.3888 H   0  0  0  0  0  0
  -23.3741  -35.9633   23.3316 H   0  0  0  0  0  0
  -24.3569  -36.8894   22.2050 H   0  0  0  0  0  0
  -23.7265  -37.6501   23.6656 H   0  0  0  0  0  0
  -26.1122  -31.5264   20.6031 H   0  0  0  0  0  0
  -26.8516  -30.8174   22.0071 H   0  0  0  0  0  0
  -28.1250  -28.9320   21.1941 H   0  0  0  0  0  0
  -25.9795  -25.8791   19.0290 H   0  0  0  0  0  0
  -23.9785  -27.2844   19.0146 H   0  0  0  0  0  0
  -23.7754  -30.5766   19.3982 H   0  0  0  0  0  0
  -22.7668  -29.2367   19.8512 H   0  0  0  0  0  0
  -25.1301  -36.1910   25.0818 H   0  0  0  0  0  0
  -20.9997  -28.3296   24.1382 H   0  0  0  0  0  0
  -20.5684  -26.2324   23.3624 H   0  0  0  0  0  0
  -21.6652  -26.7439   22.1211 H   0  0  0  0  0  0
  -19.6926  -25.6291   21.1258 H   0  0  0  0  0  0
  -19.6700  -27.3190   20.6744 H   0  0  0  0  0  0
  -17.4208  -26.6669   21.4032 H   0  0  0  0  0  0
  -18.0347  -26.0078   22.9033 H   0  0  0  0  0  0
  -19.7943  -30.7285   24.2259 H   0  0  0  0  0  0
  -17.5020  -31.6266   24.5176 H   0  0  0  0  0  0
  -15.5363  -30.2996   23.7650 H   0  0  0  0  0  0
  -15.8680  -28.0833   22.7061 H   0  0  0  0  0  0
  -24.5870  -30.7153   25.7762 H   0  0  0  0  0  0
  -24.8981  -32.2948   26.4869 H   0  0  0  0  0  0
  -25.8045  -30.8908   27.0199 H   0  0  0  0  0  0
  -26.2920  -29.6730   24.1229 H   0  0  0  0  0  0
  -27.4018  -29.7262   25.4724 H   0  0  0  0  0  0
  -27.8804  -30.4244   23.9440 H   0  0  0  0  0  0
  -27.2664  -33.3621   26.2041 H   0  0  0  0  0  0
  -28.3859  -32.6899   25.0280 H   0  0  0  0  0  0
  -28.0748  -31.8457   26.5369 H   0  0  0  0  0  0
  -28.2615  -38.0072   24.7481 H   0  0  0  0  0  0
  -28.1059  -36.2602   24.6323 H   0  0  0  0  0  0
  -27.2295  -37.1480   25.8867 H   0  0  0  0  0  0
  -20.9401  -29.8759   21.6832 H   0  0  0  0  0  0
  -26.0174  -38.2838   24.1398 H   0  0  0  0  0  0
  -27.4150  -19.8618   21.0815 H   0  0  0  0  0  0
  -27.6451  -17.4213   21.2819 H   0  0  0  0  0  0
  -28.1391  -22.4019   21.9745 H   0  0  0  0  0  0
  -29.8503  -22.3825   22.2807 H   0  0  0  0  0  0
  -28.4431  -21.9639   18.2563 H   0  0  0  0  0  0
  -27.2903  -22.1558   19.5429 H   0  0  0  0  0  0
  -30.1791  -24.5201   21.0669 H   0  0  0  0  0  0
  -29.0060  -24.7181   22.3294 H   0  0  0  0  0  0
  -27.6113  -24.3066   18.2986 H   0  0  0  0  0  0
  -29.3200  -24.2667   18.5924 H   0  0  0  0  0  0
  -30.3115  -22.1409   19.8649 H   0  0  0  0  0  0
  -27.1636  -24.6977   20.7147 H   0  0  0  0  0  0
  -33.7017  -20.1379   19.0883 H   0  0  0  0  0  0
  -32.7859  -18.7177   18.5982 H   0  0  0  0  0  0
  -33.2788  -18.9270   20.2929 H   0  0  0  0  0  0
  -28.8172  -15.4613   21.0693 H   0  0  0  0  0  0
  1 25  1  0  0  0
  1 30  2  0  0  0
  1 84  1  0  0  0
  2  3  1  0  0  0
  2 25  1  0  0  0
  2 86  1  0  0  0
  2 87  1  0  0  0
  3  4  1  0  0  0
  3 88  1  0  0  0
  3 89  1  0  0  0
  4  5  1  0  0  0
  4 90  1  0  0  0
  4 91  1  0  0  0
  5  6  1  0  0  0
  5 26  1  0  0  0
  5 92  1  0  0  0
  6 25  1  0  0  0
  6 93  1  0  0  0
  6 94  1  0  0  0
  7  8  2  0  0  0
  7 26  1  0  0  0
  7 29  1  0  0  0
  8  9  1  0  0  0
  8 22  1  0  0  0
  9 10  1  0  0  0
  9 27  2  0  0  0
 10 11  2  0  0  0
 10 15  1  0  0  0
 11 12  1  0  0  0
 11 95  1  0  0  0
 12 13  2  0  0  0
 12 96  1  0  0  0
 13 14  1  0  0  0
 13 31  1  0  0  0
 14 15  2  0  0  0
 14 97  1  0  0  0
 15 98  1  0  0  0
 16 17  2  0  0  0
 16 21  1  0  0  0
 16 31  1  0  0  0
 17 18  1  0  0  0
 17 99  1  0  0  0
 18 19  2  0  0  0
 18100  1  0  0  0
 19 20  1  0  0  0
 19 24  1  0  0  0
 20 21  2  0  0  0
 20101  1  0  0  0
 21 23  1  0  0  0
 22 28  1  0  0  0
 22 32  2  0  0  0
 26 27  1  0  0  0
 28102  1  0  0  0
 28103  1  0  0  0
 29104  1  0  0  0
 29105  1  0  0  0
 33 34  1  0  0  0
 33 66  1  0  0  0
 33 70  2  0  0  0
 34 36  1  0  0  0
 34 59  1  0  0  0
 34106  1  0  0  0
 35 44  2  0  0  0
 35 45  1  0  0  0
 35 68  1  0  0  0
 36 56  1  0  0  0
 36107  1  0  0  0
 37 39  1  0  0  0
 37 47  1  0  0  0
 37 66  1  0  0  0
 37108  1  0  0  0
 38 43  2  0  0  0
 38 46  1  0  0  0
 38 47  1  0  0  0
 39 64  1  0  0  0
 39 67  2  0  0  0
 40 52  1  0  0  0
 40 53  2  0  0  0
 40 58  1  0  0  0
 41109  1  0  0  0
 41110  1  0  0  0
 41111  1  0  0  0
 41 48  1  0  0  0
 42 43  1  0  0  0
 42 66  1  0  0  0
 42112  1  0  0  0
 42113  1  0  0  0
 43 44  1  0  0  0
 44114  1  0  0  0
 45 46  2  0  0  0
 45115  1  0  0  0
 46116  1  0  0  0
 47117  1  0  0  0
 47118  1  0  0  0
 48 56  1  0  0  0
 48 65  1  0  0  0
 48119  1  0  0  0
 49 50  1  0  0  0
 49 53  1  0  0  0
 49 64  1  0  0  0
 49120  1  0  0  0
 50 51  1  0  0  0
 50121  1  0  0  0
 50122  1  0  0  0
 51 52  1  0  0  0
 51123  1  0  0  0
 51124  1  0  0  0
 52125  1  0  0  0
 52126  1  0  0  0
 53 54  1  0  0  0
 54 55  2  0  0  0
 54127  1  0  0  0
 55 57  1  0  0  0
 55128  1  0  0  0
 56 69  2  0  0  0
 57 58  2  0  0  0
 57129  1  0  0  0
 58130  1  0  0  0
 59 60  1  0  0  0
 59 61  1  0  0  0
 59 62  1  0  0  0
 60131  1  0  0  0
 60132  1  0  0  0
 60133  1  0  0  0
 61134  1  0  0  0
 61135  1  0  0  0
 61136  1  0  0  0
 62137  1  0  0  0
 62138  1  0  0  0
 62139  1  0  0  0
 63 65  1  0  0  0
 63140  1  0  0  0
 63141  1  0  0  0
 63142  1  0  0  0
 64143  1  0  0  0
 65144  1  0  0  0
 68 81  1  0  0  0
 71 72  2  0  0  0
 71 73  1  0  0  0
 71145  1  0  0  0
 72 74  1  0  0  0
 72146  1  0  0  0
 73 75  2  0  0  0
 73 80  1  0  0  0
 74 83  2  0  0  0
 74 84  1  0  0  0
 75 83  1  0  0  0
 75 85  1  0  0  0
 76 78  1  0  0  0
 76 80  1  0  0  0
 76147  1  0  0  0
 76148  1  0  0  0
 77 79  1  0  0  0
 77 80  1  0  0  0
 77149  1  0  0  0
 77150  1  0  0  0
 78 81  1  0  0  0
 78151  1  0  0  0
 78152  1  0  0  0
 79 81  1  0  0  0
 79153  1  0  0  0
 79154  1  0  0  0
 80155  1  0  0  0
 81156  1  0  0  0
 82 85  1  0  0  0
 82157  1  0  0  0
 82158  1  0  0  0
 82159  1  0  0  0
 84160  1  0  0  0
M  ISO  4   1 100  68 101  81 101  84 100
M  END
> <chiral flag>
0

> <version>
0

> <s_m_source_file>
/data/baiqing/PycharmProjects/Reinvent-master-3.2/result/LINK_invent/BTK/process_docking_weight1_custom_sum_contain_oxygen_bond_distance_aromatic_linkinvent_7_9_3/rearranged_h_0119.sdf

> <i_m_source_file_index>
26

> <r_mmod_Potential_Energy-OPLS-2005>
-8.4721622467041

> <r_mmod_Stretch_Energy-OPLS-2005>
117.212875366211

> <r_mmod_Bend_Energy-OPLS-2005>
183.218124389648

> <r_mmod_Torsional_Energy-OPLS-2005>
215.083389282227

> <r_mmod_Improper_Torsional_Energy-OPLS-2005>
4.07746982574463

> <r_mmod_Van_der_Waal_Energy-OPLS-2005>
143.952713012695

> <r_mmod_Electrostatic_Energy-OPLS-2005>
-538.294921875

> <r_mmod_Solvation_Energy-OPLS-2005>
-221.608825683594

> <b_mmod_Minimization_Converged-OPLS-2005>
0

> <r_mmod_RMS_Derivative-OPLS-2005>
0.703906238079071

$$$$
26
                    3D
 Structure written by MMmdl.
162171  0  0  1  0            999 V2000
  -30.6182  -14.6559   20.4903 C   0  0  0  0  0  0
  -30.4361  -12.4018   19.4553 C   0  0  0  0  0  0
  -29.5067  -12.5055   18.2253 C   0  0  0  0  0  0
  -28.0301  -12.3415   18.6379 C   0  0  0  0  0  0
  -27.6498  -13.2184   19.8606 C   0  0  2  0  0  0
  -28.6948  -13.0896   20.9919 C   0  0  0  0  0  0
  -25.2544  -13.8173   20.5685 C   0  0  0  0  0  0
  -24.1817  -13.0435   20.9194 C   0  0  0  0  0  0
  -24.6388  -11.6907   20.8744 C   0  0  0  0  0  0
  -23.9060  -10.4290   21.0408 C   0  0  0  0  0  0
  -24.3612   -9.4206   21.9186 C   0  0  0  0  0  0
  -23.6288   -8.2241   22.0755 C   0  0  0  0  0  0
  -22.4270   -8.0278   21.3545 C   0  0  0  0  0  0
  -21.9906   -9.0252   20.4648 C   0  0  0  0  0  0
  -22.7233  -10.2132   20.3057 C   0  0  0  0  0  0
  -21.6851   -6.0732   22.5278 C   0  0  0  0  0  0
  -21.4014   -6.5638   23.8211 C   0  0  0  0  0  0
  -21.3658   -5.6791   24.9174 C   0  0  0  0  0  0
  -21.6044   -4.3054   24.7225 C   0  0  0  0  0  0
  -21.8819   -3.8144   23.4347 C   0  0  0  0  0  0
  -21.9193   -4.6961   22.3402 C   0  0  0  0  0  0
  -22.7841  -13.5228   21.1858 C   0  0  0  0  0  0
  -22.1661   -4.2145   21.0980 F   0  0  0  0  0  0
  -21.5630   -3.4539   25.7740 F   0  0  0  0  0  0
  -30.0068  -13.4309   20.4236 N   0  0  0  0  0  0
  -26.2971  -12.9357   20.3311 N   0  0  0  0  0  0
  -25.9317  -11.6512   20.5760 N   0  0  0  0  0  0
  -22.0482  -12.8219   22.0414 N   0  0  0  0  0  0
  -25.4239  -15.1897   20.4099 N   0  0  0  0  0  0
  -31.7880  -14.8073   20.1282 O   0  0  0  0  0  0
  -21.6636   -6.8874   21.4239 O   0  0  0  0  0  0
  -22.3529  -14.5536   20.6709 O   0  0  0  0  0  0
  -24.6262  -31.8587   23.2011 C   0  0  0  0  0  0
  -25.9106  -32.4771   23.8345 C   0  0  1  0  0  0
  -27.2272  -27.3116   20.1153 C   0  0  0  0  0  0
  -25.5921  -33.8573   24.2273 N   0  0  0  0  0  0
  -23.4197  -30.4816   21.5441 C   0  0  2  0  0  0
  -24.8651  -28.9314   20.1130 C   0  0  0  0  0  0
  -22.7471  -29.4622   22.4937 C   0  0  0  0  0  0
  -18.0285  -28.1384   22.8486 C   0  0  0  0  0  0
  -24.1487  -36.7293   23.2640 C   0  0  0  0  0  0
  -25.9604  -30.7874   21.3713 C   0  0  0  0  0  0
  -26.0338  -29.4133   20.7145 C   0  0  0  0  0  0
  -27.2154  -28.6153   20.7035 C   0  0  0  0  0  0
  -26.0300  -26.8763   19.5023 C   0  0  0  0  0  0
  -24.8655  -27.6687   19.4999 C   0  0  0  0  0  0
  -23.6338  -29.8133   20.1604 C   0  0  0  0  0  0
  -25.4113  -36.3082   24.0328 C   0  0  1  0  0  0
  -20.5884  -28.3689   23.1285 C   0  0  2  0  0  0
  -20.6775  -26.9412   22.5411 C   0  0  0  0  0  0
  -19.5752  -26.6385   21.5213 C   0  0  0  0  0  0
  -18.1931  -26.7927   22.1622 C   0  0  0  0  0  0
  -19.1537  -28.8852   23.2880 C   0  0  0  0  0  0
  -18.9461  -30.1455   23.8895 C   0  0  0  0  0  0
  -17.6462  -30.6587   24.0564 C   0  0  0  0  0  0
  -25.9049  -34.9449   23.5103 C   0  0  0  0  0  0
  -16.5352  -29.9087   23.6330 C   0  0  0  0  0  0
  -16.7273  -28.6504   23.0350 C   0  0  0  0  0  0
  -26.4490  -31.6584   25.0719 C   0  0  0  0  0  0
  -25.3723  -31.3718   26.1445 C   0  0  0  0  0  0
  -27.0335  -30.3009   24.6174 C   0  0  0  0  0  0
  -27.6049  -32.4322   25.7488 C   0  0  0  0  0  0
  -27.5578  -37.1803   24.8465 C   0  0  0  0  0  0
  -21.4185  -29.3042   22.3678 N   0  0  0  0  0  0
  -26.4292  -37.3776   23.9406 N   0  0  0  0  0  0
  -24.6878  -31.0594   22.0961 N   0  0  0  0  0  0
  -23.4193  -28.8164   23.3021 O   0  0  0  0  0  0
  -28.3733  -26.4997   20.1561 O   0  0  0  0  0  0
  -26.5620  -34.8918   22.4672 O   0  0  0  0  0  0
  -23.5426  -32.1391   23.7339 O   0  0  0  0  0  0
  -28.0299  -17.8950   17.4885 C   0  0  0  0  0  0
  -28.7450  -17.2865   18.5259 C   0  0  0  0  0  0
  -27.8250  -19.2731   17.5341 C   0  0  0  0  0  0
  -29.2389  -18.0460   19.6137 C   0  0  0  0  0  0
  -28.9744  -19.4854   19.5711 C   0  0  0  0  0  0
  -27.6823  -24.1303   20.9407 C   0  0  0  0  0  0
  -29.7634  -24.4597   19.6059 C   0  0  0  0  0  0
  -27.7112  -22.5818   20.6115 C   0  0  0  0  0  0
  -30.1090  -23.0539   20.2371 C   0  0  0  0  0  0
  -28.3374  -25.0414   19.8647 C   0  0  1  0  0  0
  -30.0478  -17.2251   20.6854 C   0  0  0  0  0  0
  -29.3943  -20.6041   20.5827 C   0  0  0  0  0  0
  -28.2907  -20.0400   18.5367 N   0  0  0  0  0  0
  -29.8068  -15.7290   20.7670 N   0  0  0  0  0  0
  -29.0267  -22.0267   20.1373 N   0  3  1  0  0  0
  -31.4772  -12.5278   19.1530 H   0  0  0  0  0  0
  -30.3729  -11.4096   19.9048 H   0  0  0  0  0  0
  -29.7737  -11.7490   17.4862 H   0  0  0  0  0  0
  -29.6463  -13.4715   17.7375 H   0  0  0  0  0  0
  -27.8708  -11.2892   18.8763 H   0  0  0  0  0  0
  -27.3746  -12.5635   17.7950 H   0  0  0  0  0  0
  -27.6616  -14.2504   19.5109 H   0  0  0  0  0  0
  -28.7096  -12.0735   21.3885 H   0  0  0  0  0  0
  -28.4409  -13.7359   21.8337 H   0  0  0  0  0  0
  -25.2757   -9.5683   22.4760 H   0  0  0  0  0  0
  -23.9997   -7.4633   22.7474 H   0  0  0  0  0  0
  -21.0837   -8.8770   19.8954 H   0  0  0  0  0  0
  -22.3689  -10.9670   19.6167 H   0  0  0  0  0  0
  -21.2004   -7.6146   23.9714 H   0  0  0  0  0  0
  -21.1483   -6.0522   25.9077 H   0  0  0  0  0  0
  -22.0598   -2.7606   23.2849 H   0  0  0  0  0  0
  -22.4094  -11.9874   22.4796 H   0  0  0  0  0  0
  -21.1103  -13.1249   22.2626 H   0  0  0  0  0  0
  -24.6516  -15.8383   20.5156 H   0  0  0  0  0  0
  -26.2658  -15.6331   20.0665 H   0  0  0  0  0  0
  -26.7172  -32.5433   23.1090 H   0  0  0  0  0  0
  -25.0068  -33.9716   25.0418 H   0  0  0  0  0  0
  -22.7139  -31.3022   21.3999 H   0  0  0  0  0  0
  -23.3749  -35.9627   23.3307 H   0  0  0  0  0  0
  -24.3578  -36.8912   22.2055 H   0  0  0  0  0  0
  -23.7242  -37.6496   23.6662 H   0  0  0  0  0  0
  -26.0909  -31.5497   20.6021 H   0  0  0  0  0  0
  -26.8413  -30.8373   22.0000 H   0  0  0  0  0  0
  -28.1151  -28.9842   21.1760 H   0  0  0  0  0  0
  -25.9593  -25.9109   19.0268 H   0  0  0  0  0  0
  -23.9673  -27.2917   19.0302 H   0  0  0  0  0  0
  -23.7535  -30.5882   19.4024 H   0  0  0  0  0  0
  -22.7531  -29.2431   19.8591 H   0  0  0  0  0  0
  -25.1294  -36.1937   25.0821 H   0  0  0  0  0  0
  -20.9975  -28.3266   24.1407 H   0  0  0  0  0  0
  -20.5679  -26.2298   23.3610 H   0  0  0  0  0  0
  -21.6644  -26.7446   22.1203 H   0  0  0  0  0  0
  -19.6915  -25.6297   21.1240 H   0  0  0  0  0  0
  -19.6690  -27.3196   20.6743 H   0  0  0  0  0  0
  -17.4201  -26.6674   21.4024 H   0  0  0  0  0  0
  -18.0332  -26.0068   22.9017 H   0  0  0  0  0  0
  -19.7938  -30.7270   24.2264 H   0  0  0  0  0  0
  -17.5018  -31.6266   24.5167 H   0  0  0  0  0  0
  -15.5354  -30.2990   23.7656 H   0  0  0  0  0  0
  -15.8671  -28.0826   22.7066 H   0  0  0  0  0  0
  -24.5901  -30.7061   25.7775 H   0  0  0  0  0  0
  -24.8905  -32.2879   26.4871 H   0  0  0  0  0  0
  -25.8048  -30.8898   27.0221 H   0  0  0  0  0  0
  -26.2907  -29.6753   24.1209 H   0  0  0  0  0  0
  -27.4046  -29.7272   25.4678 H   0  0  0  0  0  0
  -27.8770  -30.4298   23.9387 H   0  0  0  0  0  0
  -27.2660  -33.3624   26.2062 H   0  0  0  0  0  0
  -28.3859  -32.6880   25.0315 H   0  0  0  0  0  0
  -28.0715  -31.8449   26.5407 H   0  0  0  0  0  0
  -28.2600  -38.0097   24.7511 H   0  0  0  0  0  0
  -28.1070  -36.2627   24.6297 H   0  0  0  0  0  0
  -27.2293  -37.1459   25.8868 H   0  0  0  0  0  0
  -20.9363  -29.8765   21.6888 H   0  0  0  0  0  0
  -26.0175  -38.2852   24.1406 H   0  0  0  0  0  0
  -27.6495  -17.3124   16.6609 H   0  0  0  0  0  0
  -28.9125  -16.2216   18.4626 H   0  0  0  0  0  0
  -27.2829  -19.7768   16.7473 H   0  0  0  0  0  0
  -28.1821  -24.3013   21.8950 H   0  0  0  0  0  0
  -26.6486  -24.4373   21.0987 H   0  0  0  0  0  0
  -29.9237  -24.4133   18.5280 H   0  0  0  0  0  0
  -30.5050  -25.1725   19.9677 H   0  0  0  0  0  0
  -26.9725  -22.3645   19.8392 H   0  0  0  0  0  0
  -27.3789  -22.0375   21.4958 H   0  0  0  0  0  0
  -30.3490  -23.1860   21.2932 H   0  0  0  0  0  0
  -31.0179  -22.6706   19.7716 H   0  0  0  0  0  0
  -27.7963  -24.8924   18.9307 H   0  0  0  0  0  0
  -29.8349  -17.6458   21.6688 H   0  0  0  0  0  0
  -31.1104  -17.4024   20.5105 H   0  0  0  0  0  0
  -30.4761  -20.5312   20.6939 H   0  0  0  0  0  0
  -28.9782  -20.3868   21.5660 H   0  0  0  0  0  0
  -28.8791  -15.4667   21.0641 H   0  0  0  0  0  0
  -28.8815  -21.8357   19.1512 H   0  0  0  0  0  0
  1 25  1  0  0  0
  1 30  2  0  0  0
  1 84  1  0  0  0
  2  3  1  0  0  0
  2 25  1  0  0  0
  2 86  1  0  0  0
  2 87  1  0  0  0
  3  4  1  0  0  0
  3 88  1  0  0  0
  3 89  1  0  0  0
  4  5  1  0  0  0
  4 90  1  0  0  0
  4 91  1  0  0  0
  5  6  1  0  0  0
  5 26  1  0  0  0
  5 92  1  0  0  0
  6 25  1  0  0  0
  6 93  1  0  0  0
  6 94  1  0  0  0
  7  8  2  0  0  0
  7 26  1  0  0  0
  7 29  1  0  0  0
  8  9  1  0  0  0
  8 22  1  0  0  0
  9 10  1  0  0  0
  9 27  2  0  0  0
 10 11  2  0  0  0
 10 15  1  0  0  0
 11 12  1  0  0  0
 11 95  1  0  0  0
 12 13  2  0  0  0
 12 96  1  0  0  0
 13 14  1  0  0  0
 13 31  1  0  0  0
 14 15  2  0  0  0
 14 97  1  0  0  0
 15 98  1  0  0  0
 16 17  2  0  0  0
 16 21  1  0  0  0
 16 31  1  0  0  0
 17 18  1  0  0  0
 17 99  1  0  0  0
 18 19  2  0  0  0
 18100  1  0  0  0
 19 20  1  0  0  0
 19 24  1  0  0  0
 20 21  2  0  0  0
 20101  1  0  0  0
 21 23  1  0  0  0
 22 28  1  0  0  0
 22 32  2  0  0  0
 26 27  1  0  0  0
 28102  1  0  0  0
 28103  1  0  0  0
 29104  1  0  0  0
 29105  1  0  0  0
 33 34  1  0  0  0
 33 66  1  0  0  0
 33 70  2  0  0  0
 34 36  1  0  0  0
 34 59  1  0  0  0
 34106  1  0  0  0
 35 44  2  0  0  0
 35 45  1  0  0  0
 35 68  1  0  0  0
 36 56  1  0  0  0
 36107  1  0  0  0
 37 39  1  0  0  0
 37 47  1  0  0  0
 37 66  1  0  0  0
 37108  1  0  0  0
 38 43  2  0  0  0
 38 46  1  0  0  0
 38 47  1  0  0  0
 39 64  1  0  0  0
 39 67  2  0  0  0
 40 52  1  0  0  0
 40 53  2  0  0  0
 40 58  1  0  0  0
 41109  1  0  0  0
 41110  1  0  0  0
 41111  1  0  0  0
 41 48  1  0  0  0
 42 43  1  0  0  0
 42 66  1  0  0  0
 42112  1  0  0  0
 42113  1  0  0  0
 43 44  1  0  0  0
 44114  1  0  0  0
 45 46  2  0  0  0
 45115  1  0  0  0
 46116  1  0  0  0
 47117  1  0  0  0
 47118  1  0  0  0
 48 56  1  0  0  0
 48 65  1  0  0  0
 48119  1  0  0  0
 49 50  1  0  0  0
 49 53  1  0  0  0
 49 64  1  0  0  0
 49120  1  0  0  0
 50 51  1  0  0  0
 50121  1  0  0  0
 50122  1  0  0  0
 51 52  1  0  0  0
 51123  1  0  0  0
 51124  1  0  0  0
 52125  1  0  0  0
 52126  1  0  0  0
 53 54  1  0  0  0
 54 55  2  0  0  0
 54127  1  0  0  0
 55 57  1  0  0  0
 55128  1  0  0  0
 56 69  2  0  0  0
 57 58  2  0  0  0
 57129  1  0  0  0
 58130  1  0  0  0
 59 60  1  0  0  0
 59 61  1  0  0  0
 59 62  1  0  0  0
 60131  1  0  0  0
 60132  1  0  0  0
 60133  1  0  0  0
 61134  1  0  0  0
 61135  1  0  0  0
 61136  1  0  0  0
 62137  1  0  0  0
 62138  1  0  0  0
 62139  1  0  0  0
 63 65  1  0  0  0
 63140  1  0  0  0
 63141  1  0  0  0
 63142  1  0  0  0
 64143  1  0  0  0
 65144  1  0  0  0
 68 80  1  0  0  0
 71 72  2  0  0  0
 71 73  1  0  0  0
 71145  1  0  0  0
 72 74  1  0  0  0
 72146  1  0  0  0
 73 83  2  0  0  0
 73147  1  0  0  0
 74 75  2  0  0  0
 74 81  1  0  0  0
 75 82  1  0  0  0
 75 83  1  0  0  0
 76 78  1  0  0  0
 76 80  1  0  0  0
 76148  1  0  0  0
 76149  1  0  0  0
 77 79  1  0  0  0
 77 80  1  0  0  0
 77150  1  0  0  0
 77151  1  0  0  0
 78 85  1  0  0  0
 78152  1  0  0  0
 78153  1  0  0  0
 79 85  1  0  0  0
 79154  1  0  0  0
 79155  1  0  0  0
 80156  1  0  0  0
 81 84  1  0  0  0
 81157  1  0  0  0
 81158  1  0  0  0
 82159  1  0  0  0
 82160  1  0  0  0
 82 85  1  0  0  0
 84161  1  0  0  0
 85162  1  0  0  0
M  CHG  1  85   1
M  ISO  4   1 100  68 101  80 101  84 100
M  END
> <chiral flag>
0

> <version>
0

> <s_m_source_file>
/data/baiqing/PycharmProjects/Reinvent-master-3.2/result/LINK_invent/BTK/process_docking_weight1_custom_sum_contain_oxygen_bond_distance_aromatic_linkinvent_7_9_3/rearranged_h_0119.sdf

> <i_m_source_file_index>
27

> <r_mmod_Potential_Energy-OPLS-2005>
-239.203247070312

> <r_mmod_Stretch_Energy-OPLS-2005>
91.4182434082031

> <r_mmod_Bend_Energy-OPLS-2005>
161.124969482422

> <r_mmod_Torsional_Energy-OPLS-2005>
250.178359985352

> <r_mmod_Improper_Torsional_Energy-OPLS-2005>
4.88419437408447

> <r_mmod_Van_der_Waal_Energy-OPLS-2005>
154.857818603516

> <r_mmod_Electrostatic_Energy-OPLS-2005>
-508.822967529297

> <r_mmod_Solvation_Energy-OPLS-2005>
-443.621276855469

> <b_mmod_Minimization_Converged-OPLS-2005>
0

> <r_mmod_RMS_Derivative-OPLS-2005>
0.299719125032425

$$$$
27
                    3D
 Structure written by MMmdl.
166175  0  0  1  0            999 V2000
  -30.6623  -14.5587   20.4923 C   0  0  0  0  0  0
  -30.4208  -12.3451   19.4372 C   0  0  0  0  0  0
  -29.4952  -12.4991   18.2116 C   0  0  0  0  0  0
  -28.0140  -12.3661   18.6204 C   0  0  0  0  0  0
  -27.6507  -13.2195   19.8659 C   0  0  2  0  0  0
  -28.6972  -13.0667   20.9921 C   0  0  0  0  0  0
  -25.2545  -13.8190   20.5726 C   0  0  0  0  0  0
  -24.1815  -13.0470   20.9209 C   0  0  0  0  0  0
  -24.6392  -11.6935   20.8762 C   0  0  0  0  0  0
  -23.9065  -10.4310   21.0417 C   0  0  0  0  0  0
  -24.3616   -9.4222   21.9195 C   0  0  0  0  0  0
  -23.6296   -8.2258   22.0752 C   0  0  0  0  0  0
  -22.4279   -8.0286   21.3539 C   0  0  0  0  0  0
  -21.9909   -9.0272   20.4642 C   0  0  0  0  0  0
  -22.7239  -10.2158   20.3058 C   0  0  0  0  0  0
  -21.6850   -6.0743   22.5280 C   0  0  0  0  0  0
  -21.4024   -6.5646   23.8214 C   0  0  0  0  0  0
  -21.3664   -5.6797   24.9171 C   0  0  0  0  0  0
  -21.6032   -4.3059   24.7226 C   0  0  0  0  0  0
  -21.8820   -3.8154   23.4351 C   0  0  0  0  0  0
  -21.9202   -4.6970   22.3405 C   0  0  0  0  0  0
  -22.7821  -13.5245   21.1872 C   0  0  0  0  0  0
  -22.1659   -4.2151   21.0983 F   0  0  0  0  0  0
  -21.5630   -3.4536   25.7743 F   0  0  0  0  0  0
  -30.0131  -13.3652   20.4151 N   0  0  0  0  0  0
  -26.2978  -12.9383   20.3359 N   0  0  0  0  0  0
  -25.9316  -11.6531   20.5777 N   0  0  0  0  0  0
  -22.0470  -12.8240   22.0414 N   0  0  0  0  0  0
  -25.4297  -15.1928   20.4166 N   0  0  0  0  0  0
  -31.8491  -14.6885   20.1885 O   0  0  0  0  0  0
  -21.6643   -6.8890   21.4243 O   0  0  0  0  0  0
  -22.3512  -14.5572   20.6728 O   0  0  0  0  0  0
  -24.6126  -31.8700   23.2100 C   0  0  0  0  0  0
  -25.9045  -32.4825   23.8366 C   0  0  1  0  0  0
  -27.2183  -27.4175   20.0935 C   0  0  0  0  0  0
  -25.5898  -33.8626   24.2300 N   0  0  0  0  0  0
  -23.3944  -30.4940   21.5554 C   0  0  2  0  0  0
  -24.8358  -28.9632   20.1091 C   0  0  0  0  0  0
  -22.7359  -29.4689   22.5015 C   0  0  0  0  0  0
  -18.0267  -28.1374   22.8673 C   0  0  0  0  0  0
  -24.1492  -36.7329   23.2633 C   0  0  0  0  0  0
  -25.9209  -30.8325   21.3592 C   0  0  0  0  0  0
  -25.9954  -29.4638   20.7110 C   0  0  0  0  0  0
  -27.1829  -28.6945   20.7078 C   0  0  0  0  0  0
  -26.0319  -26.9313   19.4909 C   0  0  0  0  0  0
  -24.8508  -27.6994   19.4944 C   0  0  0  0  0  0
  -23.5983  -29.8339   20.1652 C   0  0  0  0  0  0
  -25.4102  -36.3108   24.0331 C   0  0  1  0  0  0
  -20.5862  -28.3643   23.1339 C   0  0  2  0  0  0
  -20.6802  -26.9426   22.5314 C   0  0  0  0  0  0
  -19.5630  -26.6402   21.5285 C   0  0  0  0  0  0
  -18.1908  -26.7900   22.1874 C   0  0  0  0  0  0
  -19.1522  -28.8844   23.3018 C   0  0  0  0  0  0
  -18.9471  -30.1463   23.9018 C   0  0  0  0  0  0
  -17.6489  -30.6649   24.0679 C   0  0  0  0  0  0
  -25.9035  -34.9476   23.5103 C   0  0  0  0  0  0
  -16.5375  -29.9137   23.6462 C   0  0  0  0  0  0
  -16.7261  -28.6517   23.0556 C   0  0  0  0  0  0
  -26.4479  -31.6604   25.0684 C   0  0  0  0  0  0
  -25.3751  -31.3679   26.1427 C   0  0  0  0  0  0
  -27.0283  -30.3053   24.6008 C   0  0  0  0  0  0
  -27.6057  -32.4286   25.7480 C   0  0  0  0  0  0
  -27.5582  -37.1813   24.8457 C   0  0  0  0  0  0
  -21.4095  -29.3041   22.3728 N   0  0  0  0  0  0
  -26.4292  -37.3793   23.9395 N   0  0  0  0  0  0
  -24.6619  -31.0797   22.1018 N   0  0  0  0  0  0
  -23.4168  -28.8246   23.3035 O   0  0  0  0  0  0
  -28.4073  -26.7084   20.1144 O   0  0  0  0  0  0
  -26.5607  -34.8932   22.4675 O   0  0  0  0  0  0
  -23.5343  -32.1463   23.7543 O   0  0  0  0  0  0
  -28.3972  -22.9098   22.2850 C   0  0  0  0  0  0
  -28.4712  -24.1405   21.5926 C   0  0  0  0  0  0
  -28.2219  -22.9453   19.5146 C   0  0  0  0  0  0
  -28.2731  -21.6537   21.6242 C   0  0  0  0  0  0
  -28.3906  -24.1746   20.1903 C   0  0  0  0  0  0
  -28.1314  -21.7097   20.2100 C   0  0  0  0  0  0
  -29.3507  -18.9046   23.5068 C   0  0  0  0  0  0
  -28.0961  -20.3380   22.4596 C   0  0  1  0  0  0
  -28.4833  -18.8027   22.2590 C   0  0  2  0  0  0
  -28.5833  -20.1479   23.9365 C   0  0  1  0  0  0
  -27.8195  -20.4704   19.3978 C   0  0  0  0  0  0
  -28.5500  -25.4753   19.3845 C   0  0  0  0  0  0
  -29.1165  -18.0223   21.0800 C   0  0  0  0  0  0
  -29.5569  -16.5738   21.5097 C   0  0  0  0  0  0
  -29.8672  -15.6490   20.4026 N   0  0  0  0  0  0
  -29.4949  -21.1467   24.5274 N   0  3  0  0  0  0
  -31.4643  -12.4574   19.1374 H   0  0  0  0  0  0
  -30.3299  -11.3466   19.8707 H   0  0  0  0  0  0
  -29.7421  -11.7525   17.4559 H   0  0  0  0  0  0
  -29.6569  -13.4732   17.7462 H   0  0  0  0  0  0
  -27.8255  -11.3110   18.8247 H   0  0  0  0  0  0
  -27.3660  -12.6340   17.7840 H   0  0  0  0  0  0
  -27.6702  -14.2584   19.5350 H   0  0  0  0  0  0
  -28.6856  -12.0553   21.4022 H   0  0  0  0  0  0
  -28.4661  -13.7382   21.8207 H   0  0  0  0  0  0
  -25.2753   -9.5713   22.4765 H   0  0  0  0  0  0
  -24.0007   -7.4651   22.7460 H   0  0  0  0  0  0
  -21.0839   -8.8790   19.8939 H   0  0  0  0  0  0
  -22.3689  -10.9699   19.6160 H   0  0  0  0  0  0
  -21.2011   -7.6148   23.9721 H   0  0  0  0  0  0
  -21.1476   -6.0522   25.9080 H   0  0  0  0  0  0
  -22.0595   -2.7606   23.2849 H   0  0  0  0  0  0
  -22.4068  -11.9895   22.4816 H   0  0  0  0  0  0
  -21.1088  -13.1253   22.2608 H   0  0  0  0  0  0
  -24.6757  -15.8582   20.5383 H   0  0  0  0  0  0
  -26.3002  -15.6223   20.1314 H   0  0  0  0  0  0
  -26.7088  -32.5526   23.1118 H   0  0  0  0  0  0
  -25.0034  -33.9810   25.0428 H   0  0  0  0  0  0
  -22.6790  -31.3098   21.4248 H   0  0  0  0  0  0
  -23.3747  -35.9678   23.3301 H   0  0  0  0  0  0
  -24.3580  -36.8942   22.2045 H   0  0  0  0  0  0
  -23.7280  -37.6540   23.6666 H   0  0  0  0  0  0
  -26.0206  -31.5903   20.5827 H   0  0  0  0  0  0
  -26.8136  -30.8935   21.9681 H   0  0  0  0  0  0
  -28.0747  -29.0774   21.1836 H   0  0  0  0  0  0
  -25.9775  -25.9580   19.0221 H   0  0  0  0  0  0
  -23.9525  -27.3171   19.0266 H   0  0  0  0  0  0
  -23.7057  -30.6136   19.4110 H   0  0  0  0  0  0
  -22.7161  -29.2645   19.8659 H   0  0  0  0  0  0
  -25.1302  -36.1954   25.0831 H   0  0  0  0  0  0
  -21.0044  -28.3171   24.1431 H   0  0  0  0  0  0
  -20.6086  -26.2138   23.3397 H   0  0  0  0  0  0
  -21.6554  -26.7736   22.0760 H   0  0  0  0  0  0
  -19.6796  -25.6347   21.1244 H   0  0  0  0  0  0
  -19.6430  -27.3264   20.6850 H   0  0  0  0  0  0
  -17.4107  -26.6626   21.4354 H   0  0  0  0  0  0
  -18.0423  -26.0085   22.9354 H   0  0  0  0  0  0
  -19.7969  -30.7274   24.2433 H   0  0  0  0  0  0
  -17.5062  -31.6331   24.5265 H   0  0  0  0  0  0
  -15.5412  -30.3127   23.7770 H   0  0  0  0  0  0
  -15.8610  -28.0807   22.7418 H   0  0  0  0  0  0
  -24.5978  -30.6972   25.7759 H   0  0  0  0  0  0
  -24.8896  -32.2815   26.4852 H   0  0  0  0  0  0
  -25.8132  -30.8881   27.0183 H   0  0  0  0  0  0
  -26.2795  -29.6845   24.1066 H   0  0  0  0  0  0
  -27.4072  -29.7267   25.4439 H   0  0  0  0  0  0
  -27.8636  -30.4380   23.9124 H   0  0  0  0  0  0
  -27.2699  -33.3581   26.2080 H   0  0  0  0  0  0
  -28.3906  -32.6808   25.0349 H   0  0  0  0  0  0
  -28.0675  -31.8357   26.5385 H   0  0  0  0  0  0
  -28.2594  -38.0111   24.7487 H   0  0  0  0  0  0
  -28.1081  -36.2635   24.6308 H   0  0  0  0  0  0
  -27.2288  -37.1490   25.8858 H   0  0  0  0  0  0
  -20.9292  -29.8610   21.6785 H   0  0  0  0  0  0
  -26.0173  -38.2874   24.1392 H   0  0  0  0  0  0
  -28.3980  -22.9910   23.3574 H   0  0  0  0  0  0
  -28.5940  -25.0585   22.1514 H   0  0  0  0  0  0
  -28.1524  -22.9563   18.4365 H   0  0  0  0  0  0
  -29.2641  -18.0537   24.1837 H   0  0  0  0  0  0
  -30.3944  -19.0995   23.2527 H   0  0  0  0  0  0
  -27.0042  -20.3301   22.5105 H   0  0  0  0  0  0
  -27.5888  -18.2452   22.5526 H   0  0  0  0  0  0
  -27.7779  -19.8777   24.6208 H   0  0  0  0  0  0
  -28.7198  -19.8878   19.2266 H   0  0  0  0  0  0
  -27.4220  -20.7365   18.4163 H   0  0  0  0  0  0
  -27.0753  -19.8524   19.9010 H   0  0  0  0  0  0
  -27.9400  -25.4436   18.4828 H   0  0  0  0  0  0
  -29.5701  -25.4863   18.9985 H   0  0  0  0  0  0
  -29.9759  -18.5643   20.6789 H   0  0  0  0  0  0
  -28.3906  -17.9350   20.2734 H   0  0  0  0  0  0
  -28.7596  -16.1248   22.0988 H   0  0  0  0  0  0
  -30.4257  -16.6415   22.1699 H   0  0  0  0  0  0
  -30.1075  -16.1739   19.5735 H   0  0  0  0  0  0
  -28.9791  -21.8198   25.0669 H   0  0  0  0  0  0
  -30.0090  -21.6298   23.8112 H   0  0  0  0  0  0
  -30.1467  -20.7071   25.1521 H   0  0  0  0  0  0
  1 25  1  0  0  0
  1 30  2  0  0  0
  1 85  1  0  0  0
  2  3  1  0  0  0
  2 25  1  0  0  0
  2 87  1  0  0  0
  2 88  1  0  0  0
  3  4  1  0  0  0
  3 89  1  0  0  0
  3 90  1  0  0  0
  4  5  1  0  0  0
  4 91  1  0  0  0
  4 92  1  0  0  0
  5  6  1  0  0  0
  5 26  1  0  0  0
  5 93  1  0  0  0
  6 25  1  0  0  0
  6 94  1  0  0  0
  6 95  1  0  0  0
  7  8  2  0  0  0
  7 26  1  0  0  0
  7 29  1  0  0  0
  8  9  1  0  0  0
  8 22  1  0  0  0
  9 10  1  0  0  0
  9 27  2  0  0  0
 10 11  2  0  0  0
 10 15  1  0  0  0
 11 12  1  0  0  0
 11 96  1  0  0  0
 12 13  2  0  0  0
 12 97  1  0  0  0
 13 14  1  0  0  0
 13 31  1  0  0  0
 14 15  2  0  0  0
 14 98  1  0  0  0
 15 99  1  0  0  0
 16 17  2  0  0  0
 16 21  1  0  0  0
 16 31  1  0  0  0
 17 18  1  0  0  0
 17100  1  0  0  0
 18 19  2  0  0  0
 18101  1  0  0  0
 19 20  1  0  0  0
 19 24  1  0  0  0
 20 21  2  0  0  0
 20102  1  0  0  0
 21 23  1  0  0  0
 22 28  1  0  0  0
 22 32  2  0  0  0
 26 27  1  0  0  0
 28103  1  0  0  0
 28104  1  0  0  0
 29105  1  0  0  0
 29106  1  0  0  0
 33 34  1  0  0  0
 33 66  1  0  0  0
 33 70  2  0  0  0
 34 36  1  0  0  0
 34 59  1  0  0  0
 34107  1  0  0  0
 35 44  2  0  0  0
 35 45  1  0  0  0
 35 68  1  0  0  0
 36 56  1  0  0  0
 36108  1  0  0  0
 37 39  1  0  0  0
 37 47  1  0  0  0
 37 66  1  0  0  0
 37109  1  0  0  0
 38 43  2  0  0  0
 38 46  1  0  0  0
 38 47  1  0  0  0
 39 64  1  0  0  0
 39 67  2  0  0  0
 40 52  1  0  0  0
 40 53  2  0  0  0
 40 58  1  0  0  0
 41110  1  0  0  0
 41111  1  0  0  0
 41112  1  0  0  0
 41 48  1  0  0  0
 42 43  1  0  0  0
 42 66  1  0  0  0
 42113  1  0  0  0
 42114  1  0  0  0
 43 44  1  0  0  0
 44115  1  0  0  0
 45 46  2  0  0  0
 45116  1  0  0  0
 46117  1  0  0  0
 47118  1  0  0  0
 47119  1  0  0  0
 48 56  1  0  0  0
 48 65  1  0  0  0
 48120  1  0  0  0
 49 50  1  0  0  0
 49 53  1  0  0  0
 49 64  1  0  0  0
 49121  1  0  0  0
 50 51  1  0  0  0
 50122  1  0  0  0
 50123  1  0  0  0
 51 52  1  0  0  0
 51124  1  0  0  0
 51125  1  0  0  0
 52126  1  0  0  0
 52127  1  0  0  0
 53 54  1  0  0  0
 54 55  2  0  0  0
 54128  1  0  0  0
 55 57  1  0  0  0
 55129  1  0  0  0
 56 69  2  0  0  0
 57 58  2  0  0  0
 57130  1  0  0  0
 58131  1  0  0  0
 59 60  1  0  0  0
 59 61  1  0  0  0
 59 62  1  0  0  0
 60132  1  0  0  0
 60133  1  0  0  0
 60134  1  0  0  0
 61135  1  0  0  0
 61136  1  0  0  0
 61137  1  0  0  0
 62138  1  0  0  0
 62139  1  0  0  0
 62140  1  0  0  0
 63 65  1  0  0  0
 63141  1  0  0  0
 63142  1  0  0  0
 63143  1  0  0  0
 64144  1  0  0  0
 65145  1  0  0  0
 68 82  1  0  0  0
 71 72  2  0  0  0
 71 74  1  0  0  0
 71146  1  0  0  0
 72 75  1  0  0  0
 72147  1  0  0  0
 73 75  2  0  0  0
 73 76  1  0  0  0
 73148  1  0  0  0
 74 76  2  0  0  0
 74 78  1  0  0  0
 75 82  1  0  0  0
 76 81  1  0  0  0
 77 79  1  0  0  0
 77 80  1  0  0  0
 77149  1  0  0  0
 77150  1  0  0  0
 78 79  1  0  0  0
 78 80  1  0  0  0
 78151  1  0  0  0
 79 83  1  0  0  0
 79152  1  0  0  0
 80 86  1  0  0  0
 80153  1  0  0  0
 81154  1  0  0  0
 81155  1  0  0  0
 81156  1  0  0  0
 82157  1  0  0  0
 82158  1  0  0  0
 83 84  1  0  0  0
 83159  1  0  0  0
 83160  1  0  0  0
 84 85  1  0  0  0
 84161  1  0  0  0
 84162  1  0  0  0
 85163  1  0  0  0
 86164  1  0  0  0
 86165  1  0  0  0
 86166  1  0  0  0
M  CHG  1  86   1
M  ISO  4   1 100  68 101  82 101  85 100
M  END
> <chiral flag>
0

> <version>
0

> <s_m_source_file>
/data/baiqing/PycharmProjects/Reinvent-master-3.2/result/LINK_invent/BTK/process_docking_weight1_custom_sum_contain_oxygen_bond_distance_aromatic_linkinvent_7_9_3/rearranged_h_0119.sdf

> <i_m_source_file_index>
28

> <r_mmod_Potential_Energy-OPLS-2005>
-96.3140258789062

> <r_mmod_Stretch_Energy-OPLS-2005>
52.7071647644043

> <r_mmod_Bend_Energy-OPLS-2005>
178.873443603516

> <r_mmod_Torsional_Energy-OPLS-2005>
325.784362792969

> <r_mmod_Improper_Torsional_Energy-OPLS-2005>
21.3561820983887

> <r_mmod_Van_der_Waal_Energy-OPLS-2005>
149.911407470703

> <r_mmod_Electrostatic_Energy-OPLS-2005>
-347.330108642578

> <r_mmod_Solvation_Energy-OPLS-2005>
-502.707489013672

> <b_mmod_Minimization_Converged-OPLS-2005>
0

> <r_mmod_RMS_Derivative-OPLS-2005>
5.38042831420898

$$$$
28
                    3D
 Structure written by MMmdl.
159167  0  0  1  0            999 V2000
  -30.5820  -14.9638   20.4340 C   0  0  0  0  0  0
  -30.4285  -12.6100   19.5056 C   0  0  0  0  0  0
  -29.5141  -12.5352   18.2609 C   0  0  0  0  0  0
  -28.0564  -12.3013   18.6868 C   0  0  0  0  0  0
  -27.6252  -13.2516   19.8332 C   0  0  2  0  0  0
  -28.6655  -13.3213   20.9741 C   0  0  0  0  0  0
  -25.2449  -13.8198   20.5705 C   0  0  0  0  0  0
  -24.1758  -13.0447   20.9260 C   0  0  0  0  0  0
  -24.6394  -11.6940   20.8775 C   0  0  0  0  0  0
  -23.9078  -10.4316   21.0427 C   0  0  0  0  0  0
  -24.3646   -9.4199   21.9176 C   0  0  0  0  0  0
  -23.6299   -8.2228   22.0750 C   0  0  0  0  0  0
  -22.4275   -8.0285   21.3530 C   0  0  0  0  0  0
  -21.9927   -9.0279   20.4643 C   0  0  0  0  0  0
  -22.7263  -10.2148   20.3037 C   0  0  0  0  0  0
  -21.6824   -6.0759   22.5309 C   0  0  0  0  0  0
  -21.4033   -6.5668   23.8257 C   0  0  0  0  0  0
  -21.3663   -5.6777   24.9208 C   0  0  0  0  0  0
  -21.6014   -4.3054   24.7236 C   0  0  0  0  0  0
  -21.8806   -3.8166   23.4361 C   0  0  0  0  0  0
  -21.9203   -4.6990   22.3418 C   0  0  0  0  0  0
  -22.7786  -13.5234   21.1879 C   0  0  0  0  0  0
  -22.1644   -4.2175   21.0997 F   0  0  0  0  0  0
  -21.5629   -3.4546   25.7762 F   0  0  0  0  0  0
  -29.9434  -13.7246   20.3740 N   0  0  0  0  0  0
  -26.2877  -12.9451   20.3240 N   0  0  0  0  0  0
  -25.9323  -11.6598   20.5738 N   0  0  0  0  0  0
  -22.0429  -12.8207   22.0477 N   0  0  0  0  0  0
  -25.4097  -15.1921   20.4163 N   0  0  0  0  0  0
  -31.7810  -14.9763   20.1453 O   0  0  0  0  0  0
  -21.6591   -6.8892   21.4259 O   0  0  0  0  0  0
  -22.3483  -14.5527   20.6714 O   0  0  0  0  0  0
  -24.6397  -31.8505   23.1861 C   0  0  0  0  0  0
  -25.9138  -32.4734   23.8293 C   0  0  1  0  0  0
  -27.2324  -27.1447   20.1775 C   0  0  0  0  0  0
  -25.5906  -33.8548   24.2201 N   0  0  0  0  0  0
  -23.4519  -30.4648   21.5245 C   0  0  2  0  0  0
  -24.9104  -28.8831   20.1195 C   0  0  0  0  0  0
  -22.7572  -29.4609   22.4791 C   0  0  0  0  0  0
  -18.0339  -28.1456   22.8465 C   0  0  0  0  0  0
  -24.1505  -36.7257   23.2616 C   0  0  0  0  0  0
  -26.0072  -30.7298   21.3857 C   0  0  0  0  0  0
  -26.0852  -29.3323   20.7402 C   0  0  0  0  0  0
  -27.2493  -28.4793   20.7475 C   0  0  0  0  0  0
  -26.0302  -26.7985   19.5188 C   0  0  0  0  0  0
  -24.8905  -27.6236   19.5064 C   0  0  0  0  0  0
  -23.6889  -29.7818   20.1518 C   0  0  0  0  0  0
  -25.4132  -36.3031   24.0297 C   0  0  1  0  0  0
  -20.5925  -28.3801   23.1171 C   0  0  2  0  0  0
  -20.6808  -26.9479   22.5392 C   0  0  0  0  0  0
  -19.5793  -26.6433   21.5190 C   0  0  0  0  0  0
  -18.1971  -26.8000   22.1603 C   0  0  0  0  0  0
  -19.1586  -28.8951   23.2807 C   0  0  0  0  0  0
  -18.9491  -30.1503   23.8893 C   0  0  0  0  0  0
  -17.6491  -30.6622   24.0579 C   0  0  0  0  0  0
  -25.9090  -34.9405   23.5072 C   0  0  0  0  0  0
  -16.5376  -29.9116   23.6316 C   0  0  0  0  0  0
  -16.7312  -28.6553   23.0330 C   0  0  0  0  0  0
  -26.4530  -31.6547   25.0700 C   0  0  0  0  0  0
  -25.3740  -31.3688   26.1392 C   0  0  0  0  0  0
  -27.0369  -30.2955   24.6231 C   0  0  0  0  0  0
  -27.6117  -32.4268   25.7493 C   0  0  0  0  0  0
  -27.5571  -37.1770   24.8455 C   0  0  0  0  0  0
  -21.4273  -29.3131   22.3549 N   0  0  0  0  0  0
  -26.4308  -37.3723   23.9364 N   0  0  0  0  0  0
  -24.7183  -31.0392   22.0853 N   0  0  0  0  0  0
  -23.4182  -28.8132   23.2929 O   0  0  0  0  0  0
  -28.2968  -26.1756   20.2233 O   0  0  0  0  0  0
  -26.5660  -34.8869   22.4648 O   0  0  0  0  0  0
  -23.5518  -32.1334   23.7095 O   0  0  0  0  0  0
  -29.9121  -20.5381   19.8922 C   0  0  0  0  0  0
  -28.6990  -19.7079   21.7593 C   0  0  0  0  0  0
  -29.3652  -19.1049   20.4653 C   0  0  1  0  0  0
  -29.3085  -21.8203   20.7043 C   0  0  1  0  0  0
  -31.4891  -17.9465   21.5185 C   0  0  0  0  0  0
  -29.5794  -23.4509   18.6546 C   0  0  0  0  0  0
  -28.0333  -24.6432   20.3729 C   0  0  0  0  0  0
  -30.3466  -17.7104   20.5116 C   0  0  1  0  0  0
  -29.1805  -23.4340   20.1397 C   0  0  2  0  0  0
  -29.8745  -16.1953   20.6043 N   0  0  0  0  0  0
  -28.2722  -21.1535   21.5321 N   0  3  0  0  0  0
  -31.4592  -12.7562   19.1866 H   0  0  0  0  0  0
  -30.4170  -11.6711   20.0600 H   0  0  0  0  0  0
  -29.8447  -11.7341   17.5975 H   0  0  0  0  0  0
  -29.5788  -13.4638   17.6903 H   0  0  0  0  0  0
  -27.9685  -11.2632   19.0121 H   0  0  0  0  0  0
  -27.3855  -12.4020   17.8308 H   0  0  0  0  0  0
  -27.5704  -14.2420   19.3773 H   0  0  0  0  0  0
  -28.7536  -12.3561   21.4778 H   0  0  0  0  0  0
  -28.3474  -14.0380   21.7283 H   0  0  0  0  0  0
  -25.2823   -9.5636   22.4766 H   0  0  0  0  0  0
  -24.0018   -7.4580   22.7459 H   0  0  0  0  0  0
  -21.0857   -8.8793   19.8933 H   0  0  0  0  0  0
  -22.3735  -10.9698   19.6151 H   0  0  0  0  0  0
  -21.1988   -7.6168   23.9767 H   0  0  0  0  0  0
  -21.1499   -6.0522   25.9092 H   0  0  0  0  0  0
  -22.0571   -2.7644   23.2855 H   0  0  0  0  0  0
  -22.4111  -11.9889   22.4847 H   0  0  0  0  0  0
  -21.1041  -13.1205   22.2663 H   0  0  0  0  0  0
  -24.6359  -15.8402   20.5102 H   0  0  0  0  0  0
  -26.2485  -15.6345   20.0693 H   0  0  0  0  0  0
  -26.7239  -32.5393   23.1061 H   0  0  0  0  0  0
  -25.0050  -33.9692   25.0345 H   0  0  0  0  0  0
  -22.7555  -31.2886   21.3580 H   0  0  0  0  0  0
  -23.3793  -35.9569   23.3315 H   0  0  0  0  0  0
  -24.3603  -36.8882   22.2027 H   0  0  0  0  0  0
  -23.7281  -37.6456   23.6698 H   0  0  0  0  0  0
  -26.1524  -31.4713   20.5973 H   0  0  0  0  0  0
  -26.8797  -30.8018   22.0236 H   0  0  0  0  0  0
  -28.1475  -28.8103   21.2477 H   0  0  0  0  0  0
  -25.9386  -25.8505   19.0128 H   0  0  0  0  0  0
  -23.9905  -27.2663   19.0218 H   0  0  0  0  0  0
  -23.8313  -30.5438   19.3870 H   0  0  0  0  0  0
  -22.8186  -29.2036   19.8447 H   0  0  0  0  0  0
  -25.1345  -36.1859   25.0810 H   0  0  0  0  0  0
  -21.0063  -28.3438   24.1250 H   0  0  0  0  0  0
  -20.5675  -26.2421   23.3641 H   0  0  0  0  0  0
  -21.6673  -26.7459   22.1182 H   0  0  0  0  0  0
  -19.6934  -25.6332   21.1239 H   0  0  0  0  0  0
  -19.6717  -27.3226   20.6716 H   0  0  0  0  0  0
  -17.4206  -26.6694   21.4029 H   0  0  0  0  0  0
  -18.0384  -26.0162   22.9044 H   0  0  0  0  0  0
  -19.7946  -30.7320   24.2277 H   0  0  0  0  0  0
  -17.5024  -31.6290   24.5200 H   0  0  0  0  0  0
  -15.5361  -30.3015   23.7699 H   0  0  0  0  0  0
  -15.8696  -28.0886   22.7030 H   0  0  0  0  0  0
  -24.6021  -30.6942   25.7658 H   0  0  0  0  0  0
  -24.8812  -32.2843   26.4718 H   0  0  0  0  0  0
  -25.8017  -30.8933   27.0231 H   0  0  0  0  0  0
  -26.2929  -29.6712   24.1288 H   0  0  0  0  0  0
  -27.4042  -29.7244   25.4763 H   0  0  0  0  0  0
  -27.8831  -30.4228   23.9484 H   0  0  0  0  0  0
  -27.2830  -33.3660   26.1975 H   0  0  0  0  0  0
  -28.3991  -32.6643   25.0327 H   0  0  0  0  0  0
  -28.0713  -31.8419   26.5479 H   0  0  0  0  0  0
  -28.2563  -38.0070   24.7476 H   0  0  0  0  0  0
  -28.1086  -36.2607   24.6361 H   0  0  0  0  0  0
  -27.2271  -37.1463   25.8842 H   0  0  0  0  0  0
  -20.9499  -29.8820   21.6702 H   0  0  0  0  0  0
  -26.0189  -38.2793   24.1398 H   0  0  0  0  0  0
  -29.6669  -20.6090   18.8289 H   0  0  0  0  0  0
  -31.0020  -20.5736   19.9446 H   0  0  0  0  0  0
  -29.4379  -19.7231   22.5640 H   0  0  0  0  0  0
  -27.8612  -19.0988   22.1055 H   0  0  0  0  0  0
  -28.5268  -18.8226   19.8249 H   0  0  0  0  0  0
  -30.0532  -21.9544   21.4949 H   0  0  0  0  0  0
  -31.1498  -17.7695   22.5395 H   0  0  0  0  0  0
  -31.8916  -18.9611   21.4630 H   0  0  0  0  0  0
  -32.3339  -17.2737   21.3419 H   0  0  0  0  0  0
  -29.5330  -24.4605   18.2356 H   0  0  0  0  0  0
  -28.9325  -22.8083   18.0561 H   0  0  0  0  0  0
  -30.6017  -23.0914   18.5290 H   0  0  0  0  0  0
  -27.2320  -24.3651   19.6919 H   0  0  0  0  0  0
  -27.5830  -24.5257   21.3590 H   0  0  0  0  0  0
  -30.8267  -17.7214   19.5318 H   0  0  0  0  0  0
  -30.0288  -23.9043   20.6446 H   0  0  0  0  0  0
  -28.8863  -16.0661   20.7496 H   0  0  0  0  0  0
  -28.1883  -21.6161   22.4258 H   0  0  0  0  0  0
  -27.3693  -21.1869   21.0829 H   0  0  0  0  0  0
  1 25  1  0  0  0
  1 30  2  0  0  0
  1 80  1  0  0  0
  2  3  1  0  0  0
  2 25  1  0  0  0
  2 82  1  0  0  0
  2 83  1  0  0  0
  3  4  1  0  0  0
  3 84  1  0  0  0
  3 85  1  0  0  0
  4  5  1  0  0  0
  4 86  1  0  0  0
  4 87  1  0  0  0
  5  6  1  0  0  0
  5 26  1  0  0  0
  5 88  1  0  0  0
  6 25  1  0  0  0
  6 89  1  0  0  0
  6 90  1  0  0  0
  7  8  2  0  0  0
  7 26  1  0  0  0
  7 29  1  0  0  0
  8  9  1  0  0  0
  8 22  1  0  0  0
  9 10  1  0  0  0
  9 27  2  0  0  0
 10 11  2  0  0  0
 10 15  1  0  0  0
 11 12  1  0  0  0
 11 91  1  0  0  0
 12 13  2  0  0  0
 12 92  1  0  0  0
 13 14  1  0  0  0
 13 31  1  0  0  0
 14 15  2  0  0  0
 14 93  1  0  0  0
 15 94  1  0  0  0
 16 17  2  0  0  0
 16 21  1  0  0  0
 16 31  1  0  0  0
 17 18  1  0  0  0
 17 95  1  0  0  0
 18 19  2  0  0  0
 18 96  1  0  0  0
 19 20  1  0  0  0
 19 24  1  0  0  0
 20 21  2  0  0  0
 20 97  1  0  0  0
 21 23  1  0  0  0
 22 28  1  0  0  0
 22 32  2  0  0  0
 26 27  1  0  0  0
 28 98  1  0  0  0
 28 99  1  0  0  0
 29100  1  0  0  0
 29101  1  0  0  0
 33 34  1  0  0  0
 33 66  1  0  0  0
 33 70  2  0  0  0
 34 36  1  0  0  0
 34 59  1  0  0  0
 34102  1  0  0  0
 35 44  2  0  0  0
 35 45  1  0  0  0
 35 68  1  0  0  0
 36 56  1  0  0  0
 36103  1  0  0  0
 37 39  1  0  0  0
 37 47  1  0  0  0
 37 66  1  0  0  0
 37104  1  0  0  0
 38 43  2  0  0  0
 38 46  1  0  0  0
 38 47  1  0  0  0
 39 64  1  0  0  0
 39 67  2  0  0  0
 40 52  1  0  0  0
 40 53  2  0  0  0
 40 58  1  0  0  0
 41105  1  0  0  0
 41106  1  0  0  0
 41107  1  0  0  0
 41 48  1  0  0  0
 42 43  1  0  0  0
 42 66  1  0  0  0
 42108  1  0  0  0
 42109  1  0  0  0
 43 44  1  0  0  0
 44110  1  0  0  0
 45 46  2  0  0  0
 45111  1  0  0  0
 46112  1  0  0  0
 47113  1  0  0  0
 47114  1  0  0  0
 48 56  1  0  0  0
 48 65  1  0  0  0
 48115  1  0  0  0
 49 50  1  0  0  0
 49 53  1  0  0  0
 49 64  1  0  0  0
 49116  1  0  0  0
 50 51  1  0  0  0
 50117  1  0  0  0
 50118  1  0  0  0
 51 52  1  0  0  0
 51119  1  0  0  0
 51120  1  0  0  0
 52121  1  0  0  0
 52122  1  0  0  0
 53 54  1  0  0  0
 54 55  2  0  0  0
 54123  1  0  0  0
 55 57  1  0  0  0
 55124  1  0  0  0
 56 69  2  0  0  0
 57 58  2  0  0  0
 57125  1  0  0  0
 58126  1  0  0  0
 59 60  1  0  0  0
 59 61  1  0  0  0
 59 62  1  0  0  0
 60127  1  0  0  0
 60128  1  0  0  0
 60129  1  0  0  0
 61130  1  0  0  0
 61131  1  0  0  0
 61132  1  0  0  0
 62133  1  0  0  0
 62134  1  0  0  0
 62135  1  0  0  0
 63 65  1  0  0  0
 63136  1  0  0  0
 63137  1  0  0  0
 63138  1  0  0  0
 64139  1  0  0  0
 65140  1  0  0  0
 68 77  1  0  0  0
 71141  1  0  0  0
 71142  1  0  0  0
 71 73  1  0  0  0
 71 74  1  0  0  0
 72 73  1  0  0  0
 72 81  1  0  0  0
 72143  1  0  0  0
 72144  1  0  0  0
 73 78  1  0  0  0
 73145  1  0  0  0
 74 79  1  0  0  0
 74 81  1  0  0  0
 74146  1  0  0  0
 75147  1  0  0  0
 75148  1  0  0  0
 75149  1  0  0  0
 75 78  1  0  0  0
 76150  1  0  0  0
 76151  1  0  0  0
 76152  1  0  0  0
 76 79  1  0  0  0
 77 79  1  0  0  0
 77153  1  0  0  0
 77154  1  0  0  0
 78 80  1  0  0  0
 78155  1  0  0  0
 79156  1  0  0  0
 80157  1  0  0  0
 81158  1  0  0  0
 81159  1  0  0  0
M  CHG  1  81   1
M  ISO  4   1 100  68 101  77 101  80 100
M  END
> <chiral flag>
0

> <version>
0

> <s_m_source_file>
/data/baiqing/PycharmProjects/Reinvent-master-3.2/result/LINK_invent/BTK/process_docking_weight1_custom_sum_contain_oxygen_bond_distance_aromatic_linkinvent_7_9_3/rearranged_h_0119.sdf

> <i_m_source_file_index>
29

> <r_mmod_Potential_Energy-OPLS-2005>
497.044677734375

> <r_mmod_Stretch_Energy-OPLS-2005>
271.418060302734

> <r_mmod_Bend_Energy-OPLS-2005>
335.971984863281

> <r_mmod_Torsional_Energy-OPLS-2005>
313.405120849609

> <r_mmod_Improper_Torsional_Energy-OPLS-2005>
4.39030838012695

> <r_mmod_Van_der_Waal_Energy-OPLS-2005>
112.32625579834

> <r_mmod_Electrostatic_Energy-OPLS-2005>
-250.769195556641

> <r_mmod_Solvation_Energy-OPLS-2005>
-484.276916503906

> <b_mmod_Minimization_Converged-OPLS-2005>
0

> <r_mmod_RMS_Derivative-OPLS-2005>
7.73393535614014

$$$$
29
                    3D
 Structure written by MMmdl.
157166  0  0  1  0            999 V2000
  -30.5970  -14.7687   20.4581 C   0  0  0  0  0  0
  -30.4331  -12.4720   19.4802 C   0  0  0  0  0  0
  -29.5101  -12.5052   18.2416 C   0  0  0  0  0  0
  -28.0354  -12.3308   18.6546 C   0  0  0  0  0  0
  -27.6386  -13.2339   19.8528 C   0  0  2  0  0  0
  -28.6831  -13.1742   20.9890 C   0  0  0  0  0  0
  -25.2474  -13.8177   20.5670 C   0  0  0  0  0  0
  -24.1785  -13.0424   20.9238 C   0  0  0  0  0  0
  -24.6377  -11.6912   20.8768 C   0  0  0  0  0  0
  -23.9059  -10.4284   21.0417 C   0  0  0  0  0  0
  -24.3627   -9.4188   21.9168 C   0  0  0  0  0  0
  -23.6303   -8.2222   22.0738 C   0  0  0  0  0  0
  -22.4277   -8.0275   21.3538 C   0  0  0  0  0  0
  -21.9903   -9.0254   20.4659 C   0  0  0  0  0  0
  -22.7225  -10.2137   20.3073 C   0  0  0  0  0  0
  -21.6860   -6.0736   22.5267 C   0  0  0  0  0  0
  -21.4025   -6.5640   23.8202 C   0  0  0  0  0  0
  -21.3657   -5.6794   24.9163 C   0  0  0  0  0  0
  -21.6040   -4.3056   24.7213 C   0  0  0  0  0  0
  -21.8823   -3.8150   23.4332 C   0  0  0  0  0  0
  -21.9191   -4.6964   22.3392 C   0  0  0  0  0  0
  -22.7810  -13.5204   21.1891 C   0  0  0  0  0  0
  -22.1658   -4.2148   21.0972 F   0  0  0  0  0  0
  -21.5622   -3.4541   25.7730 F   0  0  0  0  0  0
  -29.9809  -13.5369   20.4060 N   0  0  0  0  0  0
  -26.2912  -12.9399   20.3289 N   0  0  0  0  0  0
  -25.9311  -11.6540   20.5774 N   0  0  0  0  0  0
  -22.0472  -12.8211   22.0482 N   0  0  0  0  0  0
  -25.4123  -15.1885   20.3987 N   0  0  0  0  0  0
  -31.7838  -14.8679   20.1329 O   0  0  0  0  0  0
  -21.6646   -6.8873   21.4230 O   0  0  0  0  0  0
  -22.3488  -14.5495   20.6715 O   0  0  0  0  0  0
  -24.6341  -31.8522   23.1972 C   0  0  0  0  0  0
  -25.9161  -32.4733   23.8315 C   0  0  1  0  0  0
  -27.2147  -27.2367   20.1329 C   0  0  0  0  0  0
  -25.5963  -33.8536   24.2245 N   0  0  0  0  0  0
  -23.4304  -30.4766   21.5401 C   0  0  2  0  0  0
  -24.8787  -28.9246   20.1051 C   0  0  0  0  0  0
  -22.7509  -29.4590   22.4887 C   0  0  0  0  0  0
  -18.0293  -28.1384   22.8479 C   0  0  0  0  0  0
  -24.1497  -36.7269   23.2642 C   0  0  0  0  0  0
  -25.9790  -30.7594   21.3801 C   0  0  0  0  0  0
  -26.0506  -29.3806   20.7216 C   0  0  0  0  0  0
  -27.2193  -28.5485   20.7262 C   0  0  0  0  0  0
  -26.0249  -26.8676   19.4643 C   0  0  0  0  0  0
  -24.8744  -27.6788   19.4625 C   0  0  0  0  0  0
  -23.6489  -29.8114   20.1556 C   0  0  0  0  0  0
  -25.4124  -36.3049   24.0321 C   0  0  1  0  0  0
  -20.5896  -28.3692   23.1265 C   0  0  2  0  0  0
  -20.6776  -26.9401   22.5416 C   0  0  0  0  0  0
  -19.5751  -26.6373   21.5219 C   0  0  0  0  0  0
  -18.1927  -26.7931   22.1618 C   0  0  0  0  0  0
  -19.1547  -28.8855   23.2864 C   0  0  0  0  0  0
  -18.9471  -30.1464   23.8869 C   0  0  0  0  0  0
  -17.6467  -30.6584   24.0563 C   0  0  0  0  0  0
  -25.9068  -34.9422   23.5080 C   0  0  0  0  0  0
  -16.5356  -29.9075   23.6344 C   0  0  0  0  0  0
  -16.7279  -28.6499   23.0347 C   0  0  0  0  0  0
  -26.4520  -31.6564   25.0716 C   0  0  0  0  0  0
  -25.3738  -31.3715   26.1434 C   0  0  0  0  0  0
  -27.0384  -30.2978   24.6231 C   0  0  0  0  0  0
  -27.6065  -32.4316   25.7491 C   0  0  0  0  0  0
  -27.5570  -37.1791   24.8464 C   0  0  0  0  0  0
  -21.4207  -29.3039   22.3645 N   0  0  0  0  0  0
  -26.4286  -37.3754   23.9411 N   0  0  0  0  0  0
  -24.7003  -31.0472   22.0959 N   0  0  0  0  0  0
  -23.4204  -28.8120   23.2983 O   0  0  0  0  0  0
  -28.2927  -26.3146   20.2245 O   0  0  0  0  0  0
  -26.5625  -34.8892   22.4643 O   0  0  0  0  0  0
  -23.5488  -32.1363   23.7254 O   0  0  0  0  0  0
  -27.5933  -19.6859   22.2686 C   0  0  0  0  0  0
  -27.8723  -20.9412   21.6984 C   0  0  0  0  0  0
  -28.3007  -18.5216   21.8862 C   0  0  0  0  0  0
  -29.3005  -18.6353   20.8818 C   0  0  0  0  0  0
  -28.8588  -21.0469   20.7102 C   0  0  0  0  0  0
  -27.4582  -17.1531   23.9880 C   0  0  0  0  0  0
  -28.8025  -16.5843   23.6089 C   0  0  0  0  0  0
  -27.9296  -17.2212   22.5496 C   0  0  0  0  0  0
  -30.1996  -17.3763   20.4354 C   0  0  0  0  0  0
  -28.0691  -24.8335   19.9728 C   0  0  0  0  0  0
  -28.9375  -23.6467   20.6746 C   0  0  0  0  0  0
  -29.5402  -19.8944   20.3138 N   0  0  0  0  0  0
  -29.8231  -15.9040   20.6563 N   0  0  0  0  0  0
  -29.1134  -22.2866   20.0472 O   0  0  0  0  0  0
  -31.4717  -12.6033   19.1721 H   0  0  0  0  0  0
  -30.3893  -11.4998   19.9739 H   0  0  0  0  0  0
  -29.7964  -11.7202   17.5400 H   0  0  0  0  0  0
  -29.6347  -13.4515   17.7124 H   0  0  0  0  0  0
  -27.8943  -11.2841   18.9251 H   0  0  0  0  0  0
  -27.3762  -12.5162   17.8052 H   0  0  0  0  0  0
  -27.6311  -14.2551   19.4708 H   0  0  0  0  0  0
  -28.7266  -12.1768   21.4280 H   0  0  0  0  0  0
  -28.4131  -13.8529   21.7992 H   0  0  0  0  0  0
  -25.2783   -9.5660   22.4728 H   0  0  0  0  0  0
  -24.0014   -7.4604   22.7444 H   0  0  0  0  0  0
  -21.0818   -8.8783   19.8983 H   0  0  0  0  0  0
  -22.3652  -10.9686   19.6213 H   0  0  0  0  0  0
  -21.2029   -7.6156   23.9706 H   0  0  0  0  0  0
  -21.1477   -6.0527   25.9061 H   0  0  0  0  0  0
  -22.0608   -2.7615   23.2829 H   0  0  0  0  0  0
  -22.4125  -11.9902   22.4893 H   0  0  0  0  0  0
  -21.1102  -13.1232   22.2741 H   0  0  0  0  0  0
  -24.6274  -15.8265   20.4751 H   0  0  0  0  0  0
  -26.2173  -15.6091   19.9550 H   0  0  0  0  0  0
  -26.7219  -32.5373   23.1039 H   0  0  0  0  0  0
  -25.0143  -33.9676   25.0414 H   0  0  0  0  0  0
  -22.7292  -31.3006   21.3939 H   0  0  0  0  0  0
  -23.3755  -35.9603   23.3303 H   0  0  0  0  0  0
  -24.3594  -36.8903   22.2059 H   0  0  0  0  0  0
  -23.7251  -37.6470   23.6676 H   0  0  0  0  0  0
  -26.1215  -31.5203   20.6112 H   0  0  0  0  0  0
  -26.8554  -30.8063   22.0146 H   0  0  0  0  0  0
  -28.1113  -28.8894   21.2330 H   0  0  0  0  0  0
  -25.9487  -25.9245   18.9458 H   0  0  0  0  0  0
  -23.9823  -27.3328   18.9590 H   0  0  0  0  0  0
  -23.7685  -30.5889   19.4009 H   0  0  0  0  0  0
  -22.7671  -29.2441   19.8513 H   0  0  0  0  0  0
  -25.1301  -36.1886   25.0812 H   0  0  0  0  0  0
  -20.9992  -28.3277   24.1386 H   0  0  0  0  0  0
  -20.5674  -26.2291   23.3621 H   0  0  0  0  0  0
  -21.6639  -26.7419   22.1201 H   0  0  0  0  0  0
  -19.6913  -25.6282   21.1251 H   0  0  0  0  0  0
  -19.6704  -27.3180   20.6751 H   0  0  0  0  0  0
  -17.4205  -26.6691   21.4015 H   0  0  0  0  0  0
  -18.0305  -26.0070   22.9008 H   0  0  0  0  0  0
  -19.7949  -30.7297   24.2199 H   0  0  0  0  0  0
  -17.5024  -31.6260   24.5171 H   0  0  0  0  0  0
  -15.5356  -30.2966   23.7694 H   0  0  0  0  0  0
  -15.8677  -28.0829   22.7052 H   0  0  0  0  0  0
  -24.5944  -30.7014   25.7777 H   0  0  0  0  0  0
  -24.8887  -32.2877   26.4809 H   0  0  0  0  0  0
  -25.8062  -30.8950   27.0240 H   0  0  0  0  0  0
  -26.2981  -29.6693   24.1264 H   0  0  0  0  0  0
  -27.4069  -29.7264   25.4761 H   0  0  0  0  0  0
  -27.8844  -30.4240   23.9471 H   0  0  0  0  0  0
  -27.2678  -33.3638   26.2017 H   0  0  0  0  0  0
  -28.3901  -32.6844   25.0338 H   0  0  0  0  0  0
  -28.0696  -31.8474   26.5455 H   0  0  0  0  0  0
  -28.2578  -38.0093   24.7510 H   0  0  0  0  0  0
  -28.1064  -36.2624   24.6282 H   0  0  0  0  0  0
  -27.2287  -37.1431   25.8864 H   0  0  0  0  0  0
  -20.9382  -29.8778   21.6868 H   0  0  0  0  0  0
  -26.0150  -38.2817   24.1428 H   0  0  0  0  0  0
  -26.8134  -19.6234   23.0134 H   0  0  0  0  0  0
  -27.2891  -21.7971   22.0040 H   0  0  0  0  0  0
  -27.4697  -18.0513   24.6021 H   0  0  0  0  0  0
  -26.6695  -16.4406   24.2241 H   0  0  0  0  0  0
  -28.8908  -15.4998   23.6231 H   0  0  0  0  0  0
  -29.6850  -17.1275   23.9422 H   0  0  0  0  0  0
  -27.4123  -16.5711   21.8481 H   0  0  0  0  0  0
  -31.1719  -17.5211   20.9074 H   0  0  0  0  0  0
  -30.3847  -17.4871   19.3672 H   0  0  0  0  0  0
  -28.1598  -24.7029   18.8945 H   0  0  0  0  0  0
  -27.0374  -24.5834   20.2171 H   0  0  0  0  0  0
  -28.6224  -23.5506   21.7130 H   0  0  0  0  0  0
  -29.9567  -24.0271   20.7477 H   0  0  0  0  0  0
  -28.8553  -15.7447   20.8842 H   0  0  0  0  0  0
  1 25  1  0  0  0
  1 30  2  0  0  0
  1 83  1  0  0  0
  2  3  1  0  0  0
  2 25  1  0  0  0
  2 85  1  0  0  0
  2 86  1  0  0  0
  3  4  1  0  0  0
  3 87  1  0  0  0
  3 88  1  0  0  0
  4  5  1  0  0  0
  4 89  1  0  0  0
  4 90  1  0  0  0
  5  6  1  0  0  0
  5 26  1  0  0  0
  5 91  1  0  0  0
  6 25  1  0  0  0
  6 92  1  0  0  0
  6 93  1  0  0  0
  7  8  2  0  0  0
  7 26  1  0  0  0
  7 29  1  0  0  0
  8  9  1  0  0  0
  8 22  1  0  0  0
  9 10  1  0  0  0
  9 27  2  0  0  0
 10 11  2  0  0  0
 10 15  1  0  0  0
 11 12  1  0  0  0
 11 94  1  0  0  0
 12 13  2  0  0  0
 12 95  1  0  0  0
 13 14  1  0  0  0
 13 31  1  0  0  0
 14 15  2  0  0  0
 14 96  1  0  0  0
 15 97  1  0  0  0
 16 17  2  0  0  0
 16 21  1  0  0  0
 16 31  1  0  0  0
 17 18  1  0  0  0
 17 98  1  0  0  0
 18 19  2  0  0  0
 18 99  1  0  0  0
 19 20  1  0  0  0
 19 24  1  0  0  0
 20 21  2  0  0  0
 20100  1  0  0  0
 21 23  1  0  0  0
 22 28  1  0  0  0
 22 32  2  0  0  0
 26 27  1  0  0  0
 28101  1  0  0  0
 28102  1  0  0  0
 29103  1  0  0  0
 29104  1  0  0  0
 33 34  1  0  0  0
 33 66  1  0  0  0
 33 70  2  0  0  0
 34 36  1  0  0  0
 34 59  1  0  0  0
 34105  1  0  0  0
 35 44  2  0  0  0
 35 45  1  0  0  0
 35 68  1  0  0  0
 36 56  1  0  0  0
 36106  1  0  0  0
 37 39  1  0  0  0
 37 47  1  0  0  0
 37 66  1  0  0  0
 37107  1  0  0  0
 38 43  2  0  0  0
 38 46  1  0  0  0
 38 47  1  0  0  0
 39 64  1  0  0  0
 39 67  2  0  0  0
 40 52  1  0  0  0
 40 53  2  0  0  0
 40 58  1  0  0  0
 41108  1  0  0  0
 41109  1  0  0  0
 41110  1  0  0  0
 41 48  1  0  0  0
 42 43  1  0  0  0
 42 66  1  0  0  0
 42111  1  0  0  0
 42112  1  0  0  0
 43 44  1  0  0  0
 44113  1  0  0  0
 45 46  2  0  0  0
 45114  1  0  0  0
 46115  1  0  0  0
 47116  1  0  0  0
 47117  1  0  0  0
 48 56  1  0  0  0
 48 65  1  0  0  0
 48118  1  0  0  0
 49 50  1  0  0  0
 49 53  1  0  0  0
 49 64  1  0  0  0
 49119  1  0  0  0
 50 51  1  0  0  0
 50120  1  0  0  0
 50121  1  0  0  0
 51 52  1  0  0  0
 51122  1  0  0  0
 51123  1  0  0  0
 52124  1  0  0  0
 52125  1  0  0  0
 53 54  1  0  0  0
 54 55  2  0  0  0
 54126  1  0  0  0
 55 57  1  0  0  0
 55127  1  0  0  0
 56 69  2  0  0  0
 57 58  2  0  0  0
 57128  1  0  0  0
 58129  1  0  0  0
 59 60  1  0  0  0
 59 61  1  0  0  0
 59 62  1  0  0  0
 60130  1  0  0  0
 60131  1  0  0  0
 60132  1  0  0  0
 61133  1  0  0  0
 61134  1  0  0  0
 61135  1  0  0  0
 62136  1  0  0  0
 62137  1  0  0  0
 62138  1  0  0  0
 63 65  1  0  0  0
 63139  1  0  0  0
 63140  1  0  0  0
 63141  1  0  0  0
 64142  1  0  0  0
 65143  1  0  0  0
 68 80  1  0  0  0
 71 72  2  0  0  0
 71 73  1  0  0  0
 71144  1  0  0  0
 72 75  1  0  0  0
 72145  1  0  0  0
 73 74  2  0  0  0
 73 78  1  0  0  0
 74 79  1  0  0  0
 74 82  1  0  0  0
 75 82  2  0  0  0
 75 84  1  0  0  0
 76 77  1  0  0  0
 76 78  1  0  0  0
 76146  1  0  0  0
 76147  1  0  0  0
 77 78  1  0  0  0
 77148  1  0  0  0
 77149  1  0  0  0
 78150  1  0  0  0
 79 83  1  0  0  0
 79151  1  0  0  0
 79152  1  0  0  0
 80 81  1  0  0  0
 80153  1  0  0  0
 80154  1  0  0  0
 81 84  1  0  0  0
 81155  1  0  0  0
 81156  1  0  0  0
 83157  1  0  0  0
M  ISO  4   1 100  68 101  80 101  83 100
M  END
> <chiral flag>
0

> <version>
0

> <s_m_source_file>
/data/baiqing/PycharmProjects/Reinvent-master-3.2/result/LINK_invent/BTK/process_docking_weight1_custom_sum_contain_oxygen_bond_distance_aromatic_linkinvent_7_9_3/rearranged_h_0119.sdf

> <i_m_source_file_index>
30

> <r_mmod_Potential_Energy-OPLS-2005>
-54.7697257995605

> <r_mmod_Stretch_Energy-OPLS-2005>
139.371841430664

> <r_mmod_Bend_Energy-OPLS-2005>
185.750122070312

> <r_mmod_Torsional_Energy-OPLS-2005>
239.108825683594

> <r_mmod_Improper_Torsional_Energy-OPLS-2005>
5.9821834564209

> <r_mmod_Van_der_Waal_Energy-OPLS-2005>
137.119903564453

> <r_mmod_Electrostatic_Energy-OPLS-2005>
-640.602783203125

> <r_mmod_Solvation_Energy-OPLS-2005>
-222.245254516602

> <b_mmod_Minimization_Converged-OPLS-2005>
0

> <r_mmod_RMS_Derivative-OPLS-2005>
1.51229965686798

$$$$
30
                    3D
 Structure written by MMmdl.
163171  0  0  1  0            999 V2000
  -30.6039  -14.7296   20.4604 C   0  0  0  0  0  0
  -30.4320  -12.4444   19.4784 C   0  0  0  0  0  0
  -29.5127  -12.5082   18.2388 C   0  0  0  0  0  0
  -28.0361  -12.3367   18.6487 C   0  0  0  0  0  0
  -27.6429  -13.2306   19.8551 C   0  0  2  0  0  0
  -28.6839  -13.1532   20.9936 C   0  0  0  0  0  0
  -25.2508  -13.8196   20.5702 C   0  0  0  0  0  0
  -24.1796  -13.0446   20.9210 C   0  0  0  0  0  0
  -24.6386  -11.6922   20.8756 C   0  0  0  0  0  0
  -23.9068  -10.4296   21.0414 C   0  0  0  0  0  0
  -24.3620   -9.4210   21.9186 C   0  0  0  0  0  0
  -23.6291   -8.2246   22.0757 C   0  0  0  0  0  0
  -22.4274   -8.0289   21.3544 C   0  0  0  0  0  0
  -21.9907   -9.0263   20.4650 C   0  0  0  0  0  0
  -22.7245  -10.2139   20.3061 C   0  0  0  0  0  0
  -21.6847   -6.0743   22.5275 C   0  0  0  0  0  0
  -21.4018   -6.5637   23.8213 C   0  0  0  0  0  0
  -21.3662   -5.6786   24.9173 C   0  0  0  0  0  0
  -21.6044   -4.3048   24.7214 C   0  0  0  0  0  0
  -21.8820   -3.8146   23.4335 C   0  0  0  0  0  0
  -21.9193   -4.6970   22.3398 C   0  0  0  0  0  0
  -22.7820  -13.5236   21.1865 C   0  0  0  0  0  0
  -22.1664   -4.2162   21.0974 F   0  0  0  0  0  0
  -21.5631   -3.4529   25.7724 F   0  0  0  0  0  0
  -29.9879  -13.5002   20.4164 N   0  0  0  0  0  0
  -26.2932  -12.9403   20.3287 N   0  0  0  0  0  0
  -25.9314  -11.6545   20.5743 N   0  0  0  0  0  0
  -22.0457  -12.8236   22.0415 N   0  0  0  0  0  0
  -25.4190  -15.1922   20.4135 N   0  0  0  0  0  0
  -31.7854  -14.8368   20.1218 O   0  0  0  0  0  0
  -21.6635   -6.8886   21.4238 O   0  0  0  0  0  0
  -22.3515  -14.5547   20.6714 O   0  0  0  0  0  0
  -24.6296  -31.8538   23.1963 C   0  0  0  0  0  0
  -25.9128  -32.4744   23.8315 C   0  0  1  0  0  0
  -27.2285  -27.2700   20.1320 C   0  0  0  0  0  0
  -25.5920  -33.8547   24.2247 N   0  0  0  0  0  0
  -23.4267  -30.4746   21.5373 C   0  0  2  0  0  0
  -24.8751  -28.9167   20.1085 C   0  0  0  0  0  0
  -22.7496  -29.4588   22.4893 C   0  0  0  0  0  0
  -18.0291  -28.1381   22.8483 C   0  0  0  0  0  0
  -24.1486  -36.7284   23.2643 C   0  0  0  0  0  0
  -25.9696  -30.7703   21.3727 C   0  0  0  0  0  0
  -26.0424  -29.3922   20.7177 C   0  0  0  0  0  0
  -27.2174  -28.5790   20.7185 C   0  0  0  0  0  0
  -26.0359  -26.8485   19.5056 C   0  0  0  0  0  0
  -24.8766  -27.6535   19.4928 C   0  0  0  0  0  0
  -23.6452  -29.8039   20.1541 C   0  0  0  0  0  0
  -25.4109  -36.3064   24.0332 C   0  0  1  0  0  0
  -20.5893  -28.3691   23.1267 C   0  0  2  0  0  0
  -20.6772  -26.9404   22.5412 C   0  0  0  0  0  0
  -19.5749  -26.6377   21.5210 C   0  0  0  0  0  0
  -18.1930  -26.7926   22.1621 C   0  0  0  0  0  0
  -19.1544  -28.8855   23.2873 C   0  0  0  0  0  0
  -18.9469  -30.1451   23.8895 C   0  0  0  0  0  0
  -17.6466  -30.6584   24.0563 C   0  0  0  0  0  0
  -25.9049  -34.9432   23.5094 C   0  0  0  0  0  0
  -16.5358  -29.9083   23.6324 C   0  0  0  0  0  0
  -16.7277  -28.6501   23.0352 C   0  0  0  0  0  0
  -26.4500  -31.6575   25.0708 C   0  0  0  0  0  0
  -25.3733  -31.3734   26.1442 C   0  0  0  0  0  0
  -27.0360  -30.2993   24.6199 C   0  0  0  0  0  0
  -27.6044  -32.4330   25.7484 C   0  0  0  0  0  0
  -27.5576  -37.1794   24.8464 C   0  0  0  0  0  0
  -21.4203  -29.3039   22.3650 N   0  0  0  0  0  0
  -26.4283  -37.3763   23.9412 N   0  0  0  0  0  0
  -24.6942  -31.0519   22.0923 N   0  0  0  0  0  0
  -23.4201  -28.8133   23.2992 O   0  0  0  0  0  0
  -28.3580  -26.4291   20.2201 O   0  0  0  0  0  0
  -26.5627  -34.8913   22.4666 O   0  0  0  0  0  0
  -23.5452  -32.1352   23.7274 O   0  0  0  0  0  0
  -30.6168  -22.7514   20.4288 C   0  0  0  0  0  0
  -29.2387  -22.4525   20.4305 C   0  0  0  0  0  0
  -29.8290  -20.1062   20.7357 C   0  0  0  0  0  0
  -31.1877  -20.5332   20.8624 C   0  0  0  0  0  0
  -27.9017  -24.0038   21.9675 C   0  0  0  0  0  0
  -33.1126  -20.2617   22.5130 C   0  0  0  0  0  0
  -33.2689  -19.2440   20.1884 C   0  0  0  0  0  0
  -29.4025  -18.5729   20.9785 C   0  0  0  0  0  0
  -30.1510  -17.3080   20.2668 C   0  0  0  0  0  0
  -28.4620  -25.0409   19.6579 C   0  0  0  0  0  0
  -28.1988  -23.6683   20.4975 C   0  0  1  0  0  0
  -32.3308  -19.6350   21.3421 C   0  0  0  0  0  0
  -31.5681  -21.8152   20.6293 N   0  0  0  0  0  0
  -28.8609  -21.1061   20.5503 N   0  0  0  0  0  0
  -29.8217  -15.8598   20.6511 N   0  0  0  0  0  0
  -31.4743  -12.5670   19.1781 H   0  0  0  0  0  0
  -30.3744  -11.4661   19.9572 H   0  0  0  0  0  0
  -29.7952  -11.7381   17.5199 H   0  0  0  0  0  0
  -29.6448  -13.4647   17.7296 H   0  0  0  0  0  0
  -27.8870  -11.2875   18.9067 H   0  0  0  0  0  0
  -27.3824  -12.5378   17.7995 H   0  0  0  0  0  0
  -27.6415  -14.2555   19.4828 H   0  0  0  0  0  0
  -28.7110  -12.1550   21.4336 H   0  0  0  0  0  0
  -28.4193  -13.8356   21.8029 H   0  0  0  0  0  0
  -25.2768   -9.5680   22.4760 H   0  0  0  0  0  0
  -24.0003   -7.4628   22.7470 H   0  0  0  0  0  0
  -21.0841   -8.8792   19.8943 H   0  0  0  0  0  0
  -22.3716  -10.9683   19.6170 H   0  0  0  0  0  0
  -21.2014   -7.6143   23.9727 H   0  0  0  0  0  0
  -21.1484   -6.0508   25.9079 H   0  0  0  0  0  0
  -22.0596   -2.7609   23.2823 H   0  0  0  0  0  0
  -22.4059  -11.9901   22.4820 H   0  0  0  0  0  0
  -21.1082  -13.1281   22.2618 H   0  0  0  0  0  0
  -24.6467  -15.8410   20.5219 H   0  0  0  0  0  0
  -26.2579  -15.6327   20.0592 H   0  0  0  0  0  0
  -26.7195  -32.5401   23.1060 H   0  0  0  0  0  0
  -25.0064  -33.9671   25.0390 H   0  0  0  0  0  0
  -22.7234  -31.2965   21.3888 H   0  0  0  0  0  0
  -23.3741  -35.9623   23.3306 H   0  0  0  0  0  0
  -24.3579  -36.8905   22.2058 H   0  0  0  0  0  0
  -23.7249  -37.6490   23.6666 H   0  0  0  0  0  0
  -26.1073  -31.5305   20.6028 H   0  0  0  0  0  0
  -26.8483  -30.8215   22.0040 H   0  0  0  0  0  0
  -28.1118  -28.9381   21.2083 H   0  0  0  0  0  0
  -25.9691  -25.8726   19.0509 H   0  0  0  0  0  0
  -23.9798  -27.2810   19.0174 H   0  0  0  0  0  0
  -23.7709  -30.5786   19.3967 H   0  0  0  0  0  0
  -22.7647  -29.2361   19.8480 H   0  0  0  0  0  0
  -25.1288  -36.1910   25.0824 H   0  0  0  0  0  0
  -20.9994  -28.3278   24.1384 H   0  0  0  0  0  0
  -20.5653  -26.2302   23.3621 H   0  0  0  0  0  0
  -21.6641  -26.7412   22.1216 H   0  0  0  0  0  0
  -19.6905  -25.6287   21.1242 H   0  0  0  0  0  0
  -19.6687  -27.3186   20.6739 H   0  0  0  0  0  0
  -17.4195  -26.6676   21.4027 H   0  0  0  0  0  0
  -18.0326  -26.0069   22.9018 H   0  0  0  0  0  0
  -19.7946  -30.7267   24.2265 H   0  0  0  0  0  0
  -17.5023  -31.6263   24.5166 H   0  0  0  0  0  0
  -15.5357  -30.2988   23.7644 H   0  0  0  0  0  0
  -15.8678  -28.0818   22.7067 H   0  0  0  0  0  0
  -24.5893  -30.7093   25.7785 H   0  0  0  0  0  0
  -24.8946  -32.2913   26.4863 H   0  0  0  0  0  0
  -25.8060  -30.8918   27.0221 H   0  0  0  0  0  0
  -26.2951  -29.6724   24.1224 H   0  0  0  0  0  0
  -27.4048  -29.7265   25.4720 H   0  0  0  0  0  0
  -27.8818  -30.4266   23.9439 H   0  0  0  0  0  0
  -27.2630  -33.3625   26.2051 H   0  0  0  0  0  0
  -28.3857  -32.6905   25.0321 H   0  0  0  0  0  0
  -28.0712  -31.8474   26.5415 H   0  0  0  0  0  0
  -28.2583  -38.0098   24.7508 H   0  0  0  0  0  0
  -28.1079  -36.2630   24.6281 H   0  0  0  0  0  0
  -27.2301  -37.1437   25.8868 H   0  0  0  0  0  0
  -20.9381  -29.8777   21.6874 H   0  0  0  0  0  0
  -26.0162  -38.2834   24.1416 H   0  0  0  0  0  0
  -30.9716  -23.7684   20.3641 H   0  0  0  0  0  0
  -27.5539  -23.1231   22.5082 H   0  0  0  0  0  0
  -27.1260  -24.7653   22.0521 H   0  0  0  0  0  0
  -28.7907  -24.3783   22.4756 H   0  0  0  0  0  0
  -32.4472  -20.5284   23.3354 H   0  0  0  0  0  0
  -33.6381  -21.1670   22.2071 H   0  0  0  0  0  0
  -33.8584  -19.5690   22.9043 H   0  0  0  0  0  0
  -32.7218  -18.7908   19.3620 H   0  0  0  0  0  0
  -34.0169  -18.5241   20.5202 H   0  0  0  0  0  0
  -33.7935  -20.1138   19.7923 H   0  0  0  0  0  0
  -28.3412  -18.5028   20.7407 H   0  0  0  0  0  0
  -29.4585  -18.4215   22.0566 H   0  0  0  0  0  0
  -31.2261  -17.3856   20.3711 H   0  0  0  0  0  0
  -29.9852  -17.3921   19.1929 H   0  0  0  0  0  0
  -27.9182  -24.9867   18.7158 H   0  0  0  0  0  0
  -29.4960  -25.0069   19.3205 H   0  0  0  0  0  0
  -27.2706  -23.2613   20.0948 H   0  0  0  0  0  0
  -31.9063  -18.7373   21.7815 H   0  0  0  0  0  0
  -28.8624  -15.6771   20.9048 H   0  0  0  0  0  0
  1 25  1  0  0  0
  1 30  2  0  0  0
  1 85  1  0  0  0
  2  3  1  0  0  0
  2 25  1  0  0  0
  2 86  1  0  0  0
  2 87  1  0  0  0
  3  4  1  0  0  0
  3 88  1  0  0  0
  3 89  1  0  0  0
  4  5  1  0  0  0
  4 90  1  0  0  0
  4 91  1  0  0  0
  5  6  1  0  0  0
  5 26  1  0  0  0
  5 92  1  0  0  0
  6 25  1  0  0  0
  6 93  1  0  0  0
  6 94  1  0  0  0
  7  8  2  0  0  0
  7 26  1  0  0  0
  7 29  1  0  0  0
  8  9  1  0  0  0
  8 22  1  0  0  0
  9 10  1  0  0  0
  9 27  2  0  0  0
 10 11  2  0  0  0
 10 15  1  0  0  0
 11 12  1  0  0  0
 11 95  1  0  0  0
 12 13  2  0  0  0
 12 96  1  0  0  0
 13 14  1  0  0  0
 13 31  1  0  0  0
 14 15  2  0  0  0
 14 97  1  0  0  0
 15 98  1  0  0  0
 16 17  2  0  0  0
 16 21  1  0  0  0
 16 31  1  0  0  0
 17 18  1  0  0  0
 17 99  1  0  0  0
 18 19  2  0  0  0
 18100  1  0  0  0
 19 20  1  0  0  0
 19 24  1  0  0  0
 20 21  2  0  0  0
 20101  1  0  0  0
 21 23  1  0  0  0
 22 28  1  0  0  0
 22 32  2  0  0  0
 26 27  1  0  0  0
 28102  1  0  0  0
 28103  1  0  0  0
 29104  1  0  0  0
 29105  1  0  0  0
 33 34  1  0  0  0
 33 66  1  0  0  0
 33 70  2  0  0  0
 34 36  1  0  0  0
 34 59  1  0  0  0
 34106  1  0  0  0
 35 44  2  0  0  0
 35 45  1  0  0  0
 35 68  1  0  0  0
 36 56  1  0  0  0
 36107  1  0  0  0
 37 39  1  0  0  0
 37 47  1  0  0  0
 37 66  1  0  0  0
 37108  1  0  0  0
 38 43  2  0  0  0
 38 46  1  0  0  0
 38 47  1  0  0  0
 39 64  1  0  0  0
 39 67  2  0  0  0
 40 52  1  0  0  0
 40 53  2  0  0  0
 40 58  1  0  0  0
 41109  1  0  0  0
 41110  1  0  0  0
 41111  1  0  0  0
 41 48  1  0  0  0
 42 43  1  0  0  0
 42 66  1  0  0  0
 42112  1  0  0  0
 42113  1  0  0  0
 43 44  1  0  0  0
 44114  1  0  0  0
 45 46  2  0  0  0
 45115  1  0  0  0
 46116  1  0  0  0
 47117  1  0  0  0
 47118  1  0  0  0
 48 56  1  0  0  0
 48 65  1  0  0  0
 48119  1  0  0  0
 49 50  1  0  0  0
 49 53  1  0  0  0
 49 64  1  0  0  0
 49120  1  0  0  0
 50 51  1  0  0  0
 50121  1  0  0  0
 50122  1  0  0  0
 51 52  1  0  0  0
 51123  1  0  0  0
 51124  1  0  0  0
 52125  1  0  0  0
 52126  1  0  0  0
 53 54  1  0  0  0
 54 55  2  0  0  0
 54127  1  0  0  0
 55 57  1  0  0  0
 55128  1  0  0  0
 56 69  2  0  0  0
 57 58  2  0  0  0
 57129  1  0  0  0
 58130  1  0  0  0
 59 60  1  0  0  0
 59 61  1  0  0  0
 59 62  1  0  0  0
 60131  1  0  0  0
 60132  1  0  0  0
 60133  1  0  0  0
 61134  1  0  0  0
 61135  1  0  0  0
 61136  1  0  0  0
 62137  1  0  0  0
 62138  1  0  0  0
 62139  1  0  0  0
 63 65  1  0  0  0
 63140  1  0  0  0
 63141  1  0  0  0
 63142  1  0  0  0
 64143  1  0  0  0
 65144  1  0  0  0
 68 80  1  0  0  0
 71 72  2  0  0  0
 71 83  1  0  0  0
 71145  1  0  0  0
 72 81  1  0  0  0
 72 84  1  0  0  0
 73 74  1  0  0  0
 73 78  1  0  0  0
 73 84  2  0  0  0
 74 82  1  0  0  0
 74 83  2  0  0  0
 75146  1  0  0  0
 75147  1  0  0  0
 75148  1  0  0  0
 75 81  1  0  0  0
 76149  1  0  0  0
 76150  1  0  0  0
 76151  1  0  0  0
 76 82  1  0  0  0
 77 82  1  0  0  0
 77152  1  0  0  0
 77153  1  0  0  0
 77154  1  0  0  0
 78 79  1  0  0  0
 78155  1  0  0  0
 78156  1  0  0  0
 79 85  1  0  0  0
 79157  1  0  0  0
 79158  1  0  0  0
 80 81  1  0  0  0
 80159  1  0  0  0
 80160  1  0  0  0
 81161  1  0  0  0
 82162  1  0  0  0
 85163  1  0  0  0
M  ISO  4   1 100  68 101  80 101  85 100
M  END
> <chiral flag>
0

> <version>
0

> <s_m_source_file>
/data/baiqing/PycharmProjects/Reinvent-master-3.2/result/LINK_invent/BTK/process_docking_weight1_custom_sum_contain_oxygen_bond_distance_aromatic_linkinvent_7_9_3/rearranged_h_0119.sdf

> <i_m_source_file_index>
31

> <r_mmod_Potential_Energy-OPLS-2005>
218.502059936523

> <r_mmod_Stretch_Energy-OPLS-2005>
137.133087158203

> <r_mmod_Bend_Energy-OPLS-2005>
191.704284667969

> <r_mmod_Torsional_Energy-OPLS-2005>
206.191329956055

> <r_mmod_Improper_Torsional_Energy-OPLS-2005>
7.4877610206604

> <r_mmod_Van_der_Waal_Energy-OPLS-2005>
141.421417236328

> <r_mmod_Electrostatic_Energy-OPLS-2005>
-323.829742431641

> <r_mmod_Solvation_Energy-OPLS-2005>
-219.285842895508

> <b_mmod_Minimization_Converged-OPLS-2005>
0

> <r_mmod_RMS_Derivative-OPLS-2005>
1.53568112850189

$$$$
31
                    3D
 Structure written by MMmdl.
187197  0  0  1  0            999 V2000
  -30.6779  -14.4830   20.6112 C   0  0  0  0  0  0
  -30.4432  -12.3285   19.4206 C   0  0  0  0  0  0
  -29.5050  -12.5303   18.2112 C   0  0  0  0  0  0
  -28.0257  -12.3731   18.6206 C   0  0  0  0  0  0
  -27.6696  -13.1998   19.8850 C   0  0  2  0  0  0
  -28.7104  -12.9473   21.0007 C   0  0  0  0  0  0
  -25.2554  -13.8048   20.5516 C   0  0  0  0  0  0
  -24.1839  -13.0366   20.9124 C   0  0  0  0  0  0
  -24.6410  -11.6844   20.8728 C   0  0  0  0  0  0
  -23.9067  -10.4246   21.0402 C   0  0  0  0  0  0
  -24.3612   -9.4175   21.9185 C   0  0  0  0  0  0
  -23.6283   -8.2212   22.0749 C   0  0  0  0  0  0
  -22.4261   -8.0254   21.3537 C   0  0  0  0  0  0
  -21.9899   -9.0234   20.4645 C   0  0  0  0  0  0
  -22.7234  -10.2107   20.3054 C   0  0  0  0  0  0
  -21.6845   -6.0720   22.5281 C   0  0  0  0  0  0
  -21.4006   -6.5629   23.8216 C   0  0  0  0  0  0
  -21.3662   -5.6784   24.9180 C   0  0  0  0  0  0
  -21.6052   -4.3043   24.7229 C   0  0  0  0  0  0
  -21.8819   -3.8134   23.4349 C   0  0  0  0  0  0
  -21.9197   -4.6953   22.3406 C   0  0  0  0  0  0
  -22.7866  -13.5195   21.1808 C   0  0  0  0  0  0
  -22.1663   -4.2145   21.0986 F   0  0  0  0  0  0
  -21.5637   -3.4528   25.7738 F   0  0  0  0  0  0
  -30.0489  -13.2822   20.4683 N   0  0  0  0  0  0
  -26.3069  -12.9255   20.3378 N   0  0  0  0  0  0
  -25.9358  -11.6429   20.5816 N   0  0  0  0  0  0
  -22.0523  -12.8222   22.0403 N   0  0  0  0  0  0
  -25.4106  -15.1701   20.3652 N   0  0  0  0  0  0
  -31.7321  -14.7775   20.0415 O   0  0  0  0  0  0
  -21.6622   -6.8858   21.4239 O   0  0  0  0  0  0
  -22.3548  -14.5502   20.6661 O   0  0  0  0  0  0
  -24.6163  -31.8655   23.2080 C   0  0  0  0  0  0
  -25.9052  -32.4799   23.8377 C   0  0  1  0  0  0
  -27.2366  -27.4189   20.0956 C   0  0  0  0  0  0
  -25.5904  -33.8595   24.2321 N   0  0  0  0  0  0
  -23.4052  -30.4899   21.5468 C   0  0  2  0  0  0
  -24.8524  -28.9528   20.1132 C   0  0  0  0  0  0
  -22.7422  -29.4659   22.4971 C   0  0  0  0  0  0
  -18.0275  -28.1381   22.8477 C   0  0  0  0  0  0
  -24.1486  -36.7316   23.2642 C   0  0  0  0  0  0
  -25.9345  -30.8258   21.3636 C   0  0  0  0  0  0
  -26.0133  -29.4584   20.7111 C   0  0  0  0  0  0
  -27.2100  -28.7014   20.6941 C   0  0  0  0  0  0
  -26.0585  -26.9329   19.4872 C   0  0  0  0  0  0
  -24.8709  -27.6899   19.4956 C   0  0  0  0  0  0
  -23.6148  -29.8216   20.1619 C   0  0  0  0  0  0
  -25.4097  -36.3097   24.0348 C   0  0  1  0  0  0
  -20.5867  -28.3667   23.1307 C   0  0  2  0  0  0
  -20.6766  -26.9399   22.5421 C   0  0  0  0  0  0
  -19.5754  -26.6386   21.5207 C   0  0  0  0  0  0
  -18.1924  -26.7928   22.1604 C   0  0  0  0  0  0
  -19.1522  -28.8839   23.2893 C   0  0  0  0  0  0
  -18.9452  -30.1442   23.8914 C   0  0  0  0  0  0
  -17.6455  -30.6584   24.0568 C   0  0  0  0  0  0
  -25.9022  -34.9461   23.5131 C   0  0  0  0  0  0
  -16.5347  -29.9091   23.6324 C   0  0  0  0  0  0
  -16.7263  -28.6509   23.0338 C   0  0  0  0  0  0
  -26.4486  -31.6571   25.0699 C   0  0  0  0  0  0
  -25.3767  -31.3686   26.1465 C   0  0  0  0  0  0
  -27.0305  -30.3004   24.6065 C   0  0  0  0  0  0
  -27.6062  -32.4292   25.7461 C   0  0  0  0  0  0
  -27.5581  -37.1806   24.8462 C   0  0  0  0  0  0
  -21.4146  -29.3040   22.3716 N   0  0  0  0  0  0
  -26.4287  -37.3779   23.9414 N   0  0  0  0  0  0
  -24.6699  -31.0750   22.0979 N   0  0  0  0  0  0
  -23.4192  -28.8205   23.3015 O   0  0  0  0  0  0
  -28.4037  -26.6778   20.0718 O   0  0  0  0  0  0
  -26.5579  -34.8928   22.4686 O   0  0  0  0  0  0
  -23.5355  -32.1411   23.7476 O   0  0  0  0  0  0
  -29.2557  -24.6393   18.1917 C   0  0  0  0  0  0
  -29.8022  -23.6990   17.2897 C   0  0  0  0  0  0
  -29.2622  -22.9548   19.9736 C   0  0  0  0  0  0
  -29.8130  -22.0253   19.0582 C   0  0  0  0  0  0
  -28.9795  -24.2826   19.5347 C   0  0  0  0  0  0
  -30.0737  -22.3965   17.7456 C   0  0  0  0  0  0
  -30.3279  -20.1280   17.7720 C   0  0  0  0  0  0
  -32.1753  -18.2821   23.2743 C   0  0  0  0  0  0
  -30.0787  -20.5415   19.2466 C   0  0  1  0  0  0
  -31.9162  -19.6153   22.5665 C   0  0  1  0  0  0
  -30.9896  -19.2634   21.3826 C   0  0  2  0  0  0
  -31.1629  -17.7019   21.2021 C   0  0  2  0  0  0
  -32.3354  -21.2471   24.5089 C   0  0  0  0  0  0
  -26.8536  -16.6001   23.8207 C   0  0  0  0  0  0
  -26.7704  -17.8714   21.6330 C   0  0  0  0  0  0
  -28.3150  -25.2933   20.4785 C   0  0  0  0  0  0
  -31.2870  -20.2002   20.1692 C   0  0  0  0  0  0
  -31.3335  -20.7149   23.4782 C   0  0  0  0  0  0
  -29.0074  -17.1628   22.6057 C   0  0  0  0  0  0
  -29.8586  -16.8394   21.3415 C   0  0  2  0  0  0
  -27.5178  -16.8041   22.4533 C   0  0  0  0  0  0
  -30.5481  -21.3402   16.9706 N   0  0  0  0  0  0
  -30.0064  -15.3624   21.3734 N   0  0  0  0  0  0
  -32.1514  -17.2759   22.2053 N   0  3  0  0  0  0
  -31.4855  -12.4557   19.1213 H   0  0  0  0  0  0
  -30.3654  -11.3077   19.7988 H   0  0  0  0  0  0
  -29.7540  -11.8192   17.4233 H   0  0  0  0  0  0
  -29.6624  -13.5224   17.7856 H   0  0  0  0  0  0
  -27.8419  -11.3127   18.8022 H   0  0  0  0  0  0
  -27.3715  -12.6499   17.7935 H   0  0  0  0  0  0
  -27.7191  -14.2540   19.6094 H   0  0  0  0  0  0
  -28.6892  -11.8963   21.2940 H   0  0  0  0  0  0
  -28.4490  -13.4931   21.9084 H   0  0  0  0  0  0
  -25.2758   -9.5656   22.4756 H   0  0  0  0  0  0
  -24.0000   -7.4605   22.7458 H   0  0  0  0  0  0
  -21.0823   -8.8757   19.8952 H   0  0  0  0  0  0
  -22.3693  -10.9647   19.6157 H   0  0  0  0  0  0
  -21.1982   -7.6128   23.9721 H   0  0  0  0  0  0
  -21.1490   -6.0506   25.9089 H   0  0  0  0  0  0
  -22.0597   -2.7590   23.2852 H   0  0  0  0  0  0
  -22.4135  -11.9896   22.4813 H   0  0  0  0  0  0
  -21.1138  -13.1245   22.2585 H   0  0  0  0  0  0
  -24.6402  -15.8112   20.5123 H   0  0  0  0  0  0
  -26.2733  -15.6331   20.1102 H   0  0  0  0  0  0
  -26.7112  -32.5518   23.1131 H   0  0  0  0  0  0
  -25.0087  -33.9730   25.0492 H   0  0  0  0  0  0
  -22.6947  -31.3069   21.4063 H   0  0  0  0  0  0
  -23.3737  -35.9662   23.3302 H   0  0  0  0  0  0
  -24.3590  -36.8923   22.2057 H   0  0  0  0  0  0
  -23.7250  -37.6529   23.6648 H   0  0  0  0  0  0
  -26.0445  -31.5878   20.5917 H   0  0  0  0  0  0
  -26.8233  -30.8817   21.9795 H   0  0  0  0  0  0
  -28.1093  -29.0893   21.1532 H   0  0  0  0  0  0
  -26.0565  -25.9732   18.9917 H   0  0  0  0  0  0
  -23.9822  -27.2998   19.0189 H   0  0  0  0  0  0
  -23.7229  -30.5952   19.4008 H   0  0  0  0  0  0
  -22.7395  -29.2410   19.8668 H   0  0  0  0  0  0
  -25.1272  -36.1960   25.0842 H   0  0  0  0  0  0
  -20.9944  -28.3233   24.1432 H   0  0  0  0  0  0
  -20.5633  -26.2283   23.3614 H   0  0  0  0  0  0
  -21.6642  -26.7425   22.1236 H   0  0  0  0  0  0
  -19.6914  -25.6297   21.1235 H   0  0  0  0  0  0
  -19.6707  -27.3205   20.6744 H   0  0  0  0  0  0
  -17.4202  -26.6684   21.3998 H   0  0  0  0  0  0
  -18.0315  -26.0064   22.8989 H   0  0  0  0  0  0
  -19.7929  -30.7247   24.2303 H   0  0  0  0  0  0
  -17.5013  -31.6262   24.5169 H   0  0  0  0  0  0
  -15.5350  -30.3002   23.7634 H   0  0  0  0  0  0
  -15.8663  -28.0840   22.7037 H   0  0  0  0  0  0
  -24.5985  -30.6950   25.7851 H   0  0  0  0  0  0
  -24.8908  -32.2841   26.4851 H   0  0  0  0  0  0
  -25.8162  -30.8949   27.0253 H   0  0  0  0  0  0
  -26.2827  -29.6757   24.1158 H   0  0  0  0  0  0
  -27.4116  -29.7237   25.4504 H   0  0  0  0  0  0
  -27.8652  -30.4307   23.9173 H   0  0  0  0  0  0
  -27.2668  -33.3580   26.2062 H   0  0  0  0  0  0
  -28.3865  -32.6865   25.0283 H   0  0  0  0  0  0
  -28.0740  -31.8400   26.5359 H   0  0  0  0  0  0
  -28.2602  -38.0097   24.7487 H   0  0  0  0  0  0
  -28.1074  -36.2630   24.6300 H   0  0  0  0  0  0
  -27.2316  -37.1476   25.8871 H   0  0  0  0  0  0
  -20.9311  -29.8781   21.6950 H   0  0  0  0  0  0
  -26.0182  -38.2863   24.1403 H   0  0  0  0  0  0
  -29.0258  -25.6352   17.8409 H   0  0  0  0  0  0
  -29.9831  -23.9767   16.2609 H   0  0  0  0  0  0
  -29.0265  -22.6418   20.9805 H   0  0  0  0  0  0
  -29.4379  -19.6376   17.3735 H   0  0  0  0  0  0
  -31.1487  -19.4184   17.6587 H   0  0  0  0  0  0
  -31.3821  -18.0630   23.9884 H   0  0  0  0  0  0
  -33.1215  -18.2729   23.8159 H   0  0  0  0  0  0
  -29.1684  -20.0663   19.6122 H   0  0  0  0  0  0
  -32.8741  -19.9547   22.1657 H   0  0  0  0  0  0
  -29.9722  -19.5048   21.6752 H   0  0  0  0  0  0
  -31.6032  -17.5040   20.2236 H   0  0  0  0  0  0
  -31.8819  -22.0351   25.1112 H   0  0  0  0  0  0
  -33.2132  -21.6695   24.0188 H   0  0  0  0  0  0
  -32.6712  -20.4627   25.1882 H   0  0  0  0  0  0
  -25.8113  -16.2963   23.7103 H   0  0  0  0  0  0
  -26.8726  -17.5093   24.4226 H   0  0  0  0  0  0
  -27.3610  -15.8145   24.3830 H   0  0  0  0  0  0
  -25.7089  -17.6391   21.5500 H   0  0  0  0  0  0
  -27.1597  -17.9471   20.6174 H   0  0  0  0  0  0
  -26.8501  -18.8586   22.0896 H   0  0  0  0  0  0
  -28.8085  -25.2185   21.4474 H   0  0  0  0  0  0
  -27.2905  -24.9604   20.6492 H   0  0  0  0  0  0
  -31.6523  -21.1507   20.5625 H   0  0  0  0  0  0
  -32.1328  -19.8162   19.5981 H   0  0  0  0  0  0
  -30.4419  -20.3451   23.9866 H   0  0  0  0  0  0
  -30.9991  -21.5515   22.8626 H   0  0  0  0  0  0
  -29.0548  -18.2000   22.9263 H   0  0  0  0  0  0
  -29.4286  -16.6177   23.4525 H   0  0  0  0  0  0
  -29.2665  -17.0716   20.4554 H   0  0  0  0  0  0
  -27.4427  -15.8516   21.9331 H   0  0  0  0  0  0
  -30.2734  -21.3271   15.9904 H   0  0  0  0  0  0
  -29.2608  -14.9092   21.8801 H   0  0  0  0  0  0
  -31.9445  -16.3544   22.5556 H   0  0  0  0  0  0
  -33.0559  -17.2505   21.7637 H   0  0  0  0  0  0
  1 25  1  0  0  0
  1 30  2  0  0  0
  1 93  1  0  0  0
  2  3  1  0  0  0
  2 25  1  0  0  0
  2 95  1  0  0  0
  2 96  1  0  0  0
  3  4  1  0  0  0
  3 97  1  0  0  0
  3 98  1  0  0  0
  4  5  1  0  0  0
  4 99  1  0  0  0
  4100  1  0  0  0
  5  6  1  0  0  0
  5 26  1  0  0  0
  5101  1  0  0  0
  6 25  1  0  0  0
  6102  1  0  0  0
  6103  1  0  0  0
  7  8  2  0  0  0
  7 26  1  0  0  0
  7 29  1  0  0  0
  8  9  1  0  0  0
  8 22  1  0  0  0
  9 10  1  0  0  0
  9 27  2  0  0  0
 10 11  2  0  0  0
 10 15  1  0  0  0
 11 12  1  0  0  0
 11104  1  0  0  0
 12 13  2  0  0  0
 12105  1  0  0  0
 13 14  1  0  0  0
 13 31  1  0  0  0
 14 15  2  0  0  0
 14106  1  0  0  0
 15107  1  0  0  0
 16 17  2  0  0  0
 16 21  1  0  0  0
 16 31  1  0  0  0
 17 18  1  0  0  0
 17108  1  0  0  0
 18 19  2  0  0  0
 18109  1  0  0  0
 19 20  1  0  0  0
 19 24  1  0  0  0
 20 21  2  0  0  0
 20110  1  0  0  0
 21 23  1  0  0  0
 22 28  1  0  0  0
 22 32  2  0  0  0
 26 27  1  0  0  0
 28111  1  0  0  0
 28112  1  0  0  0
 29113  1  0  0  0
 29114  1  0  0  0
 33 34  1  0  0  0
 33 66  1  0  0  0
 33 70  2  0  0  0
 34 36  1  0  0  0
 34 59  1  0  0  0
 34115  1  0  0  0
 35 44  2  0  0  0
 35 45  1  0  0  0
 35 68  1  0  0  0
 36 56  1  0  0  0
 36116  1  0  0  0
 37 39  1  0  0  0
 37 47  1  0  0  0
 37 66  1  0  0  0
 37117  1  0  0  0
 38 43  2  0  0  0
 38 46  1  0  0  0
 38 47  1  0  0  0
 39 64  1  0  0  0
 39 67  2  0  0  0
 40 52  1  0  0  0
 40 53  2  0  0  0
 40 58  1  0  0  0
 41118  1  0  0  0
 41119  1  0  0  0
 41120  1  0  0  0
 41 48  1  0  0  0
 42 43  1  0  0  0
 42 66  1  0  0  0
 42121  1  0  0  0
 42122  1  0  0  0
 43 44  1  0  0  0
 44123  1  0  0  0
 45 46  2  0  0  0
 45124  1  0  0  0
 46125  1  0  0  0
 47126  1  0  0  0
 47127  1  0  0  0
 48 56  1  0  0  0
 48 65  1  0  0  0
 48128  1  0  0  0
 49 50  1  0  0  0
 49 53  1  0  0  0
 49 64  1  0  0  0
 49129  1  0  0  0
 50 51  1  0  0  0
 50130  1  0  0  0
 50131  1  0  0  0
 51 52  1  0  0  0
 51132  1  0  0  0
 51133  1  0  0  0
 52134  1  0  0  0
 52135  1  0  0  0
 53 54  1  0  0  0
 54 55  2  0  0  0
 54136  1  0  0  0
 55 57  1  0  0  0
 55137  1  0  0  0
 56 69  2  0  0  0
 57 58  2  0  0  0
 57138  1  0  0  0
 58139  1  0  0  0
 59 60  1  0  0  0
 59 61  1  0  0  0
 59 62  1  0  0  0
 60140  1  0  0  0
 60141  1  0  0  0
 60142  1  0  0  0
 61143  1  0  0  0
 61144  1  0  0  0
 61145  1  0  0  0
 62146  1  0  0  0
 62147  1  0  0  0
 62148  1  0  0  0
 63 65  1  0  0  0
 63149  1  0  0  0
 63150  1  0  0  0
 63151  1  0  0  0
 64152  1  0  0  0
 65153  1  0  0  0
 68 86  1  0  0  0
 71 72  2  0  0  0
 71 75  1  0  0  0
 71154  1  0  0  0
 72 76  1  0  0  0
 72155  1  0  0  0
 73 74  1  0  0  0
 73 75  2  0  0  0
 73156  1  0  0  0
 74 76  2  0  0  0
 74 79  1  0  0  0
 75 86  1  0  0  0
 76 92  1  0  0  0
 77 79  1  0  0  0
 77 92  1  0  0  0
 77157  1  0  0  0
 77158  1  0  0  0
 78 80  1  0  0  0
 78 94  1  0  0  0
 78159  1  0  0  0
 78160  1  0  0  0
 79 87  1  0  0  0
 79161  1  0  0  0
 80 81  1  0  0  0
 80 88  1  0  0  0
 80162  1  0  0  0
 81 82  1  0  0  0
 81 87  1  0  0  0
 81163  1  0  0  0
 82 90  1  0  0  0
 82 94  1  0  0  0
 82164  1  0  0  0
 83 88  1  0  0  0
 83165  1  0  0  0
 83166  1  0  0  0
 83167  1  0  0  0
 84168  1  0  0  0
 84169  1  0  0  0
 84170  1  0  0  0
 84 91  1  0  0  0
 85 91  1  0  0  0
 85171  1  0  0  0
 85172  1  0  0  0
 85173  1  0  0  0
 86174  1  0  0  0
 86175  1  0  0  0
 87176  1  0  0  0
 87177  1  0  0  0
 88178  1  0  0  0
 88179  1  0  0  0
 89 91  1  0  0  0
 89180  1  0  0  0
 89181  1  0  0  0
 89 90  1  0  0  0
 90 93  1  0  0  0
 90182  1  0  0  0
 91183  1  0  0  0
 92184  1  0  0  0
 93185  1  0  0  0
 94186  1  0  0  0
 94187  1  0  0  0
M  CHG  1  94   1
M  ISO  4   1 100  68 101  86 101  93 100
M  END
> <chiral flag>
0

> <version>
0

> <s_m_source_file>
/data/baiqing/PycharmProjects/Reinvent-master-3.2/result/LINK_invent/BTK/process_docking_weight1_custom_sum_contain_oxygen_bond_distance_aromatic_linkinvent_7_9_3/rearranged_h_0119.sdf

> <i_m_source_file_index>
32

> <r_mmod_Potential_Energy-OPLS-2005>
-16.9314823150635

> <r_mmod_Stretch_Energy-OPLS-2005>
49.0150413513184

> <r_mmod_Bend_Energy-OPLS-2005>
186.464965820312

> <r_mmod_Torsional_Energy-OPLS-2005>
400.063079833984

> <r_mmod_Improper_Torsional_Energy-OPLS-2005>
8.4402437210083

> <r_mmod_Van_der_Waal_Energy-OPLS-2005>
131.483551025391

> <r_mmod_Electrostatic_Energy-OPLS-2005>
-363.176910400391

> <r_mmod_Solvation_Energy-OPLS-2005>
-443.573059082031

> <b_mmod_Minimization_Converged-OPLS-2005>
0

> <r_mmod_RMS_Derivative-OPLS-2005>
2.36709213256836

$$$$
32
                    3D
 Structure written by MMmdl.
178187  0  0  1  0            999 V2000
  -30.2659  -15.7311   20.3341 C   0  0  0  0  0  0
  -30.4063  -13.1547   19.5091 C   0  0  0  0  0  0
  -29.5329  -12.6538   18.3168 C   0  0  0  0  0  0
  -28.1248  -12.2709   18.7837 C   0  0  0  0  0  0
  -27.5870  -13.3058   19.7932 C   0  0  2  0  0  0
  -28.5934  -13.6995   20.9023 C   0  0  0  0  0  0
  -25.2351  -13.8296   20.5765 C   0  0  0  0  0  0
  -24.1718  -13.0476   20.9277 C   0  0  0  0  0  0
  -24.6387  -11.6968   20.8797 C   0  0  0  0  0  0
  -23.9088  -10.4322   21.0436 C   0  0  0  0  0  0
  -24.3622   -9.4219   21.9211 C   0  0  0  0  0  0
  -23.6280   -8.2254   22.0789 C   0  0  0  0  0  0
  -22.4270   -8.0297   21.3556 C   0  0  0  0  0  0
  -21.9912   -9.0278   20.4658 C   0  0  0  0  0  0
  -22.7260  -10.2153   20.3065 C   0  0  0  0  0  0
  -21.6858   -6.0719   22.5287 C   0  0  0  0  0  0
  -21.3996   -6.5637   23.8203 C   0  0  0  0  0  0
  -21.3672   -5.6799   24.9185 C   0  0  0  0  0  0
  -21.6036   -4.3046   24.7242 C   0  0  0  0  0  0
  -21.8831   -3.8146   23.4361 C   0  0  0  0  0  0
  -21.9188   -4.6953   22.3418 C   0  0  0  0  0  0
  -22.7743  -13.5251   21.1936 C   0  0  0  0  0  0
  -22.1662   -4.2140   21.0982 F   0  0  0  0  0  0
  -21.5648   -3.4540   25.7751 F   0  0  0  0  0  0
  -29.7597  -14.3475   20.2532 N   0  0  0  0  0  0
  -26.2742  -12.9608   20.3175 N   0  0  0  0  0  0
  -25.9317  -11.6701   20.5661 N   0  0  0  0  0  0
  -22.0363  -12.8208   22.0418 N   0  0  0  0  0  0
  -25.4049  -15.2015   20.4166 N   0  0  0  0  0  0
  -31.5017  -15.6511   20.1600 O   0  0  0  0  0  0
  -21.6658   -6.8870   21.4240 O   0  0  0  0  0  0
  -22.3439  -14.5559   20.6791 O   0  0  0  0  0  0
  -24.7102  -31.7902   23.1480 C   0  0  0  0  0  0
  -25.9595  -32.4405   23.8076 C   0  0  1  0  0  0
  -27.1943  -26.4980   20.1279 C   0  0  0  0  0  0
  -25.6147  -33.8231   24.1966 N   0  0  0  0  0  0
  -23.5323  -30.4003   21.5183 C   0  0  2  0  0  0
  -24.9775  -28.7338   20.1418 C   0  0  0  0  0  0
  -22.7841  -29.4271   22.4701 C   0  0  0  0  0  0
  -18.0341  -28.1415   22.8444 C   0  0  0  0  0  0
  -24.1510  -36.7037   23.2647 C   0  0  0  0  0  0
  -26.1366  -30.4590   21.4370 C   0  0  0  0  0  0
  -26.1991  -29.0082   20.7673 C   0  0  0  0  0  0
  -27.2844  -27.9317   20.7227 C   0  0  0  0  0  0
  -25.8565  -26.5028   19.5885 C   0  0  0  0  0  0
  -24.8517  -27.4964   19.5436 C   0  0  0  0  0  0
  -23.7937  -29.7159   20.1610 C   0  0  0  0  0  0
  -25.4167  -36.2770   24.0278 C   0  0  1  0  0  0
  -20.5993  -28.3760   23.1131 C   0  0  2  0  0  0
  -20.6788  -26.9417   22.5368 C   0  0  0  0  0  0
  -19.5746  -26.6356   21.5198 C   0  0  0  0  0  0
  -18.1938  -26.7940   22.1616 C   0  0  0  0  0  0
  -19.1601  -28.8931   23.2767 C   0  0  0  0  0  0
  -18.9512  -30.1526   23.8782 C   0  0  0  0  0  0
  -17.6475  -30.6601   24.0548 C   0  0  0  0  0  0
  -25.9198  -34.9197   23.4933 C   0  0  0  0  0  0
  -16.5375  -29.9055   23.6370 C   0  0  0  0  0  0
  -16.7305  -28.6497   23.0372 C   0  0  0  0  0  0
  -26.4680  -31.6435   25.0732 C   0  0  0  0  0  0
  -25.3737  -31.3735   26.1334 C   0  0  0  0  0  0
  -27.0619  -30.2733   24.6764 C   0  0  0  0  0  0
  -27.6135  -32.4279   25.7583 C   0  0  0  0  0  0
  -27.5543  -37.1661   24.8492 C   0  0  0  0  0  0
  -21.4469  -29.2998   22.3427 N   0  0  0  0  0  0
  -26.4229  -37.3573   23.9450 N   0  0  0  0  0  0
  -24.8224  -30.9203   22.0827 N   0  0  0  0  0  0
  -23.4249  -28.7823   23.3020 O   0  0  0  0  0  0
  -28.1180  -25.0981   19.9748 O   0  0  0  0  0  0
  -26.5776  -34.8773   22.4489 O   0  0  0  0  0  0
  -23.6083  -32.0994   23.6332 O   0  0  0  0  0  0
  -32.6469  -25.0175   15.7436 C   0  0  0  0  0  0
  -31.8941  -25.6444   16.9274 C   0  0  0  0  0  0
  -31.6904  -23.9841   15.1447 C   0  0  0  0  0  0
  -26.6850  -23.5997   19.5287 C   0  0  0  0  0  0
  -27.5560  -25.0591   17.9342 C   0  0  0  0  0  0
  -30.7604  -24.6462   17.3013 C   0  0  2  0  0  0
  -30.3539  -24.1769   15.8912 C   0  0  2  0  0  0
  -28.4287  -22.7017   20.4615 C   0  0  1  0  0  0
  -29.6348  -24.9377   18.4351 C   0  0  1  0  0  0
  -30.1243  -26.3650   18.9082 C   0  0  0  0  0  0
  -29.5919  -21.9454   14.7478 C   0  0  0  0  0  0
  -28.6064  -20.6642   20.5653 C   0  0  0  0  0  0
  -29.4295  -22.2935   17.2824 C   0  0  0  0  0  0
  -29.6389  -18.9585   20.2992 C   0  0  0  0  0  0
  -28.3655  -23.0040   18.1850 C   0  0  0  0  0  0
  -29.4490  -22.9512   15.8980 C   0  0  1  0  0  0
  -29.5089  -17.1272   20.4352 N   0  0  0  0  0  0
  -29.8522  -23.7042   19.8452 N   0  3  0  0  0  0
  -31.3732  -13.4440   19.0932 H   0  0  0  0  0  0
  -30.6167  -12.3305   20.1948 H   0  0  0  0  0  0
  -29.9973  -11.7944   17.8301 H   0  0  0  0  0  0
  -29.4582  -13.4321   17.5568 H   0  0  0  0  0  0
  -28.1885  -11.2987   19.2752 H   0  0  0  0  0  0
  -27.4478  -12.1391   17.9400 H   0  0  0  0  0  0
  -27.4340  -14.1980   19.1833 H   0  0  0  0  0  0
  -28.8656  -12.8564   21.5387 H   0  0  0  0  0  0
  -28.1266  -14.4388   21.5558 H   0  0  0  0  0  0
  -25.2742   -9.5746   22.4805 H   0  0  0  0  0  0
  -23.9996   -7.4695   22.7544 H   0  0  0  0  0  0
  -21.0835   -8.8791   19.8995 H   0  0  0  0  0  0
  -22.3685  -10.9694   19.6193 H   0  0  0  0  0  0
  -21.1947   -7.6141   23.9696 H   0  0  0  0  0  0
  -21.1493   -6.0529   25.9072 H   0  0  0  0  0  0
  -22.0580   -2.7610   23.2871 H   0  0  0  0  0  0
  -22.3900  -11.9814   22.4791 H   0  0  0  0  0  0
  -21.1012  -13.1307   22.2660 H   0  0  0  0  0  0
  -24.6535  -15.8688   20.5388 H   0  0  0  0  0  0
  -26.2432  -15.6195   20.0410 H   0  0  0  0  0  0
  -26.7704  -32.4828   23.0811 H   0  0  0  0  0  0
  -25.0262  -33.9257   25.0116 H   0  0  0  0  0  0
  -22.8612  -31.2410   21.3278 H   0  0  0  0  0  0
  -23.3790  -35.9341   23.3223 H   0  0  0  0  0  0
  -24.3572  -36.8766   22.2071 H   0  0  0  0  0  0
  -23.7254  -37.6180   23.6790 H   0  0  0  0  0  0
  -26.3778  -31.1859   20.6612 H   0  0  0  0  0  0
  -26.9806  -30.5225   22.1125 H   0  0  0  0  0  0
  -28.2270  -28.1872   21.1916 H   0  0  0  0  0  0
  -25.4730  -25.6303   19.0875 H   0  0  0  0  0  0
  -23.9110  -27.2534   19.0693 H   0  0  0  0  0  0
  -23.9933  -30.4780   19.4117 H   0  0  0  0  0  0
  -22.8874  -29.2133   19.8197 H   0  0  0  0  0  0
  -25.1368  -36.1451   25.0762 H   0  0  0  0  0  0
  -21.0084  -28.3361   24.1265 H   0  0  0  0  0  0
  -20.5645  -26.2375   23.3610 H   0  0  0  0  0  0
  -21.6639  -26.7326   22.1172 H   0  0  0  0  0  0
  -19.6896  -25.6257   21.1247 H   0  0  0  0  0  0
  -19.6700  -27.3145   20.6717 H   0  0  0  0  0  0
  -17.4193  -26.6688   21.4037 H   0  0  0  0  0  0
  -18.0354  -26.0121   22.9055 H   0  0  0  0  0  0
  -19.7990  -30.7402   24.2060 H   0  0  0  0  0  0
  -17.5029  -31.6261   24.5163 H   0  0  0  0  0  0
  -15.5375  -30.2907   23.7787 H   0  0  0  0  0  0
  -15.8710  -28.0790   22.7116 H   0  0  0  0  0  0
  -24.6037  -30.6958   25.7609 H   0  0  0  0  0  0
  -24.8828  -32.2934   26.4518 H   0  0  0  0  0  0
  -25.7964  -30.9073   27.0254 H   0  0  0  0  0  0
  -26.3325  -29.6280   24.1872 H   0  0  0  0  0  0
  -27.4024  -29.7256   25.5551 H   0  0  0  0  0  0
  -27.9359  -30.3711   24.0347 H   0  0  0  0  0  0
  -27.2714  -33.3668   26.1921 H   0  0  0  0  0  0
  -28.4144  -32.6664   25.0586 H   0  0  0  0  0  0
  -28.0616  -31.8564   26.5708 H   0  0  0  0  0  0
  -28.2496  -37.9996   24.7524 H   0  0  0  0  0  0
  -28.1086  -36.2515   24.6352 H   0  0  0  0  0  0
  -27.2265  -37.1326   25.8885 H   0  0  0  0  0  0
  -20.9776  -29.8686   21.6494 H   0  0  0  0  0  0
  -26.0010  -38.2568   24.1534 H   0  0  0  0  0  0
  -33.5681  -24.5284   16.0753 H   0  0  0  0  0  0
  -32.9320  -25.7805   15.0141 H   0  0  0  0  0  0
  -31.4824  -26.6004   16.6027 H   0  0  0  0  0  0
  -32.5897  -25.8235   17.7473 H   0  0  0  0  0  0
  -32.0885  -22.9811   15.3221 H   0  0  0  0  0  0
  -31.5700  -24.0987   14.0622 H   0  0  0  0  0  0
  -26.0629  -24.0305   20.3161 H   0  0  0  0  0  0
  -26.0094  -22.8548   19.0946 H   0  0  0  0  0  0
  -27.3130  -24.7786   16.8986 H   0  0  0  0  0  0
  -27.2690  -26.0990   17.7828 H   0  0  0  0  0  0
  -31.3768  -23.8730   17.7488 H   0  0  0  0  0  0
  -29.8139  -24.9948   15.4079 H   0  0  0  0  0  0
  -28.3318  -22.9825   21.5132 H   0  0  0  0  0  0
  -30.0036  -27.0909   18.1036 H   0  0  0  0  0  0
  -31.1573  -26.3617   19.2524 H   0  0  0  0  0  0
  -29.6092  -26.8094   19.7475 H   0  0  0  0  0  0
  -29.6644  -22.4570   13.7886 H   0  0  0  0  0  0
  -28.6936  -21.3281   14.7107 H   0  0  0  0  0  0
  -30.4426  -21.2766   14.8661 H   0  0  0  0  0  0
  -27.6418  -20.3692   20.1574 H   0  0  0  0  0  0
  -28.4687  -20.5580   21.6439 H   0  0  0  0  0  0
  -29.0803  -21.2689   17.0914 H   0  0  0  0  0  0
  -30.3907  -22.0857   17.7504 H   0  0  0  0  0  0
  -29.9635  -19.0562   19.2653 H   0  0  0  0  0  0
  -30.5682  -19.1255   20.8498 H   0  0  0  0  0  0
  -27.9686  -22.0081   18.4601 H   0  0  0  0  0  0
  -27.5370  -22.8943   17.4638 H   0  0  0  0  0  0
  -28.4577  -23.3529   15.6930 H   0  0  0  0  0  0
  -28.5516  -16.8826   20.6572 H   0  0  0  0  0  0
  -30.6650  -23.1279   19.7167 H   0  0  0  0  0  0
  -30.0452  -24.2994   20.6336 H   0  0  0  0  0  0
  1 25  1  0  0  0
  1 30  2  0  0  0
  1 87  1  0  0  0
  2  3  1  0  0  0
  2 25  1  0  0  0
  2 89  1  0  0  0
  2 90  1  0  0  0
  3  4  1  0  0  0
  3 91  1  0  0  0
  3 92  1  0  0  0
  4  5  1  0  0  0
  4 93  1  0  0  0
  4 94  1  0  0  0
  5  6  1  0  0  0
  5 26  1  0  0  0
  5 95  1  0  0  0
  6 25  1  0  0  0
  6 96  1  0  0  0
  6 97  1  0  0  0
  7  8  2  0  0  0
  7 26  1  0  0  0
  7 29  1  0  0  0
  8  9  1  0  0  0
  8 22  1  0  0  0
  9 10  1  0  0  0
  9 27  2  0  0  0
 10 11  2  0  0  0
 10 15  1  0  0  0
 11 12  1  0  0  0
 11 98  1  0  0  0
 12 13  2  0  0  0
 12 99  1  0  0  0
 13 14  1  0  0  0
 13 31  1  0  0  0
 14 15  2  0  0  0
 14100  1  0  0  0
 15101  1  0  0  0
 16 17  2  0  0  0
 16 21  1  0  0  0
 16 31  1  0  0  0
 17 18  1  0  0  0
 17102  1  0  0  0
 18 19  2  0  0  0
 18103  1  0  0  0
 19 20  1  0  0  0
 19 24  1  0  0  0
 20 21  2  0  0  0
 20104  1  0  0  0
 21 23  1  0  0  0
 22 28  1  0  0  0
 22 32  2  0  0  0
 26 27  1  0  0  0
 28105  1  0  0  0
 28106  1  0  0  0
 29107  1  0  0  0
 29108  1  0  0  0
 33 34  1  0  0  0
 33 66  1  0  0  0
 33 70  2  0  0  0
 34 36  1  0  0  0
 34 59  1  0  0  0
 34109  1  0  0  0
 35 44  2  0  0  0
 35 45  1  0  0  0
 35 68  1  0  0  0
 36 56  1  0  0  0
 36110  1  0  0  0
 37 39  1  0  0  0
 37 47  1  0  0  0
 37 66  1  0  0  0
 37111  1  0  0  0
 38 43  2  0  0  0
 38 46  1  0  0  0
 38 47  1  0  0  0
 39 64  1  0  0  0
 39 67  2  0  0  0
 40 52  1  0  0  0
 40 53  2  0  0  0
 40 58  1  0  0  0
 41112  1  0  0  0
 41113  1  0  0  0
 41114  1  0  0  0
 41 48  1  0  0  0
 42 43  1  0  0  0
 42 66  1  0  0  0
 42115  1  0  0  0
 42116  1  0  0  0
 43 44  1  0  0  0
 44117  1  0  0  0
 45 46  2  0  0  0
 45118  1  0  0  0
 46119  1  0  0  0
 47120  1  0  0  0
 47121  1  0  0  0
 48 56  1  0  0  0
 48 65  1  0  0  0
 48122  1  0  0  0
 49 50  1  0  0  0
 49 53  1  0  0  0
 49 64  1  0  0  0
 49123  1  0  0  0
 50 51  1  0  0  0
 50124  1  0  0  0
 50125  1  0  0  0
 51 52  1  0  0  0
 51126  1  0  0  0
 51127  1  0  0  0
 52128  1  0  0  0
 52129  1  0  0  0
 53 54  1  0  0  0
 54 55  2  0  0  0
 54130  1  0  0  0
 55 57  1  0  0  0
 55131  1  0  0  0
 56 69  2  0  0  0
 57 58  2  0  0  0
 57132  1  0  0  0
 58133  1  0  0  0
 59 60  1  0  0  0
 59 61  1  0  0  0
 59 62  1  0  0  0
 60134  1  0  0  0
 60135  1  0  0  0
 60136  1  0  0  0
 61137  1  0  0  0
 61138  1  0  0  0
 61139  1  0  0  0
 62140  1  0  0  0
 62141  1  0  0  0
 62142  1  0  0  0
 63 65  1  0  0  0
 63143  1  0  0  0
 63144  1  0  0  0
 63145  1  0  0  0
 64146  1  0  0  0
 65147  1  0  0  0
 68 85  1  0  0  0
 71 72  1  0  0  0
 71 73  1  0  0  0
 71148  1  0  0  0
 71149  1  0  0  0
 72150  1  0  0  0
 72151  1  0  0  0
 72 76  1  0  0  0
 73152  1  0  0  0
 73153  1  0  0  0
 73 77  1  0  0  0
 74 75  1  0  0  0
 74 78  1  0  0  0
 74154  1  0  0  0
 74155  1  0  0  0
 75 79  1  0  0  0
 75156  1  0  0  0
 75157  1  0  0  0
 76 77  1  0  0  0
 76 79  1  0  0  0
 76158  1  0  0  0
 77 86  1  0  0  0
 77159  1  0  0  0
 78 82  1  0  0  0
 78 88  1  0  0  0
 78160  1  0  0  0
 79 80  1  0  0  0
 79 88  1  0  0  0
 80161  1  0  0  0
 80162  1  0  0  0
 80163  1  0  0  0
 81164  1  0  0  0
 81165  1  0  0  0
 81166  1  0  0  0
 81 86  1  0  0  0
 82 84  1  0  0  0
 82167  1  0  0  0
 82168  1  0  0  0
 83 85  1  0  0  0
 83 86  1  0  0  0
 83169  1  0  0  0
 83170  1  0  0  0
 84 87  1  0  0  0
 84171  1  0  0  0
 84172  1  0  0  0
 85173  1  0  0  0
 85174  1  0  0  0
 86175  1  0  0  0
 87176  1  0  0  0
 88177  1  0  0  0
 88178  1  0  0  0
M  CHG  1  88   1
M  ISO  4   1 100  68 101  85 101  87 100
M  END
> <chiral flag>
0

> <version>
0

> <s_m_source_file>
/data/baiqing/PycharmProjects/Reinvent-master-3.2/result/LINK_invent/BTK/process_docking_weight1_custom_sum_contain_oxygen_bond_distance_aromatic_linkinvent_7_9_3/rearranged_h_0119.sdf

> <i_m_source_file_index>
33

> <r_mmod_Potential_Energy-OPLS-2005>
9687.9208984375

> <r_mmod_Stretch_Energy-OPLS-2005>
5864.2275390625

> <r_mmod_Bend_Energy-OPLS-2005>
985.803161621094

> <r_mmod_Torsional_Energy-OPLS-2005>
439.367340087891

> <r_mmod_Improper_Torsional_Energy-OPLS-2005>
3.26666450500488

> <r_mmod_Van_der_Waal_Energy-OPLS-2005>
1915.81945800781

> <r_mmod_Electrostatic_Energy-OPLS-2005>
-292.357360839844

> <r_mmod_Solvation_Energy-OPLS-2005>
-420.77734375

> <b_mmod_Minimization_Converged-OPLS-2005>
0

> <r_mmod_RMS_Derivative-OPLS-2005>
12.5918207168579

$$$$
33
                    3D
 Structure written by MMmdl.
173182  0  0  1  0            999 V2000
  -30.6721  -14.6166   20.5681 C   0  0  0  0  0  0
  -30.4303  -12.3979   19.4591 C   0  0  0  0  0  0
  -29.5142  -12.5259   18.2256 C   0  0  0  0  0  0
  -28.0347  -12.3632   18.6281 C   0  0  0  0  0  0
  -27.6511  -13.2270   19.8609 C   0  0  2  0  0  0
  -28.6908  -13.0939   20.9959 C   0  0  0  0  0  0
  -25.2503  -13.8200   20.5684 C   0  0  0  0  0  0
  -24.1802  -13.0421   20.9182 C   0  0  0  0  0  0
  -24.6378  -11.6905   20.8706 C   0  0  0  0  0  0
  -23.9064  -10.4294   21.0371 C   0  0  0  0  0  0
  -24.3618   -9.4199   21.9139 C   0  0  0  0  0  0
  -23.6269   -8.2263   22.0734 C   0  0  0  0  0  0
  -22.4242   -8.0292   21.3567 C   0  0  0  0  0  0
  -21.9868   -9.0269   20.4666 C   0  0  0  0  0  0
  -22.7220  -10.2137   20.3035 C   0  0  0  0  0  0
  -21.6862   -6.0724   22.5258 C   0  0  0  0  0  0
  -21.4040   -6.5624   23.8205 C   0  0  0  0  0  0
  -21.3661   -5.6780   24.9168 C   0  0  0  0  0  0
  -21.6038   -4.3041   24.7215 C   0  0  0  0  0  0
  -21.8826   -3.8131   23.4333 C   0  0  0  0  0  0
  -21.9204   -4.6948   22.3388 C   0  0  0  0  0  0
  -22.7809  -13.5201   21.1847 C   0  0  0  0  0  0
  -22.1659   -4.2142   21.0960 F   0  0  0  0  0  0
  -21.5618   -3.4522   25.7730 F   0  0  0  0  0  0
  -30.0077  -13.4254   20.4329 N   0  0  0  0  0  0
  -26.2967  -12.9400   20.3295 N   0  0  0  0  0  0
  -25.9306  -11.6546   20.5702 N   0  0  0  0  0  0
  -22.0454  -12.8241   22.0446 N   0  0  0  0  0  0
  -25.4125  -15.1937   20.4165 N   0  0  0  0  0  0
  -31.8405  -14.7301   20.1805 O   0  0  0  0  0  0
  -21.6625   -6.8872   21.4242 O   0  0  0  0  0  0
  -22.3472  -14.5485   20.6652 O   0  0  0  0  0  0
  -24.6220  -31.8658   23.2061 C   0  0  0  0  0  0
  -25.9099  -32.4797   23.8375 C   0  0  1  0  0  0
  -27.2399  -27.3639   20.1135 C   0  0  0  0  0  0
  -25.5935  -33.8587   24.2309 N   0  0  0  0  0  0
  -23.4157  -30.4857   21.5481 C   0  0  2  0  0  0
  -24.8686  -28.9377   20.1322 C   0  0  0  0  0  0
  -22.7454  -29.4631   22.4961 C   0  0  0  0  0  0
  -18.0280  -28.1386   22.8455 C   0  0  0  0  0  0
  -24.1466  -36.7276   23.2621 C   0  0  0  0  0  0
  -25.9531  -30.8039   21.3780 C   0  0  0  0  0  0
  -26.0346  -29.4260   20.7393 C   0  0  0  0  0  0
  -27.2274  -28.6440   20.7409 C   0  0  0  0  0  0
  -26.0558  -26.9157   19.4963 C   0  0  0  0  0  0
  -24.8744  -27.6779   19.5154 C   0  0  0  0  0  0
  -23.6365  -29.8189   20.1664 C   0  0  0  0  0  0
  -25.4087  -36.3086   24.0328 C   0  0  1  0  0  0
  -20.5874  -28.3693   23.1285 C   0  0  2  0  0  0
  -20.6750  -26.9401   22.5441 C   0  0  0  0  0  0
  -19.5760  -26.6392   21.5192 C   0  0  0  0  0  0
  -18.1926  -26.7935   22.1572 C   0  0  0  0  0  0
  -19.1534  -28.8850   23.2861 C   0  0  0  0  0  0
  -18.9473  -30.1434   23.8918 C   0  0  0  0  0  0
  -17.6477  -30.6562   24.0585 C   0  0  0  0  0  0
  -25.9042  -34.9461   23.5126 C   0  0  0  0  0  0
  -16.5375  -29.9077   23.6320 C   0  0  0  0  0  0
  -16.7271  -28.6496   23.0348 C   0  0  0  0  0  0
  -26.4492  -31.6572   25.0722 C   0  0  0  0  0  0
  -25.3767  -31.3876   26.1526 C   0  0  0  0  0  0
  -27.0139  -30.2895   24.6202 C   0  0  0  0  0  0
  -27.6176  -32.4189   25.7424 C   0  0  0  0  0  0
  -27.5591  -37.1748   24.8411 C   0  0  0  0  0  0
  -21.4171  -29.3043   22.3681 N   0  0  0  0  0  0
  -26.4245  -37.3809   23.9448 N   0  0  0  0  0  0
  -24.6808  -31.0672   22.1009 N   0  0  0  0  0  0
  -23.4175  -28.8143   23.3022 O   0  0  0  0  0  0
  -28.3360  -26.5271   19.9362 O   0  0  0  0  0  0
  -26.5621  -34.8919   22.4688 O   0  0  0  0  0  0
  -23.5399  -32.1466   23.7402 O   0  0  0  0  0  0
  -29.7529  -18.2289   20.8488 C   0  0  0  0  0  0
  -31.7606  -18.3474   22.6869 C   0  0  0  0  0  0
  -30.1820  -19.5348   21.2619 C   0  0  0  0  0  0
  -31.2345  -19.5653   22.2122 C   0  0  0  0  0  0
  -30.3752  -17.0302   21.3368 C   0  0  0  0  0  0
  -28.0342  -21.8911   22.0704 C   0  0  0  0  0  0
  -29.2593  -23.3477   20.6580 C   0  0  0  0  0  0
  -27.7458  -23.0529   23.0505 C   0  0  0  0  0  0
  -28.9889  -24.5949   21.5990 C   0  0  1  0  0  0
  -31.8567  -20.8615   22.7069 C   0  0  0  0  0  0
  -28.3670  -25.7664   24.4366 C   0  0  0  0  0  0
  -25.9168  -25.3943   23.8675 C   0  0  0  0  0  0
  -29.6399  -20.8467   20.5848 C   0  0  0  0  0  0
  -29.1873  -26.0665   21.0067 C   0  0  0  0  0  0
  -27.3447  -25.5201   23.3033 C   0  0  0  0  0  0
  -31.3555  -17.1339   22.2647 N   0  0  0  0  0  0
  -29.3320  -22.0590   21.4130 N   0  0  0  0  0  0
  -29.9261  -15.7169   20.9085 N   0  0  0  0  0  0
  -27.7237  -24.3915   22.3802 N   0  3  2  0  0  0
  -31.4737  -12.5088   19.1618 H   0  0  0  0  0  0
  -30.3466  -11.4023   19.9012 H   0  0  0  0  0  0
  -29.7852  -11.7870   17.4722 H   0  0  0  0  0  0
  -29.6675  -13.5008   17.7641 H   0  0  0  0  0  0
  -27.8679  -11.3085   18.8472 H   0  0  0  0  0  0
  -27.3900  -12.6078   17.7841 H   0  0  0  0  0  0
  -27.6686  -14.2653   19.5249 H   0  0  0  0  0  0
  -28.6966  -12.0773   21.3922 H   0  0  0  0  0  0
  -28.4311  -13.7414   21.8351 H   0  0  0  0  0  0
  -25.2785   -9.5664   22.4689 H   0  0  0  0  0  0
  -24.0003   -7.4625   22.7412 H   0  0  0  0  0  0
  -21.0810   -8.8775   19.8970 H   0  0  0  0  0  0
  -22.3662  -10.9657   19.6122 H   0  0  0  0  0  0
  -21.2050   -7.6133   23.9710 H   0  0  0  0  0  0
  -21.1469   -6.0500   25.9067 H   0  0  0  0  0  0
  -22.0606   -2.7582   23.2852 H   0  0  0  0  0  0
  -22.4047  -11.9919   22.4908 H   0  0  0  0  0  0
  -21.1077  -13.1291   22.2594 H   0  0  0  0  0  0
  -24.6364  -15.8376   20.5205 H   0  0  0  0  0  0
  -26.2598  -15.6505   20.1089 H   0  0  0  0  0  0
  -26.7172  -32.5487   23.1133 H   0  0  0  0  0  0
  -25.0074  -33.9732   25.0450 H   0  0  0  0  0  0
  -22.7115  -31.3061   21.4031 H   0  0  0  0  0  0
  -23.3800  -35.9522   23.3163 H   0  0  0  0  0  0
  -24.3603  -36.9032   22.2061 H   0  0  0  0  0  0
  -23.7099  -37.6389   23.6720 H   0  0  0  0  0  0
  -26.0727  -31.5675   20.6070 H   0  0  0  0  0  0
  -26.8342  -30.8649   22.0026 H   0  0  0  0  0  0
  -28.1290  -29.0341   21.1937 H   0  0  0  0  0  0
  -26.0559  -25.9639   18.9825 H   0  0  0  0  0  0
  -23.9802  -27.2969   19.0401 H   0  0  0  0  0  0
  -23.7655  -30.5938   19.4104 H   0  0  0  0  0  0
  -22.7563  -29.2522   19.8562 H   0  0  0  0  0  0
  -25.1236  -36.1936   25.0819 H   0  0  0  0  0  0
  -20.9959  -28.3280   24.1405 H   0  0  0  0  0  0
  -20.5545  -26.2307   23.3646 H   0  0  0  0  0  0
  -21.6644  -26.7369   22.1319 H   0  0  0  0  0  0
  -19.6921  -25.6305   21.1231 H   0  0  0  0  0  0
  -19.6697  -27.3203   20.6717 H   0  0  0  0  0  0
  -17.4187  -26.6690   21.3984 H   0  0  0  0  0  0
  -18.0320  -26.0067   22.8957 H   0  0  0  0  0  0
  -19.7949  -30.7226   24.2312 H   0  0  0  0  0  0
  -17.5048  -31.6244   24.5207 H   0  0  0  0  0  0
  -15.5384  -30.3019   23.7609 H   0  0  0  0  0  0
  -15.8661  -28.0812   22.7097 H   0  0  0  0  0  0
  -24.5793  -30.7357   25.7945 H   0  0  0  0  0  0
  -24.9152  -32.3133   26.4987 H   0  0  0  0  0  0
  -25.8111  -30.9010   27.0268 H   0  0  0  0  0  0
  -26.2590  -29.6773   24.1258 H   0  0  0  0  0  0
  -27.3719  -29.7082   25.4712 H   0  0  0  0  0  0
  -27.8592  -30.3988   23.9405 H   0  0  0  0  0  0
  -27.2946  -33.3575   26.1937 H   0  0  0  0  0  0
  -28.4034  -32.6566   25.0236 H   0  0  0  0  0  0
  -28.0770  -31.8299   26.5375 H   0  0  0  0  0  0
  -28.2556  -38.0106   24.7602 H   0  0  0  0  0  0
  -28.1134  -36.2667   24.6001 H   0  0  0  0  0  0
  -27.2359  -37.1150   25.8820 H   0  0  0  0  0  0
  -20.9341  -29.8778   21.6904 H   0  0  0  0  0  0
  -26.0133  -38.2840   24.1646 H   0  0  0  0  0  0
  -28.9655  -18.1543   20.1103 H   0  0  0  0  0  0
  -32.5579  -18.3403   23.4171 H   0  0  0  0  0  0
  -27.2363  -21.8121   21.3302 H   0  0  0  0  0  0
  -28.0364  -20.9528   22.6281 H   0  0  0  0  0  0
  -30.2128  -23.4972   20.1489 H   0  0  0  0  0  0
  -28.5033  -23.2860   19.8709 H   0  0  0  0  0  0
  -28.4954  -23.0382   23.8415 H   0  0  0  0  0  0
  -26.7893  -22.8523   23.5321 H   0  0  0  0  0  0
  -29.7946  -24.5272   22.3315 H   0  0  0  0  0  0
  -32.7847  -20.6780   23.2547 H   0  0  0  0  0  0
  -31.1739  -21.3773   23.3836 H   0  0  0  0  0  0
  -32.1002  -21.5206   21.8712 H   0  0  0  0  0  0
  -28.1333  -26.6928   24.9642 H   0  0  0  0  0  0
  -29.3870  -25.8725   24.0719 H   0  0  0  0  0  0
  -28.3585  -24.9647   25.1761 H   0  0  0  0  0  0
  -25.6357  -26.3041   24.4012 H   0  0  0  0  0  0
  -25.8163  -24.5771   24.5814 H   0  0  0  0  0  0
  -25.1810  -25.2545   23.0761 H   0  0  0  0  0  0
  -28.7619  -20.5853   19.9917 H   0  0  0  0  0  0
  -30.4030  -21.1277   19.8566 H   0  0  0  0  0  0
  -30.1886  -26.0850   20.5731 H   0  0  0  0  0  0
  -29.2432  -26.8188   21.7926 H   0  0  0  0  0  0
  -27.2972  -26.4342   22.7151 H   0  0  0  0  0  0
  -28.9302  -15.5745   20.9331 H   0  0  0  0  0  0
  -26.9866  -24.3423   21.6909 H   0  0  0  0  0  0
  1 25  1  0  0  0
  1 30  2  0  0  0
  1 88  1  0  0  0
  2  3  1  0  0  0
  2 25  1  0  0  0
  2 90  1  0  0  0
  2 91  1  0  0  0
  3  4  1  0  0  0
  3 92  1  0  0  0
  3 93  1  0  0  0
  4  5  1  0  0  0
  4 94  1  0  0  0
  4 95  1  0  0  0
  5  6  1  0  0  0
  5 26  1  0  0  0
  5 96  1  0  0  0
  6 25  1  0  0  0
  6 97  1  0  0  0
  6 98  1  0  0  0
  7  8  2  0  0  0
  7 26  1  0  0  0
  7 29  1  0  0  0
  8  9  1  0  0  0
  8 22  1  0  0  0
  9 10  1  0  0  0
  9 27  2  0  0  0
 10 11  2  0  0  0
 10 15  1  0  0  0
 11 12  1  0  0  0
 11 99  1  0  0  0
 12 13  2  0  0  0
 12100  1  0  0  0
 13 14  1  0  0  0
 13 31  1  0  0  0
 14 15  2  0  0  0
 14101  1  0  0  0
 15102  1  0  0  0
 16 17  2  0  0  0
 16 21  1  0  0  0
 16 31  1  0  0  0
 17 18  1  0  0  0
 17103  1  0  0  0
 18 19  2  0  0  0
 18104  1  0  0  0
 19 20  1  0  0  0
 19 24  1  0  0  0
 20 21  2  0  0  0
 20105  1  0  0  0
 21 23  1  0  0  0
 22 28  1  0  0  0
 22 32  2  0  0  0
 26 27  1  0  0  0
 28106  1  0  0  0
 28107  1  0  0  0
 29108  1  0  0  0
 29109  1  0  0  0
 33 34  1  0  0  0
 33 66  1  0  0  0
 33 70  2  0  0  0
 34 36  1  0  0  0
 34 59  1  0  0  0
 34110  1  0  0  0
 35 44  2  0  0  0
 35 45  1  0  0  0
 35 68  1  0  0  0
 36 56  1  0  0  0
 36111  1  0  0  0
 37 39  1  0  0  0
 37 47  1  0  0  0
 37 66  1  0  0  0
 37112  1  0  0  0
 38 43  2  0  0  0
 38 46  1  0  0  0
 38 47  1  0  0  0
 39 64  1  0  0  0
 39 67  2  0  0  0
 40 52  1  0  0  0
 40 53  2  0  0  0
 40 58  1  0  0  0
 41113  1  0  0  0
 41114  1  0  0  0
 41115  1  0  0  0
 41 48  1  0  0  0
 42 43  1  0  0  0
 42 66  1  0  0  0
 42116  1  0  0  0
 42117  1  0  0  0
 43 44  1  0  0  0
 44118  1  0  0  0
 45 46  2  0  0  0
 45119  1  0  0  0
 46120  1  0  0  0
 47121  1  0  0  0
 47122  1  0  0  0
 48 56  1  0  0  0
 48 65  1  0  0  0
 48123  1  0  0  0
 49 50  1  0  0  0
 49 53  1  0  0  0
 49 64  1  0  0  0
 49124  1  0  0  0
 50 51  1  0  0  0
 50125  1  0  0  0
 50126  1  0  0  0
 51 52  1  0  0  0
 51127  1  0  0  0
 51128  1  0  0  0
 52129  1  0  0  0
 52130  1  0  0  0
 53 54  1  0  0  0
 54 55  2  0  0  0
 54131  1  0  0  0
 55 57  1  0  0  0
 55132  1  0  0  0
 56 69  2  0  0  0
 57 58  2  0  0  0
 57133  1  0  0  0
 58134  1  0  0  0
 59 60  1  0  0  0
 59 61  1  0  0  0
 59 62  1  0  0  0
 60135  1  0  0  0
 60136  1  0  0  0
 60137  1  0  0  0
 61138  1  0  0  0
 61139  1  0  0  0
 61140  1  0  0  0
 62141  1  0  0  0
 62142  1  0  0  0
 62143  1  0  0  0
 63 65  1  0  0  0
 63144  1  0  0  0
 63145  1  0  0  0
 63146  1  0  0  0
 64147  1  0  0  0
 65148  1  0  0  0
 68 84  1  0  0  0
 71 73  2  0  0  0
 71 75  1  0  0  0
 71149  1  0  0  0
 72 74  2  0  0  0
 72 86  1  0  0  0
 72150  1  0  0  0
 73 74  1  0  0  0
 73 83  1  0  0  0
 74 80  1  0  0  0
 75 86  2  0  0  0
 75 88  1  0  0  0
 76 78  1  0  0  0
 76 87  1  0  0  0
 76151  1  0  0  0
 76152  1  0  0  0
 77 79  1  0  0  0
 77 87  1  0  0  0
 77153  1  0  0  0
 77154  1  0  0  0
 78155  1  0  0  0
 78156  1  0  0  0
 78 89  1  0  0  0
 79 84  1  0  0  0
 79 89  1  0  0  0
 79157  1  0  0  0
 80158  1  0  0  0
 80159  1  0  0  0
 80160  1  0  0  0
 81161  1  0  0  0
 81162  1  0  0  0
 81163  1  0  0  0
 81 85  1  0  0  0
 82 85  1  0  0  0
 82164  1  0  0  0
 82165  1  0  0  0
 82166  1  0  0  0
 83 87  1  0  0  0
 83167  1  0  0  0
 83168  1  0  0  0
 84169  1  0  0  0
 84170  1  0  0  0
 85 89  1  0  0  0
 85171  1  0  0  0
 88172  1  0  0  0
 89173  1  0  0  0
M  CHG  1  89   1
M  ISO  4   1 100  68 101  84 101  88 100
M  END
> <chiral flag>
0

> <version>
0

> <s_m_source_file>
/data/baiqing/PycharmProjects/Reinvent-master-3.2/result/LINK_invent/BTK/process_docking_weight1_custom_sum_contain_oxygen_bond_distance_aromatic_linkinvent_7_9_3/rearranged_h_0119.sdf

> <i_m_source_file_index>
34

> <r_mmod_Potential_Energy-OPLS-2005>
-117.982276916504

> <r_mmod_Stretch_Energy-OPLS-2005>
76.6924133300781

> <r_mmod_Bend_Energy-OPLS-2005>
164.436401367188

> <r_mmod_Torsional_Energy-OPLS-2005>
260.955139160156

> <r_mmod_Improper_Torsional_Energy-OPLS-2005>
6.48566150665283

> <r_mmod_Van_der_Waal_Energy-OPLS-2005>
143.168884277344

> <r_mmod_Electrostatic_Energy-OPLS-2005>
-369.287353515625

> <r_mmod_Solvation_Energy-OPLS-2005>
-438.877655029297

> <b_mmod_Minimization_Converged-OPLS-2005>
0

> <r_mmod_RMS_Derivative-OPLS-2005>
4.72307586669922

$$$$
34
                    3D
 Structure written by MMmdl.
159168  0  0  1  0            999 V2000
  -30.6072  -14.7389   20.4698 C   0  0  0  0  0  0
  -30.4393  -12.4434   19.5021 C   0  0  0  0  0  0
  -29.5297  -12.5140   18.2533 C   0  0  0  0  0  0
  -28.0495  -12.3430   18.6525 C   0  0  0  0  0  0
  -27.6501  -13.2299   19.8619 C   0  0  2  0  0  0
  -28.6892  -13.1515   21.0044 C   0  0  0  0  0  0
  -25.2526  -13.8190   20.5699 C   0  0  0  0  0  0
  -24.1811  -13.0439   20.9200 C   0  0  0  0  0  0
  -24.6409  -11.6914   20.8745 C   0  0  0  0  0  0
  -23.9058  -10.4291   21.0398 C   0  0  0  0  0  0
  -24.3618   -9.4216   21.9189 C   0  0  0  0  0  0
  -23.6284   -8.2254   22.0754 C   0  0  0  0  0  0
  -22.4261   -8.0289   21.3553 C   0  0  0  0  0  0
  -21.9896   -9.0259   20.4661 C   0  0  0  0  0  0
  -22.7229  -10.2134   20.3053 C   0  0  0  0  0  0
  -21.6847   -6.0737   22.5275 C   0  0  0  0  0  0
  -21.4037   -6.5639   23.8210 C   0  0  0  0  0  0
  -21.3654   -5.6788   24.9171 C   0  0  0  0  0  0
  -21.6026   -4.3039   24.7221 C   0  0  0  0  0  0
  -21.8811   -3.8150   23.4338 C   0  0  0  0  0  0
  -21.9190   -4.6974   22.3405 C   0  0  0  0  0  0
  -22.7828  -13.5227   21.1845 C   0  0  0  0  0  0
  -22.1653   -4.2163   21.0977 F   0  0  0  0  0  0
  -21.5619   -3.4526   25.7739 F   0  0  0  0  0  0
  -29.9996  -13.5006   20.4417 N   0  0  0  0  0  0
  -26.2972  -12.9395   20.3300 N   0  0  0  0  0  0
  -25.9340  -11.6535   20.5754 N   0  0  0  0  0  0
  -22.0436  -12.8248   22.0390 N   0  0  0  0  0  0
  -25.4220  -15.1911   20.4159 N   0  0  0  0  0  0
  -31.7680  -14.8627   20.0688 O   0  0  0  0  0  0
  -21.6634   -6.8877   21.4236 O   0  0  0  0  0  0
  -22.3512  -14.5524   20.6668 O   0  0  0  0  0  0
  -24.6299  -31.8575   23.1968 C   0  0  0  0  0  0
  -25.9138  -32.4747   23.8311 C   0  0  1  0  0  0
  -27.2149  -27.2633   20.1345 C   0  0  0  0  0  0
  -25.5941  -33.8552   24.2247 N   0  0  0  0  0  0
  -23.4239  -30.4791   21.5423 C   0  0  2  0  0  0
  -24.8713  -28.9313   20.1044 C   0  0  0  0  0  0
  -22.7487  -29.4607   22.4913 C   0  0  0  0  0  0
  -18.0293  -28.1381   22.8487 C   0  0  0  0  0  0
  -24.1501  -36.7282   23.2630 C   0  0  0  0  0  0
  -25.9690  -30.7715   21.3753 C   0  0  0  0  0  0
  -26.0420  -29.3945   20.7181 C   0  0  0  0  0  0
  -27.2142  -28.5721   20.7250 C   0  0  0  0  0  0
  -26.0268  -26.8831   19.4663 C   0  0  0  0  0  0
  -24.8698  -27.6842   19.4665 C   0  0  0  0  0  0
  -23.6408  -29.8151   20.1570 C   0  0  0  0  0  0
  -25.4115  -36.3047   24.0316 C   0  0  1  0  0  0
  -20.5896  -28.3698   23.1272 C   0  0  2  0  0  0
  -20.6790  -26.9421   22.5408 C   0  0  0  0  0  0
  -19.5764  -26.6386   21.5209 C   0  0  0  0  0  0
  -18.1938  -26.7926   22.1618 C   0  0  0  0  0  0
  -19.1545  -28.8852   23.2876 C   0  0  0  0  0  0
  -18.9470  -30.1456   23.8888 C   0  0  0  0  0  0
  -17.6470  -30.6587   24.0558 C   0  0  0  0  0  0
  -25.9066  -34.9427   23.5084 C   0  0  0  0  0  0
  -16.5360  -29.9081   23.6328 C   0  0  0  0  0  0
  -16.7279  -28.6495   23.0352 C   0  0  0  0  0  0
  -26.4511  -31.6543   25.0684 C   0  0  0  0  0  0
  -25.3725  -31.3708   26.1403 C   0  0  0  0  0  0
  -27.0344  -30.2947   24.6146 C   0  0  0  0  0  0
  -27.6067  -32.4267   25.7467 C   0  0  0  0  0  0
  -27.5581  -37.1782   24.8455 C   0  0  0  0  0  0
  -21.4191  -29.3042   22.3660 N   0  0  0  0  0  0
  -26.4283  -37.3746   23.9411 N   0  0  0  0  0  0
  -24.6934  -31.0531   22.0957 N   0  0  0  0  0  0
  -23.4203  -28.8161   23.3015 O   0  0  0  0  0  0
  -28.3018  -26.3584   20.2418 O   0  0  0  0  0  0
  -26.5633  -34.8904   22.4654 O   0  0  0  0  0  0
  -23.5458  -32.1415   23.7259 O   0  0  0  0  0  0
  -31.4774  -20.1922   21.7285 C   0  0  0  0  0  0
  -31.1274  -18.8627   21.4051 C   0  0  0  0  0  0
  -30.6665  -21.2727   21.3041 C   0  0  0  0  0  0
  -29.4627  -20.9842   20.6352 C   0  0  0  0  0  0
  -29.9755  -18.6043   20.6439 C   0  0  0  0  0  0
  -31.0991  -22.7203   21.5593 C   0  0  0  0  0  0
  -28.4995  -22.1726   20.2433 C   0  0  0  0  0  0
  -30.4214  -23.7768   20.6453 C   0  0  0  0  0  0
  -28.8864  -23.6760   20.6838 C   0  0  1  0  0  0
  -28.5326  -17.1613   19.0689 C   0  0  0  0  0  0
  -28.0858  -24.8926   19.9689 C   0  0  0  0  0  0
  -29.7881  -17.1723   19.9603 C   0  0  2  0  0  0
  -29.1515  -19.6731   20.3048 N   0  0  0  0  0  0
  -29.8190  -15.8467   20.7180 N   0  0  0  0  0  0
  -31.4870  -12.5574   19.2204 H   0  0  0  0  0  0
  -30.3708  -11.4646   19.9802 H   0  0  0  0  0  0
  -29.8165  -11.7446   17.5362 H   0  0  0  0  0  0
  -29.6730  -13.4721   17.7477 H   0  0  0  0  0  0
  -27.8907  -11.2917   18.8967 H   0  0  0  0  0  0
  -27.4028  -12.5558   17.8015 H   0  0  0  0  0  0
  -27.6508  -14.2533   19.4891 H   0  0  0  0  0  0
  -28.7158  -12.1504   21.4391 H   0  0  0  0  0  0
  -28.4195  -13.8271   21.8162 H   0  0  0  0  0  0
  -25.2770   -9.5715   22.4766 H   0  0  0  0  0  0
  -24.0015   -7.4634   22.7457 H   0  0  0  0  0  0
  -21.0830   -8.8771   19.8966 H   0  0  0  0  0  0
  -22.3681  -10.9673   19.6154 H   0  0  0  0  0  0
  -21.2054   -7.6149   23.9723 H   0  0  0  0  0  0
  -21.1471   -6.0518   25.9067 H   0  0  0  0  0  0
  -22.0602   -2.7622   23.2832 H   0  0  0  0  0  0
  -22.4018  -11.9940   22.4865 H   0  0  0  0  0  0
  -21.1053  -13.1320   22.2544 H   0  0  0  0  0  0
  -24.6589  -15.8486   20.5294 H   0  0  0  0  0  0
  -26.2700  -15.6273   20.0787 H   0  0  0  0  0  0
  -26.7202  -32.5400   23.1048 H   0  0  0  0  0  0
  -25.0041  -33.9695   25.0358 H   0  0  0  0  0  0
  -22.7189  -31.3004   21.3967 H   0  0  0  0  0  0
  -23.3755  -35.9625   23.3266 H   0  0  0  0  0  0
  -24.3608  -36.8942   22.2054 H   0  0  0  0  0  0
  -23.7275  -37.6481   23.6683 H   0  0  0  0  0  0
  -26.0999  -31.5328   20.6043 H   0  0  0  0  0  0
  -26.8512  -30.8237   22.0025 H   0  0  0  0  0  0
  -28.1041  -28.9172   21.2320 H   0  0  0  0  0  0
  -25.9533  -25.9378   18.9505 H   0  0  0  0  0  0
  -23.9744  -27.3270   18.9748 H   0  0  0  0  0  0
  -23.7606  -30.5932   19.4016 H   0  0  0  0  0  0
  -22.7602  -29.2446   19.8532 H   0  0  0  0  0  0
  -25.1289  -36.1874   25.0803 H   0  0  0  0  0  0
  -20.9968  -28.3277   24.1399 H   0  0  0  0  0  0
  -20.5702  -26.2302   23.3604 H   0  0  0  0  0  0
  -21.6663  -26.7465   22.1197 H   0  0  0  0  0  0
  -19.6938  -25.6292   21.1247 H   0  0  0  0  0  0
  -19.6693  -27.3196   20.6733 H   0  0  0  0  0  0
  -17.4211  -26.6676   21.4015 H   0  0  0  0  0  0
  -18.0339  -26.0061   22.9005 H   0  0  0  0  0  0
  -19.7943  -30.7281   24.2244 H   0  0  0  0  0  0
  -17.5025  -31.6260   24.5166 H   0  0  0  0  0  0
  -15.5363  -30.2988   23.7640 H   0  0  0  0  0  0
  -15.8676  -28.0807   22.7074 H   0  0  0  0  0  0
  -24.5913  -30.7037   25.7743 H   0  0  0  0  0  0
  -24.8898  -32.2887   26.4765 H   0  0  0  0  0  0
  -25.8041  -30.8938   27.0208 H   0  0  0  0  0  0
  -26.2915  -29.6690   24.1181 H   0  0  0  0  0  0
  -27.4053  -29.7197   25.4642 H   0  0  0  0  0  0
  -27.8784  -30.4209   23.9357 H   0  0  0  0  0  0
  -27.2672  -33.3571   26.2026 H   0  0  0  0  0  0
  -28.3889  -32.6812   25.0301 H   0  0  0  0  0  0
  -28.0714  -31.8391   26.5393 H   0  0  0  0  0  0
  -28.2556  -38.0118   24.7520 H   0  0  0  0  0  0
  -28.1116  -36.2642   24.6232 H   0  0  0  0  0  0
  -27.2312  -37.1377   25.8863 H   0  0  0  0  0  0
  -20.9372  -29.8741   21.6846 H   0  0  0  0  0  0
  -26.0149  -38.2816   24.1418 H   0  0  0  0  0  0
  -32.3943  -20.3845   22.2692 H   0  0  0  0  0  0
  -31.7939  -18.0486   21.6609 H   0  0  0  0  0  0
  -32.1817  -22.7872   21.4371 H   0  0  0  0  0  0
  -30.9017  -22.9567   22.6064 H   0  0  0  0  0  0
  -27.5078  -21.9357   20.6310 H   0  0  0  0  0  0
  -28.4070  -22.1473   19.1576 H   0  0  0  0  0  0
  -30.7623  -23.6471   19.6169 H   0  0  0  0  0  0
  -30.7402  -24.7742   20.9503 H   0  0  0  0  0  0
  -28.6249  -23.7480   21.7390 H   0  0  0  0  0  0
  -28.5601  -17.9804   18.3496 H   0  0  0  0  0  0
  -27.6252  -17.2707   19.6634 H   0  0  0  0  0  0
  -28.4517  -16.2415   18.4922 H   0  0  0  0  0  0
  -27.0514  -24.6644   20.2282 H   0  0  0  0  0  0
  -28.1577  -24.7634   18.8887 H   0  0  0  0  0  0
  -30.6326  -17.1234   19.2694 H   0  0  0  0  0  0
  -28.9399  -15.6278   21.1619 H   0  0  0  0  0  0
  1 25  1  0  0  0
  1 30  2  0  0  0
  1 84  1  0  0  0
  2  3  1  0  0  0
  2 25  1  0  0  0
  2 85  1  0  0  0
  2 86  1  0  0  0
  3  4  1  0  0  0
  3 87  1  0  0  0
  3 88  1  0  0  0
  4  5  1  0  0  0
  4 89  1  0  0  0
  4 90  1  0  0  0
  5  6  1  0  0  0
  5 26  1  0  0  0
  5 91  1  0  0  0
  6 25  1  0  0  0
  6 92  1  0  0  0
  6 93  1  0  0  0
  7  8  2  0  0  0
  7 26  1  0  0  0
  7 29  1  0  0  0
  8  9  1  0  0  0
  8 22  1  0  0  0
  9 10  1  0  0  0
  9 27  2  0  0  0
 10 11  2  0  0  0
 10 15  1  0  0  0
 11 12  1  0  0  0
 11 94  1  0  0  0
 12 13  2  0  0  0
 12 95  1  0  0  0
 13 14  1  0  0  0
 13 31  1  0  0  0
 14 15  2  0  0  0
 14 96  1  0  0  0
 15 97  1  0  0  0
 16 17  2  0  0  0
 16 21  1  0  0  0
 16 31  1  0  0  0
 17 18  1  0  0  0
 17 98  1  0  0  0
 18 19  2  0  0  0
 18 99  1  0  0  0
 19 20  1  0  0  0
 19 24  1  0  0  0
 20 21  2  0  0  0
 20100  1  0  0  0
 21 23  1  0  0  0
 22 28  1  0  0  0
 22 32  2  0  0  0
 26 27  1  0  0  0
 28101  1  0  0  0
 28102  1  0  0  0
 29103  1  0  0  0
 29104  1  0  0  0
 33 34  1  0  0  0
 33 66  1  0  0  0
 33 70  2  0  0  0
 34 36  1  0  0  0
 34 59  1  0  0  0
 34105  1  0  0  0
 35 44  2  0  0  0
 35 45  1  0  0  0
 35 68  1  0  0  0
 36 56  1  0  0  0
 36106  1  0  0  0
 37 39  1  0  0  0
 37 47  1  0  0  0
 37 66  1  0  0  0
 37107  1  0  0  0
 38 43  2  0  0  0
 38 46  1  0  0  0
 38 47  1  0  0  0
 39 64  1  0  0  0
 39 67  2  0  0  0
 40 52  1  0  0  0
 40 53  2  0  0  0
 40 58  1  0  0  0
 41108  1  0  0  0
 41109  1  0  0  0
 41110  1  0  0  0
 41 48  1  0  0  0
 42 43  1  0  0  0
 42 66  1  0  0  0
 42111  1  0  0  0
 42112  1  0  0  0
 43 44  1  0  0  0
 44113  1  0  0  0
 45 46  2  0  0  0
 45114  1  0  0  0
 46115  1  0  0  0
 47116  1  0  0  0
 47117  1  0  0  0
 48 56  1  0  0  0
 48 65  1  0  0  0
 48118  1  0  0  0
 49 50  1  0  0  0
 49 53  1  0  0  0
 49 64  1  0  0  0
 49119  1  0  0  0
 50 51  1  0  0  0
 50120  1  0  0  0
 50121  1  0  0  0
 51 52  1  0  0  0
 51122  1  0  0  0
 51123  1  0  0  0
 52124  1  0  0  0
 52125  1  0  0  0
 53 54  1  0  0  0
 54 55  2  0  0  0
 54126  1  0  0  0
 55 57  1  0  0  0
 55127  1  0  0  0
 56 69  2  0  0  0
 57 58  2  0  0  0
 57128  1  0  0  0
 58129  1  0  0  0
 59 60  1  0  0  0
 59 61  1  0  0  0
 59 62  1  0  0  0
 60130  1  0  0  0
 60131  1  0  0  0
 60132  1  0  0  0
 61133  1  0  0  0
 61134  1  0  0  0
 61135  1  0  0  0
 62136  1  0  0  0
 62137  1  0  0  0
 62138  1  0  0  0
 63 65  1  0  0  0
 63139  1  0  0  0
 63140  1  0  0  0
 63141  1  0  0  0
 64142  1  0  0  0
 65143  1  0  0  0
 68 81  1  0  0  0
 71 72  2  0  0  0
 71 73  1  0  0  0
 71144  1  0  0  0
 72 75  1  0  0  0
 72145  1  0  0  0
 73 74  2  0  0  0
 73 76  1  0  0  0
 74 77  1  0  0  0
 74 83  1  0  0  0
 75 82  1  0  0  0
 75 83  2  0  0  0
 76 78  1  0  0  0
 76146  1  0  0  0
 76147  1  0  0  0
 77 79  1  0  0  0
 77148  1  0  0  0
 77149  1  0  0  0
 78 79  1  0  0  0
 78150  1  0  0  0
 78151  1  0  0  0
 79 81  1  0  0  0
 79152  1  0  0  0
 80153  1  0  0  0
 80154  1  0  0  0
 80155  1  0  0  0
 80 82  1  0  0  0
 81156  1  0  0  0
 81157  1  0  0  0
 82 84  1  0  0  0
 82158  1  0  0  0
 84159  1  0  0  0
M  ISO  4   1 100  68 101  81 101  84 100
M  END
> <chiral flag>
0

> <version>
0

> <s_m_source_file>
/data/baiqing/PycharmProjects/Reinvent-master-3.2/result/LINK_invent/BTK/process_docking_weight1_custom_sum_contain_oxygen_bond_distance_aromatic_linkinvent_7_9_3/rearranged_h_0119.sdf

> <i_m_source_file_index>
35

> <r_mmod_Potential_Energy-OPLS-2005>
-95.4268646240234

> <r_mmod_Stretch_Energy-OPLS-2005>
116.668327331543

> <r_mmod_Bend_Energy-OPLS-2005>
168.72819519043

> <r_mmod_Torsional_Energy-OPLS-2005>
236.236450195312

> <r_mmod_Improper_Torsional_Energy-OPLS-2005>
9.02932453155518

> <r_mmod_Van_der_Waal_Energy-OPLS-2005>
143.665237426758

> <r_mmod_Electrostatic_Energy-OPLS-2005>
-634.313293457031

> <r_mmod_Solvation_Energy-OPLS-2005>
-220.932205200195

> <b_mmod_Minimization_Converged-OPLS-2005>
0

> <r_mmod_RMS_Derivative-OPLS-2005>
3.37888264656067

$$$$
35
                    3D
 Structure written by MMmdl.
159167  0  0  1  0            999 V2000
  -30.6377  -14.5883   20.4757 C   0  0  0  0  0  0
  -30.4177  -12.3616   19.4400 C   0  0  0  0  0  0
  -29.4908  -12.4921   18.2112 C   0  0  0  0  0  0
  -28.0120  -12.3484   18.6272 C   0  0  0  0  0  0
  -27.6396  -13.2219   19.8570 C   0  0  2  0  0  0
  -28.6812  -13.0853   20.9892 C   0  0  0  0  0  0
  -25.2508  -13.8209   20.5732 C   0  0  0  0  0  0
  -24.1761  -13.0482   20.9224 C   0  0  0  0  0  0
  -24.6312  -11.6950   20.8718 C   0  0  0  0  0  0
  -23.8958  -10.4343   21.0352 C   0  0  0  0  0  0
  -24.3522   -9.4278   21.9149 C   0  0  0  0  0  0
  -23.6252   -8.2285   22.0722 C   0  0  0  0  0  0
  -22.4247   -8.0276   21.3512 C   0  0  0  0  0  0
  -21.9839   -9.0224   20.4617 C   0  0  0  0  0  0
  -22.7111  -10.2147   20.3019 C   0  0  0  0  0  0
  -21.6868   -6.0711   22.5263 C   0  0  0  0  0  0
  -21.4037   -6.5615   23.8196 C   0  0  0  0  0  0
  -21.3653   -5.6770   24.9163 C   0  0  0  0  0  0
  -21.6031   -4.3031   24.7221 C   0  0  0  0  0  0
  -21.8823   -3.8118   23.4351 C   0  0  0  0  0  0
  -21.9215   -4.6936   22.3405 C   0  0  0  0  0  0
  -22.7795  -13.5263   21.1914 C   0  0  0  0  0  0
  -22.1678   -4.2106   21.0990 F   0  0  0  0  0  0
  -21.5614   -3.4527   25.7745 F   0  0  0  0  0  0
  -29.9968  -13.3876   20.4088 N   0  0  0  0  0  0
  -26.2888  -12.9382   20.3290 N   0  0  0  0  0  0
  -25.9224  -11.6538   20.5717 N   0  0  0  0  0  0
  -22.0404  -12.8240   22.0458 N   0  0  0  0  0  0
  -25.4369  -15.1939   20.4185 N   0  0  0  0  0  0
  -31.8282  -14.7080   20.1828 O   0  0  0  0  0  0
  -21.6653   -6.8848   21.4219 O   0  0  0  0  0  0
  -22.3483  -14.5561   20.6763 O   0  0  0  0  0  0
  -24.6218  -31.8622   23.2074 C   0  0  0  0  0  0
  -25.9078  -32.4783   23.8393 C   0  0  1  0  0  0
  -27.2231  -27.3700   20.0747 C   0  0  0  0  0  0
  -25.5928  -33.8594   24.2349 N   0  0  0  0  0  0
  -23.4137  -30.4908   21.5464 C   0  0  2  0  0  0
  -24.8574  -28.9507   20.1071 C   0  0  0  0  0  0
  -22.7434  -29.4729   22.4949 C   0  0  0  0  0  0
  -18.0373  -28.1447   22.8462 C   0  0  0  0  0  0
  -24.1478  -36.7292   23.2647 C   0  0  0  0  0  0
  -25.9504  -30.8073   21.3695 C   0  0  0  0  0  0
  -26.0225  -29.4343   20.7140 C   0  0  0  0  0  0
  -27.2034  -28.6443   20.7078 C   0  0  0  0  0  0
  -26.0363  -26.9272   19.4530 C   0  0  0  0  0  0
  -24.8617  -27.6952   19.4802 C   0  0  0  0  0  0
  -23.6193  -29.8191   20.1617 C   0  0  0  0  0  0
  -25.4097  -36.3095   24.0363 C   0  0  1  0  0  0
  -20.5938  -28.3820   23.1359 C   0  0  2  0  0  0
  -20.6833  -26.9503   22.5621 C   0  0  0  0  0  0
  -19.5951  -26.6552   21.5236 C   0  0  0  0  0  0
  -18.2115  -26.7975   22.1649 C   0  0  0  0  0  0
  -19.1596  -28.8960   23.2870 C   0  0  0  0  0  0
  -18.9509  -30.1572   23.8840 C   0  0  0  0  0  0
  -17.6491  -30.6699   24.0473 C   0  0  0  0  0  0
  -25.9027  -34.9454   23.5145 C   0  0  0  0  0  0
  -16.5394  -29.9147   23.6290 C   0  0  0  0  0  0
  -16.7347  -28.6556   23.0332 C   0  0  0  0  0  0
  -26.4504  -31.6580   25.0751 C   0  0  0  0  0  0
  -25.3759  -31.3702   26.1489 C   0  0  0  0  0  0
  -27.0344  -30.3028   24.6128 C   0  0  0  0  0  0
  -27.6087  -32.4297   25.7522 C   0  0  0  0  0  0
  -27.5559  -37.1797   24.8474 C   0  0  0  0  0  0
  -21.4175  -29.3110   22.3623 N   0  0  0  0  0  0
  -26.4272  -37.3786   23.9416 N   0  0  0  0  0  0
  -24.6812  -31.0669   22.1005 N   0  0  0  0  0  0
  -23.4133  -28.8303   23.3096 O   0  0  0  0  0  0
  -28.3634  -26.5730   20.1055 O   0  0  0  0  0  0
  -26.5576  -34.8904   22.4696 O   0  0  0  0  0  0
  -23.5414  -32.1478   23.7400 O   0  0  0  0  0  0
  -27.8020  -18.5540   21.1806 C   0  0  0  0  0  0
  -30.1085  -19.1273   20.9382 C   0  0  0  0  0  0
  -29.1397  -18.1105   21.1181 C   0  0  0  0  0  0
  -27.5004  -19.9442   21.1609 C   0  0  0  0  0  0
  -28.5537  -20.8944   21.0667 C   0  0  0  0  0  0
  -28.3625  -22.3120   21.5256 C   0  0  0  0  0  0
  -28.2507  -23.5391   20.9294 C   0  0  0  0  0  0
  -26.0498  -20.3587   21.3647 C   0  0  0  0  0  0
  -29.5196  -16.6323   21.4645 C   0  0  0  0  0  0
  -28.5551  -25.5076   19.1285 C   0  0  0  0  0  0
  -28.2849  -23.9673   19.4536 C   0  0  2  0  0  0
  -29.8297  -20.4594   20.9272 N   0  0  0  0  0  0
  -29.8405  -15.6862   20.3688 N   0  0  0  0  0  0
  -27.0666  -23.4740   18.7755 N   0  3  0  0  0  0
  -31.4587  -12.4819   19.1306 H   0  0  0  0  0  0
  -30.3435  -11.3674   19.8778 H   0  0  0  0  0  0
  -29.7407  -11.7373   17.4647 H   0  0  0  0  0  0
  -29.6438  -13.4589   17.7311 H   0  0  0  0  0  0
  -27.8405  -11.2955   18.8544 H   0  0  0  0  0  0
  -27.3596  -12.5851   17.7856 H   0  0  0  0  0  0
  -27.6531  -14.2577   19.5120 H   0  0  0  0  0  0
  -28.6659  -12.0780   21.4066 H   0  0  0  0  0  0
  -28.4438  -13.7670   21.8124 H   0  0  0  0  0  0
  -25.2649   -9.5823   22.4720 H   0  0  0  0  0  0
  -23.9971   -7.4697   22.7433 H   0  0  0  0  0  0
  -21.0774   -8.8684   19.8934 H   0  0  0  0  0  0
  -22.3478  -10.9648   19.6133 H   0  0  0  0  0  0
  -21.2039   -7.6123   23.9679 H   0  0  0  0  0  0
  -21.1457   -6.0514   25.9059 H   0  0  0  0  0  0
  -22.0616   -2.7576   23.2866 H   0  0  0  0  0  0
  -22.3971  -11.9894   22.4837 H   0  0  0  0  0  0
  -21.1009  -13.1257   22.2625 H   0  0  0  0  0  0
  -24.6878  -15.8694   20.5209 H   0  0  0  0  0  0
  -26.3077  -15.6049   20.1059 H   0  0  0  0  0  0
  -26.7170  -32.5508   23.1164 H   0  0  0  0  0  0
  -25.0101  -33.9767   25.0505 H   0  0  0  0  0  0
  -22.7128  -31.3170   21.4010 H   0  0  0  0  0  0
  -23.3730  -35.9622   23.3314 H   0  0  0  0  0  0
  -24.3560  -36.8898   22.2056 H   0  0  0  0  0  0
  -23.7230  -37.6509   23.6641 H   0  0  0  0  0  0
  -26.0563  -31.5656   20.5922 H   0  0  0  0  0  0
  -26.8400  -30.8690   21.9844 H   0  0  0  0  0  0
  -28.0985  -29.0093   21.1946 H   0  0  0  0  0  0
  -25.9870  -25.9746   18.9562 H   0  0  0  0  0  0
  -23.9667  -27.3134   19.0064 H   0  0  0  0  0  0
  -23.7166  -30.5897   19.3989 H   0  0  0  0  0  0
  -22.7475  -29.2266   19.8757 H   0  0  0  0  0  0
  -25.1251  -36.1968   25.0861 H   0  0  0  0  0  0
  -20.9985  -28.3566   24.1497 H   0  0  0  0  0  0
  -20.5444  -26.2522   23.3913 H   0  0  0  0  0  0
  -21.6813  -26.7425   22.1714 H   0  0  0  0  0  0
  -19.6908  -27.3491   20.6852 H   0  0  0  0  0  0
  -19.7254  -25.6524   21.1141 H   0  0  0  0  0  0
  -17.4371  -26.6537   21.4113 H   0  0  0  0  0  0
  -18.0786  -26.0188   22.9185 H   0  0  0  0  0  0
  -19.8008  -30.7391   24.2142 H   0  0  0  0  0  0
  -17.5081  -31.6453   24.4962 H   0  0  0  0  0  0
  -15.5380  -30.3085   23.7559 H   0  0  0  0  0  0
  -15.8752  -28.0853   22.7095 H   0  0  0  0  0  0
  -24.5947  -30.7036   25.7828 H   0  0  0  0  0  0
  -24.8953  -32.2874   26.4899 H   0  0  0  0  0  0
  -25.8120  -30.8916   27.0260 H   0  0  0  0  0  0
  -26.2937  -29.6795   24.1140 H   0  0  0  0  0  0
  -27.4088  -29.7242   25.4574 H   0  0  0  0  0  0
  -27.8750  -30.4345   23.9321 H   0  0  0  0  0  0
  -27.2712  -33.3588   26.2087 H   0  0  0  0  0  0
  -28.3893  -32.6846   25.0359 H   0  0  0  0  0  0
  -28.0721  -31.8421   26.5441 H   0  0  0  0  0  0
  -28.2588  -38.0085   24.7480 H   0  0  0  0  0  0
  -28.1044  -36.2609   24.6330 H   0  0  0  0  0  0
  -27.2265  -37.1478   25.8879 H   0  0  0  0  0  0
  -20.9361  -29.8665   21.6709 H   0  0  0  0  0  0
  -26.0159  -38.2858   24.1429 H   0  0  0  0  0  0
  -27.0090  -17.8395   21.3498 H   0  0  0  0  0  0
  -31.1544  -18.8649   20.8983 H   0  0  0  0  0  0
  -28.3006  -22.3625   22.6039 H   0  0  0  0  0  0
  -28.1082  -24.3719   21.6057 H   0  0  0  0  0  0
  -25.8785  -21.4225   21.1994 H   0  0  0  0  0  0
  -25.7360  -20.1243   22.3832 H   0  0  0  0  0  0
  -25.4010  -19.8066   20.6842 H   0  0  0  0  0  0
  -28.6905  -16.2025   22.0298 H   0  0  0  0  0  0
  -30.3567  -16.6546   22.1633 H   0  0  0  0  0  0
  -28.0694  -25.7751   18.1877 H   0  0  0  0  0  0
  -29.6080  -25.5889   18.8664 H   0  0  0  0  0  0
  -29.1019  -23.4102   18.9875 H   0  0  0  0  0  0
  -30.1040  -16.2004   19.5412 H   0  0  0  0  0  0
  -26.2297  -23.8517   19.1862 H   0  0  0  0  0  0
  -27.0213  -22.4719   18.8414 H   0  0  0  0  0  0
  -27.0774  -23.7036   17.7947 H   0  0  0  0  0  0
  1 25  1  0  0  0
  1 30  2  0  0  0
  1 83  1  0  0  0
  2  3  1  0  0  0
  2 25  1  0  0  0
  2 85  1  0  0  0
  2 86  1  0  0  0
  3  4  1  0  0  0
  3 87  1  0  0  0
  3 88  1  0  0  0
  4  5  1  0  0  0
  4 89  1  0  0  0
  4 90  1  0  0  0
  5  6  1  0  0  0
  5 26  1  0  0  0
  5 91  1  0  0  0
  6 25  1  0  0  0
  6 92  1  0  0  0
  6 93  1  0  0  0
  7  8  2  0  0  0
  7 26  1  0  0  0
  7 29  1  0  0  0
  8  9  1  0  0  0
  8 22  1  0  0  0
  9 10  1  0  0  0
  9 27  2  0  0  0
 10 11  2  0  0  0
 10 15  1  0  0  0
 11 12  1  0  0  0
 11 94  1  0  0  0
 12 13  2  0  0  0
 12 95  1  0  0  0
 13 14  1  0  0  0
 13 31  1  0  0  0
 14 15  2  0  0  0
 14 96  1  0  0  0
 15 97  1  0  0  0
 16 17  2  0  0  0
 16 21  1  0  0  0
 16 31  1  0  0  0
 17 18  1  0  0  0
 17 98  1  0  0  0
 18 19  2  0  0  0
 18 99  1  0  0  0
 19 20  1  0  0  0
 19 24  1  0  0  0
 20 21  2  0  0  0
 20100  1  0  0  0
 21 23  1  0  0  0
 22 28  1  0  0  0
 22 32  2  0  0  0
 26 27  1  0  0  0
 28101  1  0  0  0
 28102  1  0  0  0
 29103  1  0  0  0
 29104  1  0  0  0
 33 34  1  0  0  0
 33 66  1  0  0  0
 33 70  2  0  0  0
 34 36  1  0  0  0
 34 59  1  0  0  0
 34105  1  0  0  0
 35 44  2  0  0  0
 35 45  1  0  0  0
 35 68  1  0  0  0
 36 56  1  0  0  0
 36106  1  0  0  0
 37 39  1  0  0  0
 37 47  1  0  0  0
 37 66  1  0  0  0
 37107  1  0  0  0
 38 43  2  0  0  0
 38 46  1  0  0  0
 38 47  1  0  0  0
 39 64  1  0  0  0
 39 67  2  0  0  0
 40 52  1  0  0  0
 40 53  2  0  0  0
 40 58  1  0  0  0
 41108  1  0  0  0
 41109  1  0  0  0
 41110  1  0  0  0
 41 48  1  0  0  0
 42 43  1  0  0  0
 42 66  1  0  0  0
 42111  1  0  0  0
 42112  1  0  0  0
 43 44  1  0  0  0
 44113  1  0  0  0
 45 46  2  0  0  0
 45114  1  0  0  0
 46115  1  0  0  0
 47116  1  0  0  0
 47117  1  0  0  0
 48 56  1  0  0  0
 48 65  1  0  0  0
 48118  1  0  0  0
 49 50  1  0  0  0
 49 53  1  0  0  0
 49 64  1  0  0  0
 49119  1  0  0  0
 50 51  1  0  0  0
 50120  1  0  0  0
 50121  1  0  0  0
 51 52  1  0  0  0
 51122  1  0  0  0
 51123  1  0  0  0
 52124  1  0  0  0
 52125  1  0  0  0
 53 54  1  0  0  0
 54 55  2  0  0  0
 54126  1  0  0  0
 55 57  1  0  0  0
 55127  1  0  0  0
 56 69  2  0  0  0
 57 58  2  0  0  0
 57128  1  0  0  0
 58129  1  0  0  0
 59 60  1  0  0  0
 59 61  1  0  0  0
 59 62  1  0  0  0
 60130  1  0  0  0
 60131  1  0  0  0
 60132  1  0  0  0
 61133  1  0  0  0
 61134  1  0  0  0
 61135  1  0  0  0
 62136  1  0  0  0
 62137  1  0  0  0
 62138  1  0  0  0
 63 65  1  0  0  0
 63139  1  0  0  0
 63140  1  0  0  0
 63141  1  0  0  0
 64142  1  0  0  0
 65143  1  0  0  0
 68 80  1  0  0  0
 71 73  2  0  0  0
 71 74  1  0  0  0
 71144  1  0  0  0
 72 73  1  0  0  0
 72 82  2  0  0  0
 72145  1  0  0  0
 73 79  1  0  0  0
 74 75  2  0  0  0
 74 78  1  0  0  0
 75 76  1  0  0  0
 75 82  1  0  0  0
 76 77  2  0  0  0
 76146  1  0  0  0
 77 81  1  0  0  0
 77147  1  0  0  0
 78148  1  0  0  0
 78149  1  0  0  0
 78150  1  0  0  0
 79 83  1  0  0  0
 79151  1  0  0  0
 79152  1  0  0  0
 80 81  1  0  0  0
 80153  1  0  0  0
 80154  1  0  0  0
 81 84  1  0  0  0
 81155  1  0  0  0
 83156  1  0  0  0
 84157  1  0  0  0
 84158  1  0  0  0
 84159  1  0  0  0
M  CHG  1  84   1
M  ISO  4   1 100  68 101  80 101  83 100
M  END
> <chiral flag>
0

> <version>
0

> <s_m_source_file>
/data/baiqing/PycharmProjects/Reinvent-master-3.2/result/LINK_invent/BTK/process_docking_weight1_custom_sum_contain_oxygen_bond_distance_aromatic_linkinvent_7_9_3/rearranged_h_0119.sdf

> <i_m_source_file_index>
36

> <r_mmod_Potential_Energy-OPLS-2005>
-183.076461791992

> <r_mmod_Stretch_Energy-OPLS-2005>
57.6712188720703

> <r_mmod_Bend_Energy-OPLS-2005>
158.536239624023

> <r_mmod_Torsional_Energy-OPLS-2005>
331.177856445312

> <r_mmod_Improper_Torsional_Energy-OPLS-2005>
25.0424308776855

> <r_mmod_Van_der_Waal_Energy-OPLS-2005>
137.02375793457

> <r_mmod_Electrostatic_Energy-OPLS-2005>
-444.527862548828

> <r_mmod_Solvation_Energy-OPLS-2005>
-484.284240722656

> <b_mmod_Minimization_Converged-OPLS-2005>
0

> <r_mmod_RMS_Derivative-OPLS-2005>
5.96859312057495

$$$$
36
                    3D
 Structure written by MMmdl.
177185  0  0  1  0            999 V2000
  -30.7634  -14.4193   20.6891 C   0  0  0  0  0  0
  -30.4214  -12.3268   19.4099 C   0  0  0  0  0  0
  -29.4858  -12.5287   18.1964 C   0  0  0  0  0  0
  -28.0061  -12.3820   18.6028 C   0  0  0  0  0  0
  -27.6651  -13.1880   19.8842 C   0  0  2  0  0  0
  -28.7021  -12.8570   20.9781 C   0  0  0  0  0  0
  -25.2622  -13.8140   20.5639 C   0  0  0  0  0  0
  -24.1848  -13.0435   20.9159 C   0  0  0  0  0  0
  -24.6381  -11.6897   20.8728 C   0  0  0  0  0  0
  -23.9037  -10.4292   21.0408 C   0  0  0  0  0  0
  -24.3607   -9.4218   21.9179 C   0  0  0  0  0  0
  -23.6292   -8.2253   22.0747 C   0  0  0  0  0  0
  -22.4272   -8.0295   21.3543 C   0  0  0  0  0  0
  -21.9901   -9.0258   20.4636 C   0  0  0  0  0  0
  -22.7219  -10.2140   20.3051 C   0  0  0  0  0  0
  -21.6859   -6.0746   22.5289 C   0  0  0  0  0  0
  -21.4021   -6.5645   23.8226 C   0  0  0  0  0  0
  -21.3653   -5.6791   24.9183 C   0  0  0  0  0  0
  -21.6048   -4.3053   24.7220 C   0  0  0  0  0  0
  -21.8822   -3.8154   23.4337 C   0  0  0  0  0  0
  -21.9200   -4.6977   22.3403 C   0  0  0  0  0  0
  -22.7888  -13.5255   21.1835 C   0  0  0  0  0  0
  -22.1661   -4.2174   21.0971 F   0  0  0  0  0  0
  -21.5625   -3.4526   25.7714 F   0  0  0  0  0  0
  -30.0269  -13.2757   20.4793 N   0  0  0  0  0  0
  -26.3021  -12.9252   20.3361 N   0  0  0  0  0  0
  -25.9287  -11.6436   20.5748 N   0  0  0  0  0  0
  -22.0522  -12.8243   22.0397 N   0  0  0  0  0  0
  -25.4447  -15.1839   20.4019 N   0  0  0  0  0  0
  -31.8513  -14.5273   20.1234 O   0  0  0  0  0  0
  -21.6647   -6.8888   21.4249 O   0  0  0  0  0  0
  -22.3574  -14.5567   20.6704 O   0  0  0  0  0  0
  -24.6123  -31.8664   23.2118 C   0  0  0  0  0  0
  -25.9019  -32.4818   23.8392 C   0  0  1  0  0  0
  -27.2498  -27.4781   20.0625 C   0  0  0  0  0  0
  -25.5885  -33.8616   24.2309 N   0  0  0  0  0  0
  -23.3975  -30.4926   21.5486 C   0  0  2  0  0  0
  -24.8446  -28.9573   20.1164 C   0  0  0  0  0  0
  -22.7374  -29.4674   22.4984 C   0  0  0  0  0  0
  -18.0253  -28.1374   22.8489 C   0  0  0  0  0  0
  -24.1487  -36.7335   23.2640 C   0  0  0  0  0  0
  -25.9228  -30.8409   21.3605 C   0  0  0  0  0  0
  -25.9993  -29.4744   20.7171 C   0  0  0  0  0  0
  -27.1981  -28.7326   20.7057 C   0  0  0  0  0  0
  -26.0760  -26.9649   19.4634 C   0  0  0  0  0  0
  -24.8754  -27.6962   19.4965 C   0  0  0  0  0  0
  -23.6041  -29.8190   20.1647 C   0  0  0  0  0  0
  -25.4102  -36.3102   24.0328 C   0  0  1  0  0  0
  -20.5851  -28.3656   23.1321 C   0  0  2  0  0  0
  -20.6751  -26.9399   22.5402 C   0  0  0  0  0  0
  -19.5735  -26.6387   21.5197 C   0  0  0  0  0  0
  -18.1917  -26.7923   22.1619 C   0  0  0  0  0  0
  -19.1507  -28.8832   23.2908 C   0  0  0  0  0  0
  -18.9444  -30.1446   23.8906 C   0  0  0  0  0  0
  -17.6449  -30.6584   24.0587 C   0  0  0  0  0  0
  -25.9015  -34.9472   23.5108 C   0  0  0  0  0  0
  -16.5341  -29.9096   23.6337 C   0  0  0  0  0  0
  -16.7248  -28.6518   23.0337 C   0  0  0  0  0  0
  -26.4455  -31.6593   25.0712 C   0  0  0  0  0  0
  -25.3755  -31.3705   26.1487 C   0  0  0  0  0  0
  -27.0262  -30.3035   24.6075 C   0  0  0  0  0  0
  -27.6019  -32.4311   25.7492 C   0  0  0  0  0  0
  -27.5573  -37.1813   24.8465 C   0  0  0  0  0  0
  -21.4113  -29.3031   22.3727 N   0  0  0  0  0  0
  -26.4284  -37.3786   23.9417 N   0  0  0  0  0  0
  -24.6621  -31.0823   22.0982 N   0  0  0  0  0  0
  -23.4165  -28.8189   23.2998 O   0  0  0  0  0  0
  -28.4497  -26.8064   20.0469 O   0  0  0  0  0  0
  -26.5570  -34.8928   22.4669 O   0  0  0  0  0  0
  -23.5322  -32.1373   23.7549 O   0  0  0  0  0  0
  -32.8766  -17.7459   22.9075 C   0  0  0  0  0  0
  -33.8016  -16.9730   21.9716 C   0  0  0  0  0  0
  -31.4624  -17.1546   22.8566 C   0  0  0  0  0  0
  -33.3652  -17.0933   20.5028 C   0  0  0  0  0  0
  -30.8788  -16.8693   21.4323 C   0  0  1  0  0  0
  -31.8387  -17.3158   20.2620 C   0  0  1  0  0  0
  -28.7955  -24.0229   16.5265 C   0  0  0  0  0  0
  -29.1112  -15.4744   22.3079 C   0  0  0  0  0  0
  -29.9495  -19.9793   18.4909 C   0  0  0  0  0  0
  -28.5610  -24.5930   19.0323 C   0  0  0  0  0  0
  -31.1965  -19.0744   18.5709 C   0  0  0  0  0  0
  -30.2626  -21.4808   18.3867 C   0  0  0  0  0  0
  -28.8090  -26.1006   18.8617 C   0  0  0  0  0  0
  -29.2539  -23.7169   17.9665 C   0  0  1  0  0  0
  -30.2682  -15.4954   21.3925 N   0  0  0  0  0  0
  -31.6067  -18.7563   19.9677 N   0  3  0  0  0  0
  -29.0284  -22.2875   18.2767 N   0  3  0  0  0  0
  -31.4593  -12.4324   19.0894 H   0  0  0  0  0  0
  -30.3524  -11.2983   19.7644 H   0  0  0  0  0  0
  -29.7270  -11.8085   17.4147 H   0  0  0  0  0  0
  -29.6509  -13.5168   17.7634 H   0  0  0  0  0  0
  -27.8186  -11.3208   18.7758 H   0  0  0  0  0  0
  -27.3498  -12.6735   17.7810 H   0  0  0  0  0  0
  -27.7412  -14.2483   19.6452 H   0  0  0  0  0  0
  -28.7061  -11.7774   21.1342 H   0  0  0  0  0  0
  -28.4099  -13.1971   21.9624 H   0  0  0  0  0  0
  -25.2753   -9.5694   22.4754 H   0  0  0  0  0  0
  -24.0023   -7.4640   22.7448 H   0  0  0  0  0  0
  -21.0849   -8.8749   19.8925 H   0  0  0  0  0  0
  -22.3673  -10.9678   19.6164 H   0  0  0  0  0  0
  -21.2018   -7.6154   23.9733 H   0  0  0  0  0  0
  -21.1473   -6.0515   25.9086 H   0  0  0  0  0  0
  -22.0613   -2.7621   23.2821 H   0  0  0  0  0  0
  -22.4114  -11.9871   22.4741 H   0  0  0  0  0  0
  -21.1170  -13.1305   22.2665 H   0  0  0  0  0  0
  -24.6951  -15.8550   20.5272 H   0  0  0  0  0  0
  -26.3048  -15.6051   20.0732 H   0  0  0  0  0  0
  -26.7109  -32.5532   23.1167 H   0  0  0  0  0  0
  -25.0077  -33.9795   25.0489 H   0  0  0  0  0  0
  -22.6865  -31.3099   21.4063 H   0  0  0  0  0  0
  -23.3718  -35.9701   23.3306 H   0  0  0  0  0  0
  -24.3592  -36.8942   22.2055 H   0  0  0  0  0  0
  -23.7262  -37.6558   23.6639 H   0  0  0  0  0  0
  -26.0274  -31.5988   20.5832 H   0  0  0  0  0  0
  -26.8153  -30.8985   21.9722 H   0  0  0  0  0  0
  -28.0927  -29.1329   21.1630 H   0  0  0  0  0  0
  -26.0726  -26.0089   18.9638 H   0  0  0  0  0  0
  -23.9892  -27.2889   19.0293 H   0  0  0  0  0  0
  -23.7108  -30.5877   19.4001 H   0  0  0  0  0  0
  -22.7302  -29.2321   19.8738 H   0  0  0  0  0  0
  -25.1275  -36.1963   25.0813 H   0  0  0  0  0  0
  -20.9951  -28.3211   24.1442 H   0  0  0  0  0  0
  -20.5648  -26.2266   23.3572 H   0  0  0  0  0  0
  -21.6627  -26.7441   22.1202 H   0  0  0  0  0  0
  -19.6919  -25.6299   21.1222 H   0  0  0  0  0  0
  -19.6701  -27.3213   20.6739 H   0  0  0  0  0  0
  -17.4182  -26.6662   21.4030 H   0  0  0  0  0  0
  -18.0343  -26.0055   22.9010 H   0  0  0  0  0  0
  -19.7927  -30.7260   24.2281 H   0  0  0  0  0  0
  -17.5014  -31.6271   24.5176 H   0  0  0  0  0  0
  -15.5353  -30.3016   23.7655 H   0  0  0  0  0  0
  -15.8639  -28.0869   22.7027 H   0  0  0  0  0  0
  -24.5918  -30.7046   25.7862 H   0  0  0  0  0  0
  -24.8976  -32.2869   26.4955 H   0  0  0  0  0  0
  -25.8140  -30.8878   27.0232 H   0  0  0  0  0  0
  -26.2782  -29.6830   24.1125 H   0  0  0  0  0  0
  -27.4023  -29.7236   25.4514 H   0  0  0  0  0  0
  -27.8626  -30.4342   23.9204 H   0  0  0  0  0  0
  -27.2592  -33.3583   26.2105 H   0  0  0  0  0  0
  -28.3805  -32.6923   25.0311 H   0  0  0  0  0  0
  -28.0700  -31.8418   26.5388 H   0  0  0  0  0  0
  -28.2576  -38.0119   24.7470 H   0  0  0  0  0  0
  -28.1053  -36.2634   24.6293 H   0  0  0  0  0  0
  -27.2288  -37.1464   25.8868 H   0  0  0  0  0  0
  -20.9246  -29.8787   21.6998 H   0  0  0  0  0  0
  -26.0167  -38.2870   24.1404 H   0  0  0  0  0  0
  -32.8682  -18.8068   22.6536 H   0  0  0  0  0  0
  -33.2528  -17.6854   23.9311 H   0  0  0  0  0  0
  -33.8098  -15.9218   22.2641 H   0  0  0  0  0  0
  -34.8300  -17.3197   22.0843 H   0  0  0  0  0  0
  -30.7901  -17.8058   23.4177 H   0  0  0  0  0  0
  -31.4913  -16.2266   23.4306 H   0  0  0  0  0  0
  -33.6960  -16.1948   19.9817 H   0  0  0  0  0  0
  -33.9411  -17.8892   20.0277 H   0  0  0  0  0  0
  -30.0076  -17.5157   21.3027 H   0  0  0  0  0  0
  -31.5704  -16.7660   19.3631 H   0  0  0  0  0  0
  -27.7211  -23.8769   16.4062 H   0  0  0  0  0  0
  -29.3046  -23.3840   15.8033 H   0  0  0  0  0  0
  -29.0231  -25.0509   16.2409 H   0  0  0  0  0  0
  -28.9336  -16.4117   22.8371 H   0  0  0  0  0  0
  -29.2594  -14.7410   23.1009 H   0  0  0  0  0  0
  -28.1814  -15.2969   21.7721 H   0  0  0  0  0  0
  -29.2666  -19.7733   19.3164 H   0  0  0  0  0  0
  -29.4023  -19.7038   17.5881 H   0  0  0  0  0  0
  -27.4925  -24.3854   19.0567 H   0  0  0  0  0  0
  -28.9463  -24.3077   20.0124 H   0  0  0  0  0  0
  -32.0375  -19.5184   18.0402 H   0  0  0  0  0  0
  -30.9556  -18.1711   18.0093 H   0  0  0  0  0  0
  -30.8839  -21.6567   17.5062 H   0  0  0  0  0  0
  -30.8331  -21.8181   19.2543 H   0  0  0  0  0  0
  -28.3097  -26.5010   17.9772 H   0  0  0  0  0  0
  -29.8749  -26.2736   18.7062 H   0  0  0  0  0  0
  -30.3250  -23.9265   18.0250 H   0  0  0  0  0  0
  -32.4472  -19.2663   20.1853 H   0  0  0  0  0  0
  -30.8918  -19.0794   20.5983 H   0  0  0  0  0  0
  -28.5242  -22.2235   19.1480 H   0  0  0  0  0  0
  -28.4361  -21.8968   17.5617 H   0  0  0  0  0  0
  1 25  1  0  0  0
  1 30  2  0  0  0
  1 85  1  0  0  0
  2  3  1  0  0  0
  2 25  1  0  0  0
  2 88  1  0  0  0
  2 89  1  0  0  0
  3  4  1  0  0  0
  3 90  1  0  0  0
  3 91  1  0  0  0
  4  5  1  0  0  0
  4 92  1  0  0  0
  4 93  1  0  0  0
  5  6  1  0  0  0
  5 26  1  0  0  0
  5 94  1  0  0  0
  6 25  1  0  0  0
  6 95  1  0  0  0
  6 96  1  0  0  0
  7  8  2  0  0  0
  7 26  1  0  0  0
  7 29  1  0  0  0
  8  9  1  0  0  0
  8 22  1  0  0  0
  9 10  1  0  0  0
  9 27  2  0  0  0
 10 11  2  0  0  0
 10 15  1  0  0  0
 11 12  1  0  0  0
 11 97  1  0  0  0
 12 13  2  0  0  0
 12 98  1  0  0  0
 13 14  1  0  0  0
 13 31  1  0  0  0
 14 15  2  0  0  0
 14 99  1  0  0  0
 15100  1  0  0  0
 16 17  2  0  0  0
 16 21  1  0  0  0
 16 31  1  0  0  0
 17 18  1  0  0  0
 17101  1  0  0  0
 18 19  2  0  0  0
 18102  1  0  0  0
 19 20  1  0  0  0
 19 24  1  0  0  0
 20 21  2  0  0  0
 20103  1  0  0  0
 21 23  1  0  0  0
 22 28  1  0  0  0
 22 32  2  0  0  0
 26 27  1  0  0  0
 28104  1  0  0  0
 28105  1  0  0  0
 29106  1  0  0  0
 29107  1  0  0  0
 33 34  1  0  0  0
 33 66  1  0  0  0
 33 70  2  0  0  0
 34 36  1  0  0  0
 34 59  1  0  0  0
 34108  1  0  0  0
 35 44  2  0  0  0
 35 45  1  0  0  0
 35 68  1  0  0  0
 36 56  1  0  0  0
 36109  1  0  0  0
 37 39  1  0  0  0
 37 47  1  0  0  0
 37 66  1  0  0  0
 37110  1  0  0  0
 38 43  2  0  0  0
 38 46  1  0  0  0
 38 47  1  0  0  0
 39 64  1  0  0  0
 39 67  2  0  0  0
 40 52  1  0  0  0
 40 53  2  0  0  0
 40 58  1  0  0  0
 41111  1  0  0  0
 41112  1  0  0  0
 41113  1  0  0  0
 41 48  1  0  0  0
 42 43  1  0  0  0
 42 66  1  0  0  0
 42114  1  0  0  0
 42115  1  0  0  0
 43 44  1  0  0  0
 44116  1  0  0  0
 45 46  2  0  0  0
 45117  1  0  0  0
 46118  1  0  0  0
 47119  1  0  0  0
 47120  1  0  0  0
 48 56  1  0  0  0
 48 65  1  0  0  0
 48121  1  0  0  0
 49 50  1  0  0  0
 49 53  1  0  0  0
 49 64  1  0  0  0
 49122  1  0  0  0
 50 51  1  0  0  0
 50123  1  0  0  0
 50124  1  0  0  0
 51 52  1  0  0  0
 51125  1  0  0  0
 51126  1  0  0  0
 52127  1  0  0  0
 52128  1  0  0  0
 53 54  1  0  0  0
 54 55  2  0  0  0
 54129  1  0  0  0
 55 57  1  0  0  0
 55130  1  0  0  0
 56 69  2  0  0  0
 57 58  2  0  0  0
 57131  1  0  0  0
 58132  1  0  0  0
 59 60  1  0  0  0
 59 61  1  0  0  0
 59 62  1  0  0  0
 60133  1  0  0  0
 60134  1  0  0  0
 60135  1  0  0  0
 61136  1  0  0  0
 61137  1  0  0  0
 61138  1  0  0  0
 62139  1  0  0  0
 62140  1  0  0  0
 62141  1  0  0  0
 63 65  1  0  0  0
 63142  1  0  0  0
 63143  1  0  0  0
 63144  1  0  0  0
 64145  1  0  0  0
 65146  1  0  0  0
 68 83  1  0  0  0
 71 72  1  0  0  0
 71 73  1  0  0  0
 71147  1  0  0  0
 71148  1  0  0  0
 72 74  1  0  0  0
 72149  1  0  0  0
 72150  1  0  0  0
 73 75  1  0  0  0
 73151  1  0  0  0
 73152  1  0  0  0
 74 76  1  0  0  0
 74153  1  0  0  0
 74154  1  0  0  0
 75 76  1  0  0  0
 75 85  1  0  0  0
 75155  1  0  0  0
 76 86  1  0  0  0
 76156  1  0  0  0
 77157  1  0  0  0
 77158  1  0  0  0
 77159  1  0  0  0
 77 84  1  0  0  0
 78 85  1  0  0  0
 78160  1  0  0  0
 78161  1  0  0  0
 78162  1  0  0  0
 79 81  1  0  0  0
 79 82  1  0  0  0
 79163  1  0  0  0
 79164  1  0  0  0
 80 83  1  0  0  0
 80 84  1  0  0  0
 80165  1  0  0  0
 80166  1  0  0  0
 81 86  1  0  0  0
 81167  1  0  0  0
 81168  1  0  0  0
 82 87  1  0  0  0
 82169  1  0  0  0
 82170  1  0  0  0
 83171  1  0  0  0
 83172  1  0  0  0
 84 87  1  0  0  0
 84173  1  0  0  0
 86174  1  0  0  0
 86175  1  0  0  0
 87176  1  0  0  0
 87177  1  0  0  0
M  CHG  2  86   1  87   1
M  ISO  4   1 100  68 101  83 101  85 100
M  END
> <chiral flag>
0

> <version>
0

> <s_m_source_file>
/data/baiqing/PycharmProjects/Reinvent-master-3.2/result/LINK_invent/BTK/process_docking_weight1_custom_sum_contain_oxygen_bond_distance_aromatic_linkinvent_7_9_3/rearranged_h_0119.sdf

> <i_m_source_file_index>
37

> <r_mmod_Potential_Energy-OPLS-2005>
-49.1128158569336

> <r_mmod_Stretch_Energy-OPLS-2005>
48.7873573303223

> <r_mmod_Bend_Energy-OPLS-2005>
153.004425048828

> <r_mmod_Torsional_Energy-OPLS-2005>
361.409484863281

> <r_mmod_Improper_Torsional_Energy-OPLS-2005>
2.87141728401184

> <r_mmod_Van_der_Waal_Energy-OPLS-2005>
178.358016967773

> <r_mmod_Electrostatic_Energy-OPLS-2005>
150.705657958984

> <r_mmod_Solvation_Energy-OPLS-2005>
-957.217407226562

> <b_mmod_Minimization_Converged-OPLS-2005>
0

> <r_mmod_RMS_Derivative-OPLS-2005>
3.11308693885803

$$$$
37
                    3D
 Structure written by MMmdl.
171180  0  0  1  0            999 V2000
  -30.6934  -14.5425   20.5760 C   0  0  0  0  0  0
  -30.4174  -12.3565   19.4439 C   0  0  0  0  0  0
  -29.4929  -12.5087   18.2172 C   0  0  0  0  0  0
  -28.0173  -12.3587   18.6285 C   0  0  0  0  0  0
  -27.6504  -13.2162   19.8686 C   0  0  2  0  0  0
  -28.6928  -13.0537   20.9986 C   0  0  0  0  0  0
  -25.2528  -13.8126   20.5665 C   0  0  0  0  0  0
  -24.1817  -13.0411   20.9244 C   0  0  0  0  0  0
  -24.6363  -11.6879   20.8733 C   0  0  0  0  0  0
  -23.9010  -10.4275   21.0366 C   0  0  0  0  0  0
  -24.3574   -9.4212   21.9159 C   0  0  0  0  0  0
  -23.6287   -8.2227   22.0727 C   0  0  0  0  0  0
  -22.4273   -8.0227   21.3513 C   0  0  0  0  0  0
  -21.9877   -9.0193   20.4615 C   0  0  0  0  0  0
  -22.7173  -10.2095   20.3032 C   0  0  0  0  0  0
  -21.6846   -6.0695   22.5266 C   0  0  0  0  0  0
  -21.4004   -6.5624   23.8187 C   0  0  0  0  0  0
  -21.3666   -5.6788   24.9169 C   0  0  0  0  0  0
  -21.6061   -4.3051   24.7214 C   0  0  0  0  0  0
  -21.8836   -3.8119   23.4349 C   0  0  0  0  0  0
  -21.9195   -4.6929   22.3394 C   0  0  0  0  0  0
  -22.7848  -13.5215   21.1886 C   0  0  0  0  0  0
  -22.1660   -4.2100   21.0971 F   0  0  0  0  0  0
  -21.5641   -3.4553   25.7742 F   0  0  0  0  0  0
  -30.0115  -13.3678   20.4387 N   0  0  0  0  0  0
  -26.2948  -12.9323   20.3329 N   0  0  0  0  0  0
  -25.9292  -11.6473   20.5759 N   0  0  0  0  0  0
  -22.0451  -12.8195   22.0413 N   0  0  0  0  0  0
  -25.4239  -15.1820   20.3943 N   0  0  0  0  0  0
  -31.8210  -14.6762   20.0978 O   0  0  0  0  0  0
  -21.6635   -6.8826   21.4223 O   0  0  0  0  0  0
  -22.3569  -14.5514   20.6709 O   0  0  0  0  0  0
  -24.6217  -31.8624   23.1976 C   0  0  0  0  0  0
  -25.9097  -32.4790   23.8317 C   0  0  1  0  0  0
  -27.2261  -27.3731   20.0983 C   0  0  0  0  0  0
  -25.5924  -33.8593   24.2282 N   0  0  0  0  0  0
  -23.4092  -30.4884   21.5342 C   0  0  2  0  0  0
  -24.8521  -28.9411   20.1056 C   0  0  0  0  0  0
  -22.7417  -29.4683   22.4861 C   0  0  0  0  0  0
  -18.0290  -28.1363   22.8488 C   0  0  0  0  0  0
  -24.1455  -36.7331   23.2632 C   0  0  0  0  0  0
  -25.9402  -30.8192   21.3435 C   0  0  0  0  0  0
  -26.0137  -29.4426   20.7006 C   0  0  0  0  0  0
  -27.2002  -28.6648   20.6939 C   0  0  0  0  0  0
  -26.0363  -26.8966   19.5035 C   0  0  0  0  0  0
  -24.8611  -27.6732   19.4967 C   0  0  0  0  0  0
  -23.6176  -29.8144   20.1504 C   0  0  0  0  0  0
  -25.4067  -36.3110   24.0352 C   0  0  1  0  0  0
  -20.5881  -28.3691   23.1270 C   0  0  2  0  0  0
  -20.6756  -26.9419   22.5384 C   0  0  0  0  0  0
  -19.5737  -26.6375   21.5182 C   0  0  0  0  0  0
  -18.1926  -26.7915   22.1611 C   0  0  0  0  0  0
  -19.1535  -28.8835   23.2893 C   0  0  0  0  0  0
  -18.9469  -30.1439   23.8914 C   0  0  0  0  0  0
  -17.6474  -30.6563   24.0567 C   0  0  0  0  0  0
  -25.9032  -34.9478   23.5118 C   0  0  0  0  0  0
  -16.5353  -29.9086   23.6303 C   0  0  0  0  0  0
  -16.7286  -28.6497   23.0359 C   0  0  0  0  0  0
  -26.4497  -31.6563   25.0659 C   0  0  0  0  0  0
  -25.3786  -31.3690   26.1424 C   0  0  0  0  0  0
  -27.0313  -30.3003   24.6036 C   0  0  0  0  0  0
  -27.6042  -32.4265   25.7473 C   0  0  0  0  0  0
  -27.5551  -37.1806   24.8466 C   0  0  0  0  0  0
  -21.4135  -29.3082   22.3663 N   0  0  0  0  0  0
  -26.4248  -37.3805   23.9437 N   0  0  0  0  0  0
  -24.6771  -31.0747   22.0834 N   0  0  0  0  0  0
  -23.4183  -28.8235   23.2919 O   0  0  0  0  0  0
  -28.4003  -26.6260   20.1353 O   0  0  0  0  0  0
  -26.5597  -34.8967   22.4674 O   0  0  0  0  0  0
  -23.5416  -32.1347   23.7386 O   0  0  0  0  0  0
  -28.6156  -21.3473   20.5255 C   0  0  0  0  0  0
  -27.0008  -18.3405   18.9604 C   0  0  0  0  0  0
  -27.2823  -19.8391   18.9662 C   0  0  0  0  0  0
  -31.0560  -18.0181   19.3511 C   0  0  0  0  0  0
  -27.8406  -17.7559   20.0990 C   0  0  0  0  0  0
  -32.5687  -17.9604   19.6793 C   0  0  0  0  0  0
  -32.0404  -17.0076   21.9392 C   0  0  0  0  0  0
  -28.6337  -20.0195   19.6844 C   0  0  2  0  0  0
  -30.5215  -16.9693   21.5893 C   0  0  1  0  0  0
  -30.2542  -18.2335   20.6551 C   0  0  2  0  0  0
  -28.6779  -22.6908   19.7326 C   0  0  0  0  0  0
  -28.3242  -24.0487   20.4485 C   0  0  0  0  0  0
  -28.5087  -25.3067   19.5260 C   0  0  0  0  0  0
  -30.0471  -15.5927   21.1605 N   0  0  0  0  0  0
  -32.8877  -16.9588   20.7235 N   0  3  0  0  0  0
  -28.8413  -18.7685   20.5153 N   0  3  2  0  0  0
  -28.5326  -21.3495   21.7573 O   0  0  0  0  0  0
  -31.4632  -12.4523   19.1444 H   0  0  0  0  0  0
  -30.3202  -11.3565   19.8693 H   0  0  0  0  0  0
  -29.7409  -11.7695   17.4561 H   0  0  0  0  0  0
  -29.6473  -13.4829   17.7525 H   0  0  0  0  0  0
  -27.8431  -11.3043   18.8494 H   0  0  0  0  0  0
  -27.3607  -12.6072   17.7917 H   0  0  0  0  0  0
  -27.6784  -14.2575   19.5460 H   0  0  0  0  0  0
  -28.6926  -12.0299   21.3759 H   0  0  0  0  0  0
  -28.4468  -13.6854   21.8536 H   0  0  0  0  0  0
  -25.2694   -9.5745   22.4759 H   0  0  0  0  0  0
  -23.9992   -7.4641   22.7479 H   0  0  0  0  0  0
  -21.0784   -8.8713   19.8944 H   0  0  0  0  0  0
  -22.3583  -10.9637   19.6167 H   0  0  0  0  0  0
  -21.1988   -7.6131   23.9682 H   0  0  0  0  0  0
  -21.1476   -6.0510   25.9071 H   0  0  0  0  0  0
  -22.0604   -2.7569   23.2849 H   0  0  0  0  0  0
  -22.4033  -11.9840   22.4789 H   0  0  0  0  0  0
  -21.1058  -13.1215   22.2581 H   0  0  0  0  0  0
  -24.6192  -15.7968   20.4182 H   0  0  0  0  0  0
  -26.1925  -15.5509   19.8537 H   0  0  0  0  0  0
  -26.7181  -32.5481   23.1089 H   0  0  0  0  0  0
  -25.0121  -33.9732   25.0463 H   0  0  0  0  0  0
  -22.7036  -31.3099   21.3898 H   0  0  0  0  0  0
  -23.3706  -35.9673   23.3262 H   0  0  0  0  0  0
  -24.3555  -36.8971   22.2053 H   0  0  0  0  0  0
  -23.7234  -37.6540   23.6656 H   0  0  0  0  0  0
  -26.0406  -31.5716   20.5578 H   0  0  0  0  0  0
  -26.8352  -30.8893   21.9517 H   0  0  0  0  0  0
  -28.0937  -29.0501   21.1656 H   0  0  0  0  0  0
  -25.9748  -25.9184   19.0496 H   0  0  0  0  0  0
  -23.9711  -27.2841   19.0230 H   0  0  0  0  0  0
  -23.7235  -30.5812   19.3812 H   0  0  0  0  0  0
  -22.7414  -29.2320   19.8601 H   0  0  0  0  0  0
  -25.1244  -36.1922   25.0853 H   0  0  0  0  0  0
  -21.0020  -28.3237   24.1367 H   0  0  0  0  0  0
  -20.5566  -26.2335   23.3589 H   0  0  0  0  0  0
  -21.6653  -26.7374   22.1257 H   0  0  0  0  0  0
  -19.6898  -25.6278   21.1238 H   0  0  0  0  0  0
  -19.6677  -27.3145   20.6685 H   0  0  0  0  0  0
  -17.4200  -26.6670   21.4007 H   0  0  0  0  0  0
  -18.0343  -26.0047   22.9005 H   0  0  0  0  0  0
  -19.7968  -30.7239   24.2264 H   0  0  0  0  0  0
  -17.5058  -31.6237   24.5179 H   0  0  0  0  0  0
  -15.5364  -30.3021   23.7590 H   0  0  0  0  0  0
  -15.8703  -28.0814   22.7062 H   0  0  0  0  0  0
  -24.5982  -30.6984   25.7801 H   0  0  0  0  0  0
  -24.8960  -32.2860   26.4812 H   0  0  0  0  0  0
  -25.8183  -30.8934   27.0204 H   0  0  0  0  0  0
  -26.2842  -29.6785   24.1083 H   0  0  0  0  0  0
  -27.4070  -29.7234   25.4492 H   0  0  0  0  0  0
  -27.8696  -30.4306   23.9194 H   0  0  0  0  0  0
  -27.2623  -33.3573   26.2012 H   0  0  0  0  0  0
  -28.3913  -32.6760   25.0349 H   0  0  0  0  0  0
  -28.0632  -31.8399   26.5444 H   0  0  0  0  0  0
  -28.2555  -38.0114   24.7519 H   0  0  0  0  0  0
  -28.1064  -36.2641   24.6240 H   0  0  0  0  0  0
  -27.2331  -37.1432   25.8896 H   0  0  0  0  0  0
  -20.9232  -29.8896   21.6996 H   0  0  0  0  0  0
  -26.0120  -38.2894   24.1382 H   0  0  0  0  0  0
  -27.3149  -17.8990   18.0125 H   0  0  0  0  0  0
  -25.9374  -18.1170   19.0867 H   0  0  0  0  0  0
  -26.4736  -20.3591   19.4869 H   0  0  0  0  0  0
  -27.3173  -20.2402   17.9519 H   0  0  0  0  0  0
  -30.7366  -17.1015   18.8567 H   0  0  0  0  0  0
  -30.9123  -18.8068   18.6180 H   0  0  0  0  0  0
  -28.3021  -16.8354   19.7496 H   0  0  0  0  0  0
  -27.2181  -17.5020   20.9584 H   0  0  0  0  0  0
  -32.9195  -18.9393   20.0105 H   0  0  0  0  0  0
  -33.1370  -17.7197   18.7803 H   0  0  0  0  0  0
  -32.3084  -16.1802   22.5975 H   0  0  0  0  0  0
  -32.2776  -17.9146   22.4951 H   0  0  0  0  0  0
  -29.4038  -20.1067   18.9243 H   0  0  0  0  0  0
  -29.9970  -17.1569   22.5281 H   0  0  0  0  0  0
  -30.7290  -19.0811   21.1545 H   0  0  0  0  0  0
  -28.0323  -22.5770   18.8631 H   0  0  0  0  0  0
  -29.6924  -22.7561   19.3385 H   0  0  0  0  0  0
  -28.9515  -24.1679   21.3321 H   0  0  0  0  0  0
  -27.2957  -24.0168   20.8091 H   0  0  0  0  0  0
  -27.9043  -25.2116   18.6252 H   0  0  0  0  0  0
  -29.5316  -25.2650   19.1528 H   0  0  0  0  0  0
  -29.1215  -15.3488   21.4829 H   0  0  0  0  0  0
  -33.8637  -17.0186   20.9709 H   0  0  0  0  0  0
  -32.7218  -16.0287   20.3316 H   0  0  0  0  0  0
  -28.5572  -19.0684   21.4410 H   0  0  0  0  0  0
  1 25  1  0  0  0
  1 30  2  0  0  0
  1 84  1  0  0  0
  2  3  1  0  0  0
  2 25  1  0  0  0
  2 88  1  0  0  0
  2 89  1  0  0  0
  3  4  1  0  0  0
  3 90  1  0  0  0
  3 91  1  0  0  0
  4  5  1  0  0  0
  4 92  1  0  0  0
  4 93  1  0  0  0
  5  6  1  0  0  0
  5 26  1  0  0  0
  5 94  1  0  0  0
  6 25  1  0  0  0
  6 95  1  0  0  0
  6 96  1  0  0  0
  7  8  2  0  0  0
  7 26  1  0  0  0
  7 29  1  0  0  0
  8  9  1  0  0  0
  8 22  1  0  0  0
  9 10  1  0  0  0
  9 27  2  0  0  0
 10 11  2  0  0  0
 10 15  1  0  0  0
 11 12  1  0  0  0
 11 97  1  0  0  0
 12 13  2  0  0  0
 12 98  1  0  0  0
 13 14  1  0  0  0
 13 31  1  0  0  0
 14 15  2  0  0  0
 14 99  1  0  0  0
 15100  1  0  0  0
 16 17  2  0  0  0
 16 21  1  0  0  0
 16 31  1  0  0  0
 17 18  1  0  0  0
 17101  1  0  0  0
 18 19  2  0  0  0
 18102  1  0  0  0
 19 20  1  0  0  0
 19 24  1  0  0  0
 20 21  2  0  0  0
 20103  1  0  0  0
 21 23  1  0  0  0
 22 28  1  0  0  0
 22 32  2  0  0  0
 26 27  1  0  0  0
 28104  1  0  0  0
 28105  1  0  0  0
 29106  1  0  0  0
 29107  1  0  0  0
 33 34  1  0  0  0
 33 66  1  0  0  0
 33 70  2  0  0  0
 34 36  1  0  0  0
 34 59  1  0  0  0
 34108  1  0  0  0
 35 44  2  0  0  0
 35 45  1  0  0  0
 35 68  1  0  0  0
 36 56  1  0  0  0
 36109  1  0  0  0
 37 39  1  0  0  0
 37 47  1  0  0  0
 37 66  1  0  0  0
 37110  1  0  0  0
 38 43  2  0  0  0
 38 46  1  0  0  0
 38 47  1  0  0  0
 39 64  1  0  0  0
 39 67  2  0  0  0
 40 52  1  0  0  0
 40 53  2  0  0  0
 40 58  1  0  0  0
 41111  1  0  0  0
 41112  1  0  0  0
 41113  1  0  0  0
 41 48  1  0  0  0
 42 43  1  0  0  0
 42 66  1  0  0  0
 42114  1  0  0  0
 42115  1  0  0  0
 43 44  1  0  0  0
 44116  1  0  0  0
 45 46  2  0  0  0
 45117  1  0  0  0
 46118  1  0  0  0
 47119  1  0  0  0
 47120  1  0  0  0
 48 56  1  0  0  0
 48 65  1  0  0  0
 48121  1  0  0  0
 49 50  1  0  0  0
 49 53  1  0  0  0
 49 64  1  0  0  0
 49122  1  0  0  0
 50 51  1  0  0  0
 50123  1  0  0  0
 50124  1  0  0  0
 51 52  1  0  0  0
 51125  1  0  0  0
 51126  1  0  0  0
 52127  1  0  0  0
 52128  1  0  0  0
 53 54  1  0  0  0
 54 55  2  0  0  0
 54129  1  0  0  0
 55 57  1  0  0  0
 55130  1  0  0  0
 56 69  2  0  0  0
 57 58  2  0  0  0
 57131  1  0  0  0
 58132  1  0  0  0
 59 60  1  0  0  0
 59 61  1  0  0  0
 59 62  1  0  0  0
 60133  1  0  0  0
 60134  1  0  0  0
 60135  1  0  0  0
 61136  1  0  0  0
 61137  1  0  0  0
 61138  1  0  0  0
 62139  1  0  0  0
 62140  1  0  0  0
 62141  1  0  0  0
 63 65  1  0  0  0
 63142  1  0  0  0
 63143  1  0  0  0
 63144  1  0  0  0
 64145  1  0  0  0
 65146  1  0  0  0
 68 83  1  0  0  0
 71 81  1  0  0  0
 71 87  2  0  0  0
 71 78  1  0  0  0
 72 73  1  0  0  0
 72 75  1  0  0  0
 72147  1  0  0  0
 72148  1  0  0  0
 73 78  1  0  0  0
 73149  1  0  0  0
 73150  1  0  0  0
 74 76  1  0  0  0
 74151  1  0  0  0
 74152  1  0  0  0
 74 80  1  0  0  0
 75153  1  0  0  0
 75154  1  0  0  0
 75 86  1  0  0  0
 76 85  1  0  0  0
 76155  1  0  0  0
 76156  1  0  0  0
 77 79  1  0  0  0
 77 85  1  0  0  0
 77157  1  0  0  0
 77158  1  0  0  0
 78 86  1  0  0  0
 78159  1  0  0  0
 79 80  1  0  0  0
 79 84  1  0  0  0
 79160  1  0  0  0
 80 86  1  0  0  0
 80161  1  0  0  0
 81 82  1  0  0  0
 81162  1  0  0  0
 81163  1  0  0  0
 82 83  1  0  0  0
 82164  1  0  0  0
 82165  1  0  0  0
 83166  1  0  0  0
 83167  1  0  0  0
 84168  1  0  0  0
 85169  1  0  0  0
 85170  1  0  0  0
 86171  1  0  0  0
M  CHG  2  85   1  86   1
M  ISO  4   1 100  68 101  83 101  84 100
M  END
> <chiral flag>
0

> <version>
0

> <s_m_source_file>
/data/baiqing/PycharmProjects/Reinvent-master-3.2/result/LINK_invent/BTK/process_docking_weight1_custom_sum_contain_oxygen_bond_distance_aromatic_linkinvent_7_9_3/rearranged_h_0119.sdf

> <i_m_source_file_index>
38

> <r_mmod_Potential_Energy-OPLS-2005>
-303.222839355469

> <r_mmod_Stretch_Energy-OPLS-2005>
68.2696685791016

> <r_mmod_Bend_Energy-OPLS-2005>
181.054870605469

> <r_mmod_Torsional_Energy-OPLS-2005>
366.437072753906

> <r_mmod_Improper_Torsional_Energy-OPLS-2005>
4.4833607673645

> <r_mmod_Van_der_Waal_Energy-OPLS-2005>
140.569931030273

> <r_mmod_Electrostatic_Energy-OPLS-2005>
-130.146469116211

> <r_mmod_Solvation_Energy-OPLS-2005>
-957.914306640625

> <b_mmod_Minimization_Converged-OPLS-2005>
0

> <r_mmod_RMS_Derivative-OPLS-2005>
4.48560285568237

$$$$
38
                    3D
 Structure written by MMmdl.
164172  0  0  1  0            999 V2000
  -30.7051  -14.4470   20.5816 C   0  0  0  0  0  0
  -30.4349  -12.2904   19.4186 C   0  0  0  0  0  0
  -29.5014  -12.4955   18.2063 C   0  0  0  0  0  0
  -28.0225  -12.3556   18.6224 C   0  0  0  0  0  0
  -27.6703  -13.1928   19.8819 C   0  0  2  0  0  0
  -28.7119  -12.9538   21.0004 C   0  0  0  0  0  0
  -25.2625  -13.8123   20.5621 C   0  0  0  0  0  0
  -24.1877  -13.0432   20.9265 C   0  0  0  0  0  0
  -24.6396  -11.6902   20.8793 C   0  0  0  0  0  0
  -23.9037  -10.4287   21.0444 C   0  0  0  0  0  0
  -24.3588   -9.4194   21.9206 C   0  0  0  0  0  0
  -23.6273   -8.2220   22.0741 C   0  0  0  0  0  0
  -22.4252   -8.0264   21.3534 C   0  0  0  0  0  0
  -21.9903   -9.0254   20.4641 C   0  0  0  0  0  0
  -22.7221  -10.2143   20.3083 C   0  0  0  0  0  0
  -21.6840   -6.0727   22.5281 C   0  0  0  0  0  0
  -21.4009   -6.5638   23.8216 C   0  0  0  0  0  0
  -21.3662   -5.6783   24.9185 C   0  0  0  0  0  0
  -21.6046   -4.3047   24.7230 C   0  0  0  0  0  0
  -21.8817   -3.8143   23.4352 C   0  0  0  0  0  0
  -21.9188   -4.6959   22.3410 C   0  0  0  0  0  0
  -22.7907  -13.5253   21.1902 C   0  0  0  0  0  0
  -22.1653   -4.2138   21.0990 F   0  0  0  0  0  0
  -21.5649   -3.4538   25.7755 F   0  0  0  0  0  0
  -30.0476  -13.2630   20.4527 N   0  0  0  0  0  0
  -26.3055  -12.9264   20.3387 N   0  0  0  0  0  0
  -25.9315  -11.6452   20.5816 N   0  0  0  0  0  0
  -22.0491  -12.8265   22.0443 N   0  0  0  0  0  0
  -25.4353  -15.1813   20.3686 N   0  0  0  0  0  0
  -31.8108  -14.6529   20.0787 O   0  0  0  0  0  0
  -21.6612   -6.8866   21.4234 O   0  0  0  0  0  0
  -22.3675  -14.5569   20.6719 O   0  0  0  0  0  0
  -24.6193  -31.8673   23.2061 C   0  0  0  0  0  0
  -25.9086  -32.4809   23.8365 C   0  0  1  0  0  0
  -27.2261  -27.4151   20.0794 C   0  0  0  0  0  0
  -25.5948  -33.8602   24.2315 N   0  0  0  0  0  0
  -23.4053  -30.4940   21.5481 C   0  0  2  0  0  0
  -24.8434  -28.9566   20.1126 C   0  0  0  0  0  0
  -22.7446  -29.4678   22.4967 C   0  0  0  0  0  0
  -18.0298  -28.1386   22.8507 C   0  0  0  0  0  0
  -24.1490  -36.7313   23.2634 C   0  0  0  0  0  0
  -25.9351  -30.8267   21.3570 C   0  0  0  0  0  0
  -26.0072  -29.4569   20.7089 C   0  0  0  0  0  0
  -27.1985  -28.6920   20.6931 C   0  0  0  0  0  0
  -26.0312  -26.9249   19.5008 C   0  0  0  0  0  0
  -24.8502  -27.6886   19.5100 C   0  0  0  0  0  0
  -23.6109  -29.8301   20.1614 C   0  0  0  0  0  0
  -25.4107  -36.3104   24.0337 C   0  0  1  0  0  0
  -20.5896  -28.3686   23.1296 C   0  0  2  0  0  0
  -20.6789  -26.9418   22.5409 C   0  0  0  0  0  0
  -19.5753  -26.6400   21.5220 C   0  0  0  0  0  0
  -18.1935  -26.7937   22.1639 C   0  0  0  0  0  0
  -19.1550  -28.8850   23.2898 C   0  0  0  0  0  0
  -18.9481  -30.1456   23.8907 C   0  0  0  0  0  0
  -17.6481  -30.6591   24.0576 C   0  0  0  0  0  0
  -25.9045  -34.9473   23.5121 C   0  0  0  0  0  0
  -16.5371  -29.9101   23.6324 C   0  0  0  0  0  0
  -16.7286  -28.6518   23.0345 C   0  0  0  0  0  0
  -26.4506  -31.6589   25.0702 C   0  0  0  0  0  0
  -25.3774  -31.3711   26.1461 C   0  0  0  0  0  0
  -27.0328  -30.3031   24.6050 C   0  0  0  0  0  0
  -27.6079  -32.4299   25.7479 C   0  0  0  0  0  0
  -27.5586  -37.1791   24.8463 C   0  0  0  0  0  0
  -21.4173  -29.3055   22.3708 N   0  0  0  0  0  0
  -26.4282  -37.3806   23.9432 N   0  0  0  0  0  0
  -24.6724  -31.0769   22.0962 N   0  0  0  0  0  0
  -23.4216  -28.8202   23.2996 O   0  0  0  0  0  0
  -28.4058  -26.6882   20.0705 O   0  0  0  0  0  0
  -26.5604  -34.8953   22.4682 O   0  0  0  0  0  0
  -23.5379  -32.1424   23.7459 O   0  0  0  0  0  0
  -31.2029  -17.5089   20.5768 C   0  0  0  0  0  0
  -31.2093  -18.9138   20.5277 C   0  0  0  0  0  0
  -30.0808  -16.8355   21.1170 C   0  0  0  0  0  0
  -30.1031  -19.6357   21.0113 C   0  0  0  0  0  0
  -29.0054  -17.6481   21.5770 C   0  0  0  0  0  0
  -27.9153  -17.1476   23.7928 C   0  0  0  0  0  0
  -30.1623  -21.1654   21.1028 C   0  0  0  0  0  0
  -28.1307  -24.1820   19.7056 C   0  0  0  0  0  0
  -29.2944  -23.3594   20.3297 C   0  0  0  0  0  0
  -28.5487  -25.5811   19.1582 C   0  0  0  0  0  0
  -27.7730  -17.0556   22.2637 C   0  0  1  0  0  0
  -29.0063  -19.0093   21.4980 N   0  0  0  0  0  0
  -30.0101  -15.4007   21.2321 N   0  0  0  0  0  0
  -26.5616  -17.7394   21.7991 N   0  3  0  0  0  0
  -29.0600  -21.8855   20.4218 N   0  3  0  0  0  0
  -31.4783  -12.3908   19.1135 H   0  0  0  0  0  0
  -30.3411  -11.2744   19.8053 H   0  0  0  0  0  0
  -29.7372  -11.7736   17.4226 H   0  0  0  0  0  0
  -29.6707  -13.4815   17.7726 H   0  0  0  0  0  0
  -27.8316  -11.2981   18.8171 H   0  0  0  0  0  0
  -27.3713  -12.6313   17.7928 H   0  0  0  0  0  0
  -27.7245  -14.2426   19.5949 H   0  0  0  0  0  0
  -28.6889  -11.9112   21.3227 H   0  0  0  0  0  0
  -28.4709  -13.5293   21.8959 H   0  0  0  0  0  0
  -25.2738   -9.5673   22.4775 H   0  0  0  0  0  0
  -23.9990   -7.4606   22.7451 H   0  0  0  0  0  0
  -21.0838   -8.8784   19.8938 H   0  0  0  0  0  0
  -22.3687  -10.9690   19.6196 H   0  0  0  0  0  0
  -21.1979   -7.6138   23.9731 H   0  0  0  0  0  0
  -21.1495   -6.0505   25.9087 H   0  0  0  0  0  0
  -22.0586   -2.7596   23.2863 H   0  0  0  0  0  0
  -22.4035  -11.9891   22.4824 H   0  0  0  0  0  0
  -21.1116  -13.1340   22.2611 H   0  0  0  0  0  0
  -24.5394  -15.6396   20.2315 H   0  0  0  0  0  0
  -26.0393  -15.3567   19.5735 H   0  0  0  0  0  0
  -26.7161  -32.5500   23.1127 H   0  0  0  0  0  0
  -25.0147  -33.9752   25.0497 H   0  0  0  0  0  0
  -22.6961  -31.3134   21.4130 H   0  0  0  0  0  0
  -23.3763  -35.9635   23.3280 H   0  0  0  0  0  0
  -24.3588  -36.8934   22.2046 H   0  0  0  0  0  0
  -23.7230  -37.6512   23.6652 H   0  0  0  0  0  0
  -26.0479  -31.5871   20.5836 H   0  0  0  0  0  0
  -26.8241  -30.8803   21.9735 H   0  0  0  0  0  0
  -28.1016  -29.0834   21.1415 H   0  0  0  0  0  0
  -25.9881  -25.9489   19.0401 H   0  0  0  0  0  0
  -23.9523  -27.2918   19.0557 H   0  0  0  0  0  0
  -23.7246  -30.6073   19.4045 H   0  0  0  0  0  0
  -22.7319  -29.2573   19.8617 H   0  0  0  0  0  0
  -25.1267  -36.1950   25.0824 H   0  0  0  0  0  0
  -21.0000  -28.3256   24.1405 H   0  0  0  0  0  0
  -20.5687  -26.2307   23.3609 H   0  0  0  0  0  0
  -21.6652  -26.7440   22.1191 H   0  0  0  0  0  0
  -19.6900  -25.6318   21.1222 H   0  0  0  0  0  0
  -19.6670  -27.3238   20.6768 H   0  0  0  0  0  0
  -17.4205  -26.6720   21.4030 H   0  0  0  0  0  0
  -18.0307  -26.0057   22.9005 H   0  0  0  0  0  0
  -19.7955  -30.7274   24.2266 H   0  0  0  0  0  0
  -17.5039  -31.6256   24.5206 H   0  0  0  0  0  0
  -15.5371  -30.3005   23.7633 H   0  0  0  0  0  0
  -15.8699  -28.0840   22.7033 H   0  0  0  0  0  0
  -24.5954  -30.7045   25.7821 H   0  0  0  0  0  0
  -24.8979  -32.2881   26.4891 H   0  0  0  0  0  0
  -25.8136  -30.8908   27.0232 H   0  0  0  0  0  0
  -26.2847  -29.6785   24.1156 H   0  0  0  0  0  0
  -27.4193  -29.7263   25.4465 H   0  0  0  0  0  0
  -27.8650  -30.4390   23.9139 H   0  0  0  0  0  0
  -27.2697  -33.3588   26.2100 H   0  0  0  0  0  0
  -28.3886  -32.6871   25.0304 H   0  0  0  0  0  0
  -28.0773  -31.8399   26.5365 H   0  0  0  0  0  0
  -28.2576  -38.0117   24.7552 H   0  0  0  0  0  0
  -28.1104  -36.2646   24.6217 H   0  0  0  0  0  0
  -27.2318  -37.1352   25.8870 H   0  0  0  0  0  0
  -20.9342  -29.8812   21.6961 H   0  0  0  0  0  0
  -26.0164  -38.2877   24.1464 H   0  0  0  0  0  0
  -32.0866  -16.9968   20.2318 H   0  0  0  0  0  0
  -32.0881  -19.4259   20.1607 H   0  0  0  0  0  0
  -28.7993  -16.6092   24.1358 H   0  0  0  0  0  0
  -27.0499  -16.7208   24.2978 H   0  0  0  0  0  0
  -28.0229  -18.1804   24.1249 H   0  0  0  0  0  0
  -31.1095  -21.4989   20.6787 H   0  0  0  0  0  0
  -30.1901  -21.4378   22.1583 H   0  0  0  0  0  0
  -27.3062  -24.2804   20.4133 H   0  0  0  0  0  0
  -27.7275  -23.6216   18.8611 H   0  0  0  0  0  0
  -29.5162  -23.7607   21.3200 H   0  0  0  0  0  0
  -30.1985  -23.5045   19.7371 H   0  0  0  0  0  0
  -29.5942  -25.5473   18.8467 H   0  0  0  0  0  0
  -28.0180  -25.7871   18.2269 H   0  0  0  0  0  0
  -27.6583  -16.0073   21.9866 H   0  0  0  0  0  0
  -29.1852  -15.0230   21.6723 H   0  0  0  0  0  0
  -26.6933  -18.7247   21.9398 H   0  0  0  0  0  0
  -25.7448  -17.4055   22.2779 H   0  0  0  0  0  0
  -26.4490  -17.5693   20.8177 H   0  0  0  0  0  0
  -28.2126  -21.6800   20.9241 H   0  0  0  0  0  0
  -28.9739  -21.4905   19.4995 H   0  0  0  0  0  0
  1 25  1  0  0  0
  1 30  2  0  0  0
  1 83  1  0  0  0
  2  3  1  0  0  0
  2 25  1  0  0  0
  2 86  1  0  0  0
  2 87  1  0  0  0
  3  4  1  0  0  0
  3 88  1  0  0  0
  3 89  1  0  0  0
  4  5  1  0  0  0
  4 90  1  0  0  0
  4 91  1  0  0  0
  5  6  1  0  0  0
  5 26  1  0  0  0
  5 92  1  0  0  0
  6 25  1  0  0  0
  6 93  1  0  0  0
  6 94  1  0  0  0
  7  8  2  0  0  0
  7 26  1  0  0  0
  7 29  1  0  0  0
  8  9  1  0  0  0
  8 22  1  0  0  0
  9 10  1  0  0  0
  9 27  2  0  0  0
 10 11  2  0  0  0
 10 15  1  0  0  0
 11 12  1  0  0  0
 11 95  1  0  0  0
 12 13  2  0  0  0
 12 96  1  0  0  0
 13 14  1  0  0  0
 13 31  1  0  0  0
 14 15  2  0  0  0
 14 97  1  0  0  0
 15 98  1  0  0  0
 16 17  2  0  0  0
 16 21  1  0  0  0
 16 31  1  0  0  0
 17 18  1  0  0  0
 17 99  1  0  0  0
 18 19  2  0  0  0
 18100  1  0  0  0
 19 20  1  0  0  0
 19 24  1  0  0  0
 20 21  2  0  0  0
 20101  1  0  0  0
 21 23  1  0  0  0
 22 28  1  0  0  0
 22 32  2  0  0  0
 26 27  1  0  0  0
 28102  1  0  0  0
 28103  1  0  0  0
 29104  1  0  0  0
 29105  1  0  0  0
 33 34  1  0  0  0
 33 66  1  0  0  0
 33 70  2  0  0  0
 34 36  1  0  0  0
 34 59  1  0  0  0
 34106  1  0  0  0
 35 44  2  0  0  0
 35 45  1  0  0  0
 35 68  1  0  0  0
 36 56  1  0  0  0
 36107  1  0  0  0
 37 39  1  0  0  0
 37 47  1  0  0  0
 37 66  1  0  0  0
 37108  1  0  0  0
 38 43  2  0  0  0
 38 46  1  0  0  0
 38 47  1  0  0  0
 39 64  1  0  0  0
 39 67  2  0  0  0
 40 52  1  0  0  0
 40 53  2  0  0  0
 40 58  1  0  0  0
 41109  1  0  0  0
 41110  1  0  0  0
 41111  1  0  0  0
 41 48  1  0  0  0
 42 43  1  0  0  0
 42 66  1  0  0  0
 42112  1  0  0  0
 42113  1  0  0  0
 43 44  1  0  0  0
 44114  1  0  0  0
 45 46  2  0  0  0
 45115  1  0  0  0
 46116  1  0  0  0
 47117  1  0  0  0
 47118  1  0  0  0
 48 56  1  0  0  0
 48 65  1  0  0  0
 48119  1  0  0  0
 49 50  1  0  0  0
 49 53  1  0  0  0
 49 64  1  0  0  0
 49120  1  0  0  0
 50 51  1  0  0  0
 50121  1  0  0  0
 50122  1  0  0  0
 51 52  1  0  0  0
 51123  1  0  0  0
 51124  1  0  0  0
 52125  1  0  0  0
 52126  1  0  0  0
 53 54  1  0  0  0
 54 55  2  0  0  0
 54127  1  0  0  0
 55 57  1  0  0  0
 55128  1  0  0  0
 56 69  2  0  0  0
 57 58  2  0  0  0
 57129  1  0  0  0
 58130  1  0  0  0
 59 60  1  0  0  0
 59 61  1  0  0  0
 59 62  1  0  0  0
 60131  1  0  0  0
 60132  1  0  0  0
 60133  1  0  0  0
 61134  1  0  0  0
 61135  1  0  0  0
 61136  1  0  0  0
 62137  1  0  0  0
 62138  1  0  0  0
 62139  1  0  0  0
 63 65  1  0  0  0
 63140  1  0  0  0
 63141  1  0  0  0
 63142  1  0  0  0
 64143  1  0  0  0
 65144  1  0  0  0
 68 80  1  0  0  0
 71 72  2  0  0  0
 71 73  1  0  0  0
 71145  1  0  0  0
 72 74  1  0  0  0
 72146  1  0  0  0
 73 75  2  0  0  0
 73 83  1  0  0  0
 74 77  1  0  0  0
 74 82  2  0  0  0
 75 81  1  0  0  0
 75 82  1  0  0  0
 76147  1  0  0  0
 76148  1  0  0  0
 76149  1  0  0  0
 76 81  1  0  0  0
 77 85  1  0  0  0
 77150  1  0  0  0
 77151  1  0  0  0
 78 79  1  0  0  0
 78 80  1  0  0  0
 78152  1  0  0  0
 78153  1  0  0  0
 79 85  1  0  0  0
 79154  1  0  0  0
 79155  1  0  0  0
 80156  1  0  0  0
 80157  1  0  0  0
 81 84  1  0  0  0
 81158  1  0  0  0
 83159  1  0  0  0
 84160  1  0  0  0
 84161  1  0  0  0
 84162  1  0  0  0
 85163  1  0  0  0
 85164  1  0  0  0
M  CHG  2  84   1  85   1
M  ISO  4   1 100  68 101  80 101  83 100
M  END
> <chiral flag>
0

> <version>
0

> <s_m_source_file>
/data/baiqing/PycharmProjects/Reinvent-master-3.2/result/LINK_invent/BTK/process_docking_weight1_custom_sum_contain_oxygen_bond_distance_aromatic_linkinvent_7_9_3/rearranged_h_0119.sdf

> <i_m_source_file_index>
39

> <r_mmod_Potential_Energy-OPLS-2005>
-836.863586425781

> <r_mmod_Stretch_Energy-OPLS-2005>
42.9641075134277

> <r_mmod_Bend_Energy-OPLS-2005>
103.861175537109

> <r_mmod_Torsional_Energy-OPLS-2005>
212.758560180664

> <r_mmod_Improper_Torsional_Energy-OPLS-2005>
9.53351402282715

> <r_mmod_Van_der_Waal_Energy-OPLS-2005>
161.505859375

> <r_mmod_Electrostatic_Energy-OPLS-2005>
-390.114654541016

> <r_mmod_Solvation_Energy-OPLS-2005>
-989.74560546875

> <b_mmod_Minimization_Converged-OPLS-2005>
0

> <r_mmod_RMS_Derivative-OPLS-2005>
3.22252178192139

$$$$
39
                    3D
 Structure written by MMmdl.
174182  0  0  1  0            999 V2000
  -30.7343  -14.4317   20.6375 C   0  0  0  0  0  0
  -30.4186  -12.3122   19.4049 C   0  0  0  0  0  0
  -29.4860  -12.5202   18.1966 C   0  0  0  0  0  0
  -28.0101  -12.3731   18.6138 C   0  0  0  0  0  0
  -27.6611  -13.2067   19.8753 C   0  0  2  0  0  0
  -28.7018  -12.9740   20.9915 C   0  0  0  0  0  0
  -25.2584  -13.8165   20.5681 C   0  0  0  0  0  0
  -24.1836  -13.0442   20.9171 C   0  0  0  0  0  0
  -24.6389  -11.6909   20.8731 C   0  0  0  0  0  0
  -23.9057  -10.4293   21.0406 C   0  0  0  0  0  0
  -24.3612   -9.4210   21.9185 C   0  0  0  0  0  0
  -23.6288   -8.2246   22.0755 C   0  0  0  0  0  0
  -22.4269   -8.0281   21.3544 C   0  0  0  0  0  0
  -21.9906   -9.0255   20.4646 C   0  0  0  0  0  0
  -22.7233  -10.2137   20.3055 C   0  0  0  0  0  0
  -21.6853   -6.0738   22.5281 C   0  0  0  0  0  0
  -21.4012   -6.5643   23.8214 C   0  0  0  0  0  0
  -21.3659   -5.6795   24.9177 C   0  0  0  0  0  0
  -21.6046   -4.3056   24.7227 C   0  0  0  0  0  0
  -21.8818   -3.8147   23.4347 C   0  0  0  0  0  0
  -21.9192   -4.6963   22.3402 C   0  0  0  0  0  0
  -22.7858  -13.5238   21.1836 C   0  0  0  0  0  0
  -22.1661   -4.2149   21.0979 F   0  0  0  0  0  0
  -21.5629   -3.4536   25.7740 F   0  0  0  0  0  0
  -30.0340  -13.2825   20.4418 N   0  0  0  0  0  0
  -26.3019  -12.9335   20.3370 N   0  0  0  0  0  0
  -25.9311  -11.6492   20.5759 N   0  0  0  0  0  0
  -22.0503  -12.8232   22.0398 N   0  0  0  0  0  0
  -25.4328  -15.1882   20.4099 N   0  0  0  0  0  0
  -31.8220  -14.6552   20.0981 O   0  0  0  0  0  0
  -21.6635   -6.8878   21.4240 O   0  0  0  0  0  0
  -22.3543  -14.5547   20.6692 O   0  0  0  0  0  0
  -24.6129  -31.8692   23.2094 C   0  0  0  0  0  0
  -25.9020  -32.4835   23.8403 C   0  0  1  0  0  0
  -27.2361  -27.4425   20.1006 C   0  0  0  0  0  0
  -25.5875  -33.8630   24.2331 N   0  0  0  0  0  0
  -23.4014  -30.4906   21.5504 C   0  0  2  0  0  0
  -24.8488  -28.9531   20.1190 C   0  0  0  0  0  0
  -22.7403  -29.4663   22.5003 C   0  0  0  0  0  0
  -18.0270  -28.1378   22.8508 C   0  0  0  0  0  0
  -24.1484  -36.7325   23.2641 C   0  0  0  0  0  0
  -25.9279  -30.8385   21.3587 C   0  0  0  0  0  0
  -26.0082  -29.4708   20.7106 C   0  0  0  0  0  0
  -27.2079  -28.7239   20.6946 C   0  0  0  0  0  0
  -26.0621  -26.9339   19.5072 C   0  0  0  0  0  0
  -24.8694  -27.6830   19.5155 C   0  0  0  0  0  0
  -23.6095  -29.8184   20.1673 C   0  0  0  0  0  0
  -25.4106  -36.3121   24.0340 C   0  0  1  0  0  0
  -20.5857  -28.3666   23.1331 C   0  0  2  0  0  0
  -20.6762  -26.9403   22.5427 C   0  0  0  0  0  0
  -19.5736  -26.6390   21.5228 C   0  0  0  0  0  0
  -18.1913  -26.7930   22.1636 C   0  0  0  0  0  0
  -19.1517  -28.8837   23.2919 C   0  0  0  0  0  0
  -18.9442  -30.1443   23.8929 C   0  0  0  0  0  0
  -17.6446  -30.6589   24.0572 C   0  0  0  0  0  0
  -25.9030  -34.9484   23.5139 C   0  0  0  0  0  0
  -16.5338  -29.9091   23.6323 C   0  0  0  0  0  0
  -16.7259  -28.6502   23.0356 C   0  0  0  0  0  0
  -26.4455  -31.6606   25.0726 C   0  0  0  0  0  0
  -25.3723  -31.3684   26.1470 C   0  0  0  0  0  0
  -27.0303  -30.3063   24.6083 C   0  0  0  0  0  0
  -27.6034  -32.4328   25.7479 C   0  0  0  0  0  0
  -27.5581  -37.1813   24.8468 C   0  0  0  0  0  0
  -21.4130  -29.3035   22.3741 N   0  0  0  0  0  0
  -26.4294  -37.3800   23.9411 N   0  0  0  0  0  0
  -24.6658  -31.0803   22.0984 N   0  0  0  0  0  0
  -23.4174  -28.8209   23.3049 O   0  0  0  0  0  0
  -28.4034  -26.7160   20.0649 O   0  0  0  0  0  0
  -26.5608  -34.8937   22.4712 O   0  0  0  0  0  0
  -23.5320  -32.1429   23.7493 O   0  0  0  0  0  0
  -29.5382  -18.5454   21.1971 C   0  0  0  0  0  0
  -31.9572  -18.7164   21.8149 C   0  0  0  0  0  0
  -29.6369  -19.9269   20.4937 C   0  0  0  0  0  0
  -32.0561  -20.0559   21.0724 C   0  0  0  0  0  0
  -30.8838  -17.7836   21.2311 C   0  0  1  0  0  0
  -30.7283  -20.8573   21.0960 C   0  0  1  0  0  0
  -32.4458  -24.1492   19.5702 C   0  0  0  0  0  0
  -32.5644  -23.3816   21.9693 C   0  0  0  0  0  0
  -28.3190  -23.8547   18.7867 C   0  0  0  0  0  0
  -30.8505  -16.4755   22.0688 C   0  0  0  0  0  0
  -29.6042  -23.1889   20.8979 C   0  0  0  0  0  0
  -28.3805  -25.4616   20.7618 C   0  0  0  0  0  0
  -30.7839  -22.2799   20.4037 C   0  0  1  0  0  0
  -32.1876  -22.9764   20.5305 C   0  0  0  0  0  0
  -29.1454  -24.3638   19.9796 C   0  0  2  0  0  0
  -30.1648  -15.3331   21.4554 N   0  0  0  0  0  0
  -31.4612  -12.4172   19.0992 H   0  0  0  0  0  0
  -30.3250  -11.2962   19.7919 H   0  0  0  0  0  0
  -29.7242  -11.8067   17.4068 H   0  0  0  0  0  0
  -29.6496  -13.5124   17.7738 H   0  0  0  0  0  0
  -27.8225  -11.3159   18.8054 H   0  0  0  0  0  0
  -27.3555  -12.6519   17.7872 H   0  0  0  0  0  0
  -27.7107  -14.2573   19.5876 H   0  0  0  0  0  0
  -28.6779  -11.9336   21.3189 H   0  0  0  0  0  0
  -28.4526  -13.5581   21.8779 H   0  0  0  0  0  0
  -25.2754   -9.5692   22.4759 H   0  0  0  0  0  0
  -23.9998   -7.4640   22.7474 H   0  0  0  0  0  0
  -21.0835   -8.8772   19.8949 H   0  0  0  0  0  0
  -22.3684  -10.9677   19.6163 H   0  0  0  0  0  0
  -21.2005   -7.6152   23.9720 H   0  0  0  0  0  0
  -21.1483   -6.0523   25.9082 H   0  0  0  0  0  0
  -22.0598   -2.7607   23.2846 H   0  0  0  0  0  0
  -22.4112  -11.9884   22.4777 H   0  0  0  0  0  0
  -21.1122  -13.1262   22.2610 H   0  0  0  0  0  0
  -24.6715  -15.8491   20.5195 H   0  0  0  0  0  0
  -26.2950  -15.6248   20.1086 H   0  0  0  0  0  0
  -26.7095  -32.5567   23.1181 H   0  0  0  0  0  0
  -25.0006  -33.9792   25.0459 H   0  0  0  0  0  0
  -22.6892  -31.3063   21.4097 H   0  0  0  0  0  0
  -23.3751  -35.9654   23.3309 H   0  0  0  0  0  0
  -24.3575  -36.8939   22.2055 H   0  0  0  0  0  0
  -23.7232  -37.6527   23.6660 H   0  0  0  0  0  0
  -26.0338  -31.6016   20.5858 H   0  0  0  0  0  0
  -26.8169  -30.8985   21.9741 H   0  0  0  0  0  0
  -28.1079  -29.1219   21.1424 H   0  0  0  0  0  0
  -26.0726  -25.9628   19.0324 H   0  0  0  0  0  0
  -23.9774  -27.2792   19.0561 H   0  0  0  0  0  0
  -23.7142  -30.5900   19.4040 H   0  0  0  0  0  0
  -22.7346  -29.2345   19.8765 H   0  0  0  0  0  0
  -25.1282  -36.1991   25.0832 H   0  0  0  0  0  0
  -20.9954  -28.3240   24.1448 H   0  0  0  0  0  0
  -20.5682  -26.2269   23.3614 H   0  0  0  0  0  0
  -21.6628  -26.7457   22.1203 H   0  0  0  0  0  0
  -19.6897  -25.6309   21.1234 H   0  0  0  0  0  0
  -19.6673  -27.3217   20.6773 H   0  0  0  0  0  0
  -17.4188  -26.6697   21.4035 H   0  0  0  0  0  0
  -18.0294  -26.0066   22.9020 H   0  0  0  0  0  0
  -19.7915  -30.7252   24.2314 H   0  0  0  0  0  0
  -17.5000  -31.6270   24.5172 H   0  0  0  0  0  0
  -15.5338  -30.3005   23.7622 H   0  0  0  0  0  0
  -15.8658  -28.0826   22.7058 H   0  0  0  0  0  0
  -24.5904  -30.7031   25.7789 H   0  0  0  0  0  0
  -24.8902  -32.2824   26.4947 H   0  0  0  0  0  0
  -25.8071  -30.8829   27.0217 H   0  0  0  0  0  0
  -26.2846  -29.6806   24.1162 H   0  0  0  0  0  0
  -27.4124  -29.7310   25.4528 H   0  0  0  0  0  0
  -27.8651  -30.4416   23.9201 H   0  0  0  0  0  0
  -27.2662  -33.3630   26.2067 H   0  0  0  0  0  0
  -28.3818  -32.6879   25.0275 H   0  0  0  0  0  0
  -28.0733  -31.8454   26.5379 H   0  0  0  0  0  0
  -28.2593  -38.0115   24.7527 H   0  0  0  0  0  0
  -28.1079  -36.2647   24.6280 H   0  0  0  0  0  0
  -27.2306  -37.1442   25.8873 H   0  0  0  0  0  0
  -20.9284  -29.8752   21.6963 H   0  0  0  0  0  0
  -26.0194  -38.2880   24.1421 H   0  0  0  0  0  0
  -28.7842  -17.9342   20.6988 H   0  0  0  0  0  0
  -29.1778  -18.6946   22.2164 H   0  0  0  0  0  0
  -31.7482  -18.9051   22.8694 H   0  0  0  0  0  0
  -32.9299  -18.2234   21.7842 H   0  0  0  0  0  0
  -28.6604  -20.4082   20.5330 H   0  0  0  0  0  0
  -29.8454  -19.7680   19.4351 H   0  0  0  0  0  0
  -32.3736  -19.8857   20.0427 H   0  0  0  0  0  0
  -32.8579  -20.6067   21.5609 H   0  0  0  0  0  0
  -31.1746  -17.5404   20.2076 H   0  0  0  0  0  0
  -30.4844  -21.0229   22.1471 H   0  0  0  0  0  0
  -33.5169  -24.2911   19.4218 H   0  0  0  0  0  0
  -32.0700  -25.0940   19.9614 H   0  0  0  0  0  0
  -32.0062  -23.9740   18.5875 H   0  0  0  0  0  0
  -33.6135  -23.6734   22.0260 H   0  0  0  0  0  0
  -32.4158  -22.5684   22.6788 H   0  0  0  0  0  0
  -31.9776  -24.2313   22.3171 H   0  0  0  0  0  0
  -28.8775  -23.1283   18.1967 H   0  0  0  0  0  0
  -28.0448  -24.6724   18.1191 H   0  0  0  0  0  0
  -27.3967  -23.3762   19.1168 H   0  0  0  0  0  0
  -30.3847  -16.6716   23.0359 H   0  0  0  0  0  0
  -31.8715  -16.1658   22.3017 H   0  0  0  0  0  0
  -29.8611  -23.5766   21.8825 H   0  0  0  0  0  0
  -28.7254  -22.5737   21.0876 H   0  0  0  0  0  0
  -28.8741  -25.6416   21.7177 H   0  0  0  0  0  0
  -27.3730  -25.1197   21.0052 H   0  0  0  0  0  0
  -30.6363  -22.0923   19.3400 H   0  0  0  0  0  0
  -32.9292  -22.2550   20.1927 H   0  0  0  0  0  0
  -30.0130  -24.8620   19.5682 H   0  0  0  0  0  0
  -29.2522  -15.0977   21.8171 H   0  0  0  0  0  0
  1 25  1  0  0  0
  1 30  2  0  0  0
  1 86  1  0  0  0
  2  3  1  0  0  0
  2 25  1  0  0  0
  2 87  1  0  0  0
  2 88  1  0  0  0
  3  4  1  0  0  0
  3 89  1  0  0  0
  3 90  1  0  0  0
  4  5  1  0  0  0
  4 91  1  0  0  0
  4 92  1  0  0  0
  5  6  1  0  0  0
  5 26  1  0  0  0
  5 93  1  0  0  0
  6 25  1  0  0  0
  6 94  1  0  0  0
  6 95  1  0  0  0
  7  8  2  0  0  0
  7 26  1  0  0  0
  7 29  1  0  0  0
  8  9  1  0  0  0
  8 22  1  0  0  0
  9 10  1  0  0  0
  9 27  2  0  0  0
 10 11  2  0  0  0
 10 15  1  0  0  0
 11 12  1  0  0  0
 11 96  1  0  0  0
 12 13  2  0  0  0
 12 97  1  0  0  0
 13 14  1  0  0  0
 13 31  1  0  0  0
 14 15  2  0  0  0
 14 98  1  0  0  0
 15 99  1  0  0  0
 16 17  2  0  0  0
 16 21  1  0  0  0
 16 31  1  0  0  0
 17 18  1  0  0  0
 17100  1  0  0  0
 18 19  2  0  0  0
 18101  1  0  0  0
 19 20  1  0  0  0
 19 24  1  0  0  0
 20 21  2  0  0  0
 20102  1  0  0  0
 21 23  1  0  0  0
 22 28  1  0  0  0
 22 32  2  0  0  0
 26 27  1  0  0  0
 28103  1  0  0  0
 28104  1  0  0  0
 29105  1  0  0  0
 29106  1  0  0  0
 33 34  1  0  0  0
 33 66  1  0  0  0
 33 70  2  0  0  0
 34 36  1  0  0  0
 34 59  1  0  0  0
 34107  1  0  0  0
 35 44  2  0  0  0
 35 45  1  0  0  0
 35 68  1  0  0  0
 36 56  1  0  0  0
 36108  1  0  0  0
 37 39  1  0  0  0
 37 47  1  0  0  0
 37 66  1  0  0  0
 37109  1  0  0  0
 38 43  2  0  0  0
 38 46  1  0  0  0
 38 47  1  0  0  0
 39 64  1  0  0  0
 39 67  2  0  0  0
 40 52  1  0  0  0
 40 53  2  0  0  0
 40 58  1  0  0  0
 41110  1  0  0  0
 41111  1  0  0  0
 41112  1  0  0  0
 41 48  1  0  0  0
 42 43  1  0  0  0
 42 66  1  0  0  0
 42113  1  0  0  0
 42114  1  0  0  0
 43 44  1  0  0  0
 44115  1  0  0  0
 45 46  2  0  0  0
 45116  1  0  0  0
 46117  1  0  0  0
 47118  1  0  0  0
 47119  1  0  0  0
 48 56  1  0  0  0
 48 65  1  0  0  0
 48120  1  0  0  0
 49 50  1  0  0  0
 49 53  1  0  0  0
 49 64  1  0  0  0
 49121  1  0  0  0
 50 51  1  0  0  0
 50122  1  0  0  0
 50123  1  0  0  0
 51 52  1  0  0  0
 51124  1  0  0  0
 51125  1  0  0  0
 52126  1  0  0  0
 52127  1  0  0  0
 53 54  1  0  0  0
 54 55  2  0  0  0
 54128  1  0  0  0
 55 57  1  0  0  0
 55129  1  0  0  0
 56 69  2  0  0  0
 57 58  2  0  0  0
 57130  1  0  0  0
 58131  1  0  0  0
 59 60  1  0  0  0
 59 61  1  0  0  0
 59 62  1  0  0  0
 60132  1  0  0  0
 60133  1  0  0  0
 60134  1  0  0  0
 61135  1  0  0  0
 61136  1  0  0  0
 61137  1  0  0  0
 62138  1  0  0  0
 62139  1  0  0  0
 62140  1  0  0  0
 63 65  1  0  0  0
 63141  1  0  0  0
 63142  1  0  0  0
 63143  1  0  0  0
 64144  1  0  0  0
 65145  1  0  0  0
 68 82  1  0  0  0
 71 73  1  0  0  0
 71 75  1  0  0  0
 71146  1  0  0  0
 71147  1  0  0  0
 72 74  1  0  0  0
 72 75  1  0  0  0
 72148  1  0  0  0
 72149  1  0  0  0
 73150  1  0  0  0
 73151  1  0  0  0
 73 76  1  0  0  0
 74 76  1  0  0  0
 74152  1  0  0  0
 74153  1  0  0  0
 75 80  1  0  0  0
 75154  1  0  0  0
 76 83  1  0  0  0
 76155  1  0  0  0
 77156  1  0  0  0
 77157  1  0  0  0
 77158  1  0  0  0
 77 84  1  0  0  0
 78 84  1  0  0  0
 78159  1  0  0  0
 78160  1  0  0  0
 78161  1  0  0  0
 79162  1  0  0  0
 79163  1  0  0  0
 79164  1  0  0  0
 79 85  1  0  0  0
 80 86  1  0  0  0
 80165  1  0  0  0
 80166  1  0  0  0
 81 85  1  0  0  0
 81167  1  0  0  0
 81168  1  0  0  0
 81 83  1  0  0  0
 82 85  1  0  0  0
 82169  1  0  0  0
 82170  1  0  0  0
 83 84  1  0  0  0
 83171  1  0  0  0
 84172  1  0  0  0
 85173  1  0  0  0
 86174  1  0  0  0
M  ISO  4   1 100  68 101  82 101  86 100
M  END
> <chiral flag>
0

> <version>
0

> <s_m_source_file>
/data/baiqing/PycharmProjects/Reinvent-master-3.2/result/LINK_invent/BTK/process_docking_weight1_custom_sum_contain_oxygen_bond_distance_aromatic_linkinvent_7_9_3/rearranged_h_0119.sdf

> <i_m_source_file_index>
40

> <r_mmod_Potential_Energy-OPLS-2005>
8.75135231018066

> <r_mmod_Stretch_Energy-OPLS-2005>
42.8740348815918

> <r_mmod_Bend_Energy-OPLS-2005>
113.942436218262

> <r_mmod_Torsional_Energy-OPLS-2005>
275.040100097656

> <r_mmod_Improper_Torsional_Energy-OPLS-2005>
2.05872869491577

> <r_mmod_Van_der_Waal_Energy-OPLS-2005>
142.1796875

> <r_mmod_Electrostatic_Energy-OPLS-2005>
-391.127868652344

> <r_mmod_Solvation_Energy-OPLS-2005>
-185.229385375977

> <b_mmod_Minimization_Converged-OPLS-2005>
0

> <r_mmod_RMS_Derivative-OPLS-2005>
1.0389631986618

$$$$
40
                    3D
 Structure written by MMmdl.
163172  0  0  1  0            999 V2000
  -30.7230  -14.5622   20.5087 C   0  0  0  0  0  0
  -30.4158  -12.3635   19.4215 C   0  0  0  0  0  0
  -29.4840  -12.4968   18.2014 C   0  0  0  0  0  0
  -28.0086  -12.3566   18.6260 C   0  0  0  0  0  0
  -27.6513  -13.2192   19.8686 C   0  0  2  0  0  0
  -28.7097  -13.0392   20.9778 C   0  0  0  0  0  0
  -25.2553  -13.8183   20.5724 C   0  0  0  0  0  0
  -24.1817  -13.0439   20.9206 C   0  0  0  0  0  0
  -24.6393  -11.6913   20.8764 C   0  0  0  0  0  0
  -23.9062  -10.4291   21.0414 C   0  0  0  0  0  0
  -24.3616   -9.4203   21.9186 C   0  0  0  0  0  0
  -23.6292   -8.2239   22.0753 C   0  0  0  0  0  0
  -22.4277   -8.0280   21.3542 C   0  0  0  0  0  0
  -21.9913   -9.0253   20.4644 C   0  0  0  0  0  0
  -22.7241  -10.2131   20.3056 C   0  0  0  0  0  0
  -21.6846   -6.0733   22.5276 C   0  0  0  0  0  0
  -21.4015   -6.5639   23.8211 C   0  0  0  0  0  0
  -21.3660   -5.6792   24.9172 C   0  0  0  0  0  0
  -21.6042   -4.3055   24.7226 C   0  0  0  0  0  0
  -21.8819   -3.8146   23.4349 C   0  0  0  0  0  0
  -21.9195   -4.6961   22.3403 C   0  0  0  0  0  0
  -22.7835  -13.5227   21.1850 C   0  0  0  0  0  0
  -22.1657   -4.2146   21.0980 F   0  0  0  0  0  0
  -21.5631   -3.4541   25.7740 F   0  0  0  0  0  0
  -30.0033  -13.4027   20.3865 N   0  0  0  0  0  0
  -26.2995  -12.9374   20.3413 N   0  0  0  0  0  0
  -25.9331  -11.6521   20.5824 N   0  0  0  0  0  0
  -22.0477  -12.8213   22.0406 N   0  0  0  0  0  0
  -25.4265  -15.1898   20.4101 N   0  0  0  0  0  0
  -31.9279  -14.5453   20.2344 O   0  0  0  0  0  0
  -21.6637   -6.8879   21.4239 O   0  0  0  0  0  0
  -22.3518  -14.5529   20.6696 O   0  0  0  0  0  0
  -24.6209  -31.8667   23.2100 C   0  0  0  0  0  0
  -25.9091  -32.4815   23.8398 C   0  0  1  0  0  0
  -27.2141  -27.3764   20.0944 C   0  0  0  0  0  0
  -25.5928  -33.8614   24.2324 N   0  0  0  0  0  0
  -23.4097  -30.4957   21.5526 C   0  0  2  0  0  0
  -24.8518  -28.9670   20.1113 C   0  0  0  0  0  0
  -22.7445  -29.4664   22.4967 C   0  0  0  0  0  0
  -18.0284  -28.1376   22.8493 C   0  0  0  0  0  0
  -24.1493  -36.7303   23.2633 C   0  0  0  0  0  0
  -25.9489  -30.8134   21.3756 C   0  0  0  0  0  0
  -26.0211  -29.4482   20.7137 C   0  0  0  0  0  0
  -27.2068  -28.6632   20.7005 C   0  0  0  0  0  0
  -26.0186  -26.9437   19.4669 C   0  0  0  0  0  0
  -24.8487  -27.7157   19.4833 C   0  0  0  0  0  0
  -23.6194  -29.8404   20.1648 C   0  0  0  0  0  0
  -25.4114  -36.3106   24.0333 C   0  0  1  0  0  0
  -20.5880  -28.3677   23.1297 C   0  0  2  0  0  0
  -20.6774  -26.9408   22.5409 C   0  0  0  0  0  0
  -19.5749  -26.6385   21.5209 C   0  0  0  0  0  0
  -18.1930  -26.7924   22.1624 C   0  0  0  0  0  0
  -19.1535  -28.8839   23.2892 C   0  0  0  0  0  0
  -18.9461  -30.1441   23.8911 C   0  0  0  0  0  0
  -17.6462  -30.6582   24.0566 C   0  0  0  0  0  0
  -25.9043  -34.9473   23.5120 C   0  0  0  0  0  0
  -16.5353  -29.9081   23.6328 C   0  0  0  0  0  0
  -16.7276  -28.6495   23.0358 C   0  0  0  0  0  0
  -26.4495  -31.6600   25.0740 C   0  0  0  0  0  0
  -25.3737  -31.3720   26.1471 C   0  0  0  0  0  0
  -27.0324  -30.3033   24.6150 C   0  0  0  0  0  0
  -27.6069  -32.4317   25.7504 C   0  0  0  0  0  0
  -27.5585  -37.1805   24.8467 C   0  0  0  0  0  0
  -21.4166  -29.3043   22.3703 N   0  0  0  0  0  0
  -26.4301  -37.3791   23.9406 N   0  0  0  0  0  0
  -24.6784  -31.0728   22.1032 N   0  0  0  0  0  0
  -23.4204  -28.8191   23.3009 O   0  0  0  0  0  0
  -28.3376  -26.5480   20.1399 O   0  0  0  0  0  0
  -26.5602  -34.8923   22.4681 O   0  0  0  0  0  0
  -23.5390  -32.1448   23.7464 O   0  0  0  0  0  0
  -30.0809  -18.1981   19.4896 C   0  0  0  0  0  0
  -28.4932  -17.6635   21.2485 C   0  0  0  0  0  0
  -29.5669  -21.3974   20.0672 C   0  0  0  0  0  0
  -30.8401  -16.8826   19.7873 C   0  0  0  0  0  0
  -29.2162  -16.3112   21.5453 C   0  0  0  0  0  0
  -27.8016  -22.1486   21.4917 C   0  0  0  0  0  0
  -29.4179  -18.7966   20.7379 C   0  0  0  0  0  0
  -28.5937  -22.5904   20.2449 C   0  0  1  0  0  0
  -28.6913  -20.1659   20.4380 C   0  0  1  0  0  0
  -29.1584  -24.0602   20.3042 C   0  0  0  0  0  0
  -28.0649  -25.1235   19.9759 C   0  0  0  0  0  0
  -30.0775  -15.7862   20.4572 N   0  0  0  0  0  0
  -27.8780  -20.6693   21.5650 N   0  3  0  0  0  0
  -31.4555  -12.4563   19.1033 H   0  0  0  0  0  0
  -30.3363  -11.3694   19.8641 H   0  0  0  0  0  0
  -29.7306  -11.7423   17.4533 H   0  0  0  0  0  0
  -29.6385  -13.4650   17.7228 H   0  0  0  0  0  0
  -27.8332  -11.3033   18.8474 H   0  0  0  0  0  0
  -27.3498  -12.6020   17.7925 H   0  0  0  0  0  0
  -27.6782  -14.2612   19.5499 H   0  0  0  0  0  0
  -28.7304  -11.9972   21.3003 H   0  0  0  0  0  0
  -28.4837  -13.5885   21.8862 H   0  0  0  0  0  0
  -25.2756   -9.5672   22.4768 H   0  0  0  0  0  0
  -23.9996   -7.4626   22.7472 H   0  0  0  0  0  0
  -21.0847   -8.8774   19.8947 H   0  0  0  0  0  0
  -22.3704  -10.9673   19.6172 H   0  0  0  0  0  0
  -21.2005   -7.6146   23.9713 H   0  0  0  0  0  0
  -21.1481   -6.0522   25.9074 H   0  0  0  0  0  0
  -22.0601   -2.7610   23.2848 H   0  0  0  0  0  0
  -22.4096  -11.9881   22.4803 H   0  0  0  0  0  0
  -21.1089  -13.1226   22.2601 H   0  0  0  0  0  0
  -24.6605  -15.8465   20.5125 H   0  0  0  0  0  0
  -26.2838  -15.6234   20.0927 H   0  0  0  0  0  0
  -26.7157  -32.5515   23.1148 H   0  0  0  0  0  0
  -25.0094  -33.9770   25.0482 H   0  0  0  0  0  0
  -22.7009  -31.3157   21.4171 H   0  0  0  0  0  0
  -23.3756  -35.9637   23.3307 H   0  0  0  0  0  0
  -24.3589  -36.8920   22.2046 H   0  0  0  0  0  0
  -23.7243  -37.6505   23.6651 H   0  0  0  0  0  0
  -26.0747  -31.5818   20.6117 H   0  0  0  0  0  0
  -26.8316  -30.8572   22.0020 H   0  0  0  0  0  0
  -28.1040  -29.0246   21.1843 H   0  0  0  0  0  0
  -25.9426  -25.9945   18.9598 H   0  0  0  0  0  0
  -23.9529  -27.3418   19.0066 H   0  0  0  0  0  0
  -23.7343  -30.6211   19.4124 H   0  0  0  0  0  0
  -22.7403  -29.2678   19.8638 H   0  0  0  0  0  0
  -25.1289  -36.1966   25.0825 H   0  0  0  0  0  0
  -20.9972  -28.3247   24.1416 H   0  0  0  0  0  0
  -20.5686  -26.2282   23.3603 H   0  0  0  0  0  0
  -21.6642  -26.7451   22.1193 H   0  0  0  0  0  0
  -19.6920  -25.6298   21.1229 H   0  0  0  0  0  0
  -19.6692  -27.3201   20.6744 H   0  0  0  0  0  0
  -17.4202  -26.6685   21.4023 H   0  0  0  0  0  0
  -18.0327  -26.0059   22.9009 H   0  0  0  0  0  0
  -19.7936  -30.7244   24.2304 H   0  0  0  0  0  0
  -17.5020  -31.6273   24.5149 H   0  0  0  0  0  0
  -15.5354  -30.2987   23.7640 H   0  0  0  0  0  0
  -15.8679  -28.0810   22.7076 H   0  0  0  0  0  0
  -24.5923  -30.7054   25.7804 H   0  0  0  0  0  0
  -24.8902  -32.2873   26.4894 H   0  0  0  0  0  0
  -25.8064  -30.8908   27.0251 H   0  0  0  0  0  0
  -26.2879  -29.6792   24.1191 H   0  0  0  0  0  0
  -27.4058  -29.7277   25.4628 H   0  0  0  0  0  0
  -27.8739  -30.4333   23.9345 H   0  0  0  0  0  0
  -27.2701  -33.3625   26.2078 H   0  0  0  0  0  0
  -28.3877  -32.6859   25.0326 H   0  0  0  0  0  0
  -28.0730  -31.8438   26.5419 H   0  0  0  0  0  0
  -28.2599  -38.0103   24.7506 H   0  0  0  0  0  0
  -28.1083  -36.2630   24.6299 H   0  0  0  0  0  0
  -27.2301  -37.1467   25.8871 H   0  0  0  0  0  0
  -20.9330  -29.8789   21.6944 H   0  0  0  0  0  0
  -26.0191  -38.2874   24.1396 H   0  0  0  0  0  0
  -29.3297  -18.0167   18.7191 H   0  0  0  0  0  0
  -30.7801  -18.9191   19.0628 H   0  0  0  0  0  0
  -27.9803  -17.9779   22.1578 H   0  0  0  0  0  0
  -27.7060  -17.4872   20.5131 H   0  0  0  0  0  0
  -30.4123  -21.4863   20.7510 H   0  0  0  0  0  0
  -29.9630  -21.3335   19.0533 H   0  0  0  0  0  0
  -31.7061  -17.1253   20.4070 H   0  0  0  0  0  0
  -31.2410  -16.5222   18.8370 H   0  0  0  0  0  0
  -28.4293  -15.6110   21.7986 H   0  0  0  0  0  0
  -29.8309  -16.4147   22.4413 H   0  0  0  0  0  0
  -26.7659  -22.4886   21.4523 H   0  0  0  0  0  0
  -28.2438  -22.5579   22.4006 H   0  0  0  0  0  0
  -30.1882  -18.9790   21.4894 H   0  0  0  0  0  0
  -27.9148  -22.5420   19.3912 H   0  0  0  0  0  0
  -27.9938  -20.0012   19.6140 H   0  0  0  0  0  0
  -29.9712  -24.1672   19.5852 H   0  0  0  0  0  0
  -29.5923  -24.2563   21.2850 H   0  0  0  0  0  0
  -27.1969  -24.8722   20.5891 H   0  0  0  0  0  0
  -27.7851  -24.9506   18.9361 H   0  0  0  0  0  0
  -26.9553  -20.2643   21.5486 H   0  0  0  0  0  0
  -28.3154  -20.4238   22.4385 H   0  0  0  0  0  0
  1 25  1  0  0  0
  1 30  2  0  0  0
  1 82  1  0  0  0
  2  3  1  0  0  0
  2 25  1  0  0  0
  2 84  1  0  0  0
  2 85  1  0  0  0
  3  4  1  0  0  0
  3 86  1  0  0  0
  3 87  1  0  0  0
  4  5  1  0  0  0
  4 88  1  0  0  0
  4 89  1  0  0  0
  5  6  1  0  0  0
  5 26  1  0  0  0
  5 90  1  0  0  0
  6 25  1  0  0  0
  6 91  1  0  0  0
  6 92  1  0  0  0
  7  8  2  0  0  0
  7 26  1  0  0  0
  7 29  1  0  0  0
  8  9  1  0  0  0
  8 22  1  0  0  0
  9 10  1  0  0  0
  9 27  2  0  0  0
 10 11  2  0  0  0
 10 15  1  0  0  0
 11 12  1  0  0  0
 11 93  1  0  0  0
 12 13  2  0  0  0
 12 94  1  0  0  0
 13 14  1  0  0  0
 13 31  1  0  0  0
 14 15  2  0  0  0
 14 95  1  0  0  0
 15 96  1  0  0  0
 16 17  2  0  0  0
 16 21  1  0  0  0
 16 31  1  0  0  0
 17 18  1  0  0  0
 17 97  1  0  0  0
 18 19  2  0  0  0
 18 98  1  0  0  0
 19 20  1  0  0  0
 19 24  1  0  0  0
 20 21  2  0  0  0
 20 99  1  0  0  0
 21 23  1  0  0  0
 22 28  1  0  0  0
 22 32  2  0  0  0
 26 27  1  0  0  0
 28100  1  0  0  0
 28101  1  0  0  0
 29102  1  0  0  0
 29103  1  0  0  0
 33 34  1  0  0  0
 33 66  1  0  0  0
 33 70  2  0  0  0
 34 36  1  0  0  0
 34 59  1  0  0  0
 34104  1  0  0  0
 35 44  2  0  0  0
 35 45  1  0  0  0
 35 68  1  0  0  0
 36 56  1  0  0  0
 36105  1  0  0  0
 37 39  1  0  0  0
 37 47  1  0  0  0
 37 66  1  0  0  0
 37106  1  0  0  0
 38 43  2  0  0  0
 38 46  1  0  0  0
 38 47  1  0  0  0
 39 64  1  0  0  0
 39 67  2  0  0  0
 40 52  1  0  0  0
 40 53  2  0  0  0
 40 58  1  0  0  0
 41107  1  0  0  0
 41108  1  0  0  0
 41109  1  0  0  0
 41 48  1  0  0  0
 42 43  1  0  0  0
 42 66  1  0  0  0
 42110  1  0  0  0
 42111  1  0  0  0
 43 44  1  0  0  0
 44112  1  0  0  0
 45 46  2  0  0  0
 45113  1  0  0  0
 46114  1  0  0  0
 47115  1  0  0  0
 47116  1  0  0  0
 48 56  1  0  0  0
 48 65  1  0  0  0
 48117  1  0  0  0
 49 50  1  0  0  0
 49 53  1  0  0  0
 49 64  1  0  0  0
 49118  1  0  0  0
 50 51  1  0  0  0
 50119  1  0  0  0
 50120  1  0  0  0
 51 52  1  0  0  0
 51121  1  0  0  0
 51122  1  0  0  0
 52123  1  0  0  0
 52124  1  0  0  0
 53 54  1  0  0  0
 54 55  2  0  0  0
 54125  1  0  0  0
 55 57  1  0  0  0
 55126  1  0  0  0
 56 69  2  0  0  0
 57 58  2  0  0  0
 57127  1  0  0  0
 58128  1  0  0  0
 59 60  1  0  0  0
 59 61  1  0  0  0
 59 62  1  0  0  0
 60129  1  0  0  0
 60130  1  0  0  0
 60131  1  0  0  0
 61132  1  0  0  0
 61133  1  0  0  0
 61134  1  0  0  0
 62135  1  0  0  0
 62136  1  0  0  0
 62137  1  0  0  0
 63 65  1  0  0  0
 63138  1  0  0  0
 63139  1  0  0  0
 63140  1  0  0  0
 64141  1  0  0  0
 65142  1  0  0  0
 68 81  1  0  0  0
 71 74  1  0  0  0
 71143  1  0  0  0
 71144  1  0  0  0
 71 77  1  0  0  0
 72 75  1  0  0  0
 72 77  1  0  0  0
 72145  1  0  0  0
 72146  1  0  0  0
 73 78  1  0  0  0
 73147  1  0  0  0
 73148  1  0  0  0
 73 79  1  0  0  0
 74 82  1  0  0  0
 74149  1  0  0  0
 74150  1  0  0  0
 75 82  1  0  0  0
 75151  1  0  0  0
 75152  1  0  0  0
 76 78  1  0  0  0
 76 83  1  0  0  0
 76153  1  0  0  0
 76154  1  0  0  0
 77 79  1  0  0  0
 77155  1  0  0  0
 78 80  1  0  0  0
 78156  1  0  0  0
 79 83  1  0  0  0
 79157  1  0  0  0
 80 81  1  0  0  0
 80158  1  0  0  0
 80159  1  0  0  0
 81160  1  0  0  0
 81161  1  0  0  0
 83162  1  0  0  0
 83163  1  0  0  0
M  CHG  1  83   1
M  ISO  4   1 100  68 101  81 101  82 100
M  END
> <chiral flag>
0

> <version>
0

> <s_m_source_file>
/data/baiqing/PycharmProjects/Reinvent-master-3.2/result/LINK_invent/BTK/process_docking_weight1_custom_sum_contain_oxygen_bond_distance_aromatic_linkinvent_7_9_3/rearranged_h_0119.sdf

> <i_m_source_file_index>
41

> <r_mmod_Potential_Energy-OPLS-2005>
173.942230224609

> <r_mmod_Stretch_Energy-OPLS-2005>
57.2979316711426

> <r_mmod_Bend_Energy-OPLS-2005>
169.844421386719

> <r_mmod_Torsional_Energy-OPLS-2005>
374.862365722656

> <r_mmod_Improper_Torsional_Energy-OPLS-2005>
17.5231094360352

> <r_mmod_Van_der_Waal_Energy-OPLS-2005>
146.394271850586

> <r_mmod_Electrostatic_Energy-OPLS-2005>
-169.785385131836

> <r_mmod_Solvation_Energy-OPLS-2005>
-459.469055175781

> <b_mmod_Minimization_Converged-OPLS-2005>
0

> <r_mmod_RMS_Derivative-OPLS-2005>
1.05627644062042

$$$$
41
                    3D
 Structure written by MMmdl.
171179  0  0  1  0            999 V2000
  -30.7142  -14.3910   20.6209 C   0  0  0  0  0  0
  -30.4380  -12.2801   19.3705 C   0  0  0  0  0  0
  -29.4892  -12.5318   18.1800 C   0  0  0  0  0  0
  -28.0109  -12.3955   18.6037 C   0  0  0  0  0  0
  -27.6786  -13.1927   19.8927 C   0  0  2  0  0  0
  -28.7259  -12.8818   20.9850 C   0  0  0  0  0  0
  -25.2660  -13.8127   20.5681 C   0  0  0  0  0  0
  -24.1902  -13.0430   20.9164 C   0  0  0  0  0  0
  -24.6410  -11.6888   20.8714 C   0  0  0  0  0  0
  -23.9057  -10.4278   21.0423 C   0  0  0  0  0  0
  -24.3598   -9.4198   21.9200 C   0  0  0  0  0  0
  -23.6269   -8.2230   22.0761 C   0  0  0  0  0  0
  -22.4245   -8.0286   21.3537 C   0  0  0  0  0  0
  -21.9890   -9.0265   20.4641 C   0  0  0  0  0  0
  -22.7225  -10.2135   20.3067 C   0  0  0  0  0  0
  -21.6849   -6.0723   22.5278 C   0  0  0  0  0  0
  -21.4006   -6.5630   23.8215 C   0  0  0  0  0  0
  -21.3657   -5.6788   24.9177 C   0  0  0  0  0  0
  -21.6045   -4.3055   24.7233 C   0  0  0  0  0  0
  -21.8819   -3.8132   23.4362 C   0  0  0  0  0  0
  -21.9186   -4.6942   22.3409 C   0  0  0  0  0  0
  -22.7912  -13.5272   21.1831 C   0  0  0  0  0  0
  -22.1660   -4.2130   21.0988 F   0  0  0  0  0  0
  -21.5634   -3.4543   25.7750 F   0  0  0  0  0  0
  -30.0720  -13.2040   20.4569 N   0  0  0  0  0  0
  -26.3126  -12.9257   20.3457 N   0  0  0  0  0  0
  -25.9344  -11.6425   20.5787 N   0  0  0  0  0  0
  -22.0510  -12.8270   22.0365 N   0  0  0  0  0  0
  -25.4398  -15.1830   20.4023 N   0  0  0  0  0  0
  -31.7217  -14.7248   19.9887 O   0  0  0  0  0  0
  -21.6626   -6.8869   21.4235 O   0  0  0  0  0  0
  -22.3599  -14.5571   20.6685 O   0  0  0  0  0  0
  -24.6105  -31.8708   23.2131 C   0  0  0  0  0  0
  -25.9025  -32.4841   23.8396 C   0  0  1  0  0  0
  -27.2459  -27.4388   20.0971 C   0  0  0  0  0  0
  -25.5915  -33.8638   24.2337 N   0  0  0  0  0  0
  -23.4002  -30.4895   21.5547 C   0  0  2  0  0  0
  -24.8432  -28.9593   20.1239 C   0  0  0  0  0  0
  -22.7379  -29.4652   22.5004 C   0  0  0  0  0  0
  -18.0310  -28.1394   22.8490 C   0  0  0  0  0  0
  -24.1498  -36.7295   23.2616 C   0  0  0  0  0  0
  -25.9304  -30.8308   21.3669 C   0  0  0  0  0  0
  -26.0063  -29.4693   20.7101 C   0  0  0  0  0  0
  -27.2067  -28.7212   20.6929 C   0  0  0  0  0  0
  -26.0525  -26.9398   19.5146 C   0  0  0  0  0  0
  -24.8615  -27.6901   19.5284 C   0  0  0  0  0  0
  -23.6036  -29.8233   20.1704 C   0  0  0  0  0  0
  -25.4117  -36.3110   24.0306 C   0  0  1  0  0  0
  -20.5868  -28.3674   23.1340 C   0  0  2  0  0  0
  -20.6756  -26.9395   22.5474 C   0  0  0  0  0  0
  -19.5778  -26.6359   21.5208 C   0  0  0  0  0  0
  -18.1956  -26.7922   22.1589 C   0  0  0  0  0  0
  -19.1552  -28.8840   23.2900 C   0  0  0  0  0  0
  -18.9455  -30.1418   23.8915 C   0  0  0  0  0  0
  -17.6461  -30.6556   24.0606 C   0  0  0  0  0  0
  -25.9050  -34.9485   23.5114 C   0  0  0  0  0  0
  -16.5368  -29.9046   23.6338 C   0  0  0  0  0  0
  -16.7289  -28.6477   23.0333 C   0  0  0  0  0  0
  -26.4459  -31.6598   25.0718 C   0  0  0  0  0  0
  -25.3691  -31.3704   26.1428 C   0  0  0  0  0  0
  -27.0339  -30.3043   24.6119 C   0  0  0  0  0  0
  -27.6040  -32.4310   25.7494 C   0  0  0  0  0  0
  -27.5580  -37.1805   24.8436 C   0  0  0  0  0  0
  -21.4109  -29.3031   22.3713 N   0  0  0  0  0  0
  -26.4307  -37.3804   23.9383 N   0  0  0  0  0  0
  -24.6652  -31.0807   22.1030 N   0  0  0  0  0  0
  -23.4156  -28.8192   23.3057 O   0  0  0  0  0  0
  -28.4492  -26.7557   20.0810 O   0  0  0  0  0  0
  -26.5647  -34.8938   22.4709 O   0  0  0  0  0  0
  -23.5294  -32.1457   23.7507 O   0  0  0  0  0  0
  -30.1119  -19.7362   19.5477 C   0  0  0  0  0  0
  -31.4054  -19.6909   21.6087 C   0  0  0  0  0  0
  -29.9227  -18.3459   19.6344 C   0  0  0  0  0  0
  -31.2428  -18.2903   21.6806 C   0  0  0  0  0  0
  -30.7263  -20.4302   20.6136 C   0  0  0  0  0  0
  -30.3501  -17.6580   20.7914 C   0  0  0  0  0  0
  -27.6528  -18.5071   24.1496 C   0  0  0  0  0  0
  -27.0339  -18.6029   21.6949 C   0  0  0  0  0  0
  -30.3640  -21.8958   20.8362 C   0  0  0  0  0  0
  -29.7913  -24.7533   19.5499 C   0  0  0  0  0  0
  -28.7271  -16.8414   22.5649 C   0  0  0  0  0  0
  -30.8128  -24.2904   20.6268 C   0  0  0  0  0  0
  -28.4425  -25.3243   20.0531 C   0  0  0  0  0  0
  -29.5094  -16.4713   21.2702 C   0  0  2  0  0  0
  -28.1373  -18.2746   22.7106 C   0  0  0  0  0  0
  -30.1564  -15.1863   21.5354 N   0  0  0  0  0  0
  -31.3285  -22.9156   20.3775 N   0  3  0  0  0  0
  -31.4771  -12.4084   19.0600 H   0  0  0  0  0  0
  -30.3584  -11.2422   19.7029 H   0  0  0  0  0  0
  -29.7085  -11.8354   17.3678 H   0  0  0  0  0  0
  -29.6630  -13.5311   17.7766 H   0  0  0  0  0  0
  -27.8073  -11.3349   18.7590 H   0  0  0  0  0  0
  -27.3566  -12.7126   17.7890 H   0  0  0  0  0  0
  -27.7506  -14.2509   19.6469 H   0  0  0  0  0  0
  -28.6835  -11.8186   21.2284 H   0  0  0  0  0  0
  -28.4831  -13.3872   21.9178 H   0  0  0  0  0  0
  -25.2742   -9.5669   22.4778 H   0  0  0  0  0  0
  -23.9972   -7.4623   22.7497 H   0  0  0  0  0  0
  -21.0818   -8.8766   19.8976 H   0  0  0  0  0  0
  -22.3679  -10.9659   19.6172 H   0  0  0  0  0  0
  -21.1996   -7.6139   23.9705 H   0  0  0  0  0  0
  -21.1483   -6.0526   25.9079 H   0  0  0  0  0  0
  -22.0599   -2.7596   23.2868 H   0  0  0  0  0  0
  -22.4063  -11.9931   22.4779 H   0  0  0  0  0  0
  -21.1139  -13.1320   22.2573 H   0  0  0  0  0  0
  -24.6682  -15.8366   20.4969 H   0  0  0  0  0  0
  -26.2938  -15.6152   20.0725 H   0  0  0  0  0  0
  -26.7083  -32.5524   23.1153 H   0  0  0  0  0  0
  -25.0028  -33.9826   25.0430 H   0  0  0  0  0  0
  -22.6869  -31.3066   21.4210 H   0  0  0  0  0  0
  -23.3758  -35.9644   23.3307 H   0  0  0  0  0  0
  -24.3510  -36.8907   22.2020 H   0  0  0  0  0  0
  -23.7266  -37.6494   23.6630 H   0  0  0  0  0  0
  -26.0606  -31.5958   20.6005 H   0  0  0  0  0  0
  -26.8102  -30.8741   21.9951 H   0  0  0  0  0  0
  -28.1018  -29.1253   21.1432 H   0  0  0  0  0  0
  -25.9985  -25.9792   19.0293 H   0  0  0  0  0  0
  -23.9720  -27.2865   19.0692 H   0  0  0  0  0  0
  -23.7133  -30.6001   19.4129 H   0  0  0  0  0  0
  -22.7240  -29.2477   19.8752 H   0  0  0  0  0  0
  -25.1297  -36.1970   25.0798 H   0  0  0  0  0  0
  -20.9971  -28.3274   24.1454 H   0  0  0  0  0  0
  -20.5635  -26.2275   23.3666 H   0  0  0  0  0  0
  -21.6657  -26.7473   22.1308 H   0  0  0  0  0  0
  -19.7017  -25.6285   21.1194 H   0  0  0  0  0  0
  -19.6787  -27.3181   20.6758 H   0  0  0  0  0  0
  -17.4297  -26.6737   21.3929 H   0  0  0  0  0  0
  -18.0322  -26.0034   22.8939 H   0  0  0  0  0  0
  -19.7919  -30.7236   24.2252 H   0  0  0  0  0  0
  -17.4977  -31.6236   24.5211 H   0  0  0  0  0  0
  -15.5346  -30.2943   23.7617 H   0  0  0  0  0  0
  -15.8706  -28.0809   22.7006 H   0  0  0  0  0  0
  -24.5942  -30.6941   25.7798 H   0  0  0  0  0  0
  -24.8728  -32.2847   26.4707 H   0  0  0  0  0  0
  -25.7984  -30.9049   27.0297 H   0  0  0  0  0  0
  -26.2913  -29.6822   24.1149 H   0  0  0  0  0  0
  -27.4027  -29.7220   25.4571 H   0  0  0  0  0  0
  -27.8742  -30.4346   23.9288 H   0  0  0  0  0  0
  -27.2711  -33.3652   26.2011 H   0  0  0  0  0  0
  -28.3909  -32.6787   25.0357 H   0  0  0  0  0  0
  -28.0667  -31.8478   26.5453 H   0  0  0  0  0  0
  -28.2614  -38.0094   24.7497 H   0  0  0  0  0  0
  -28.1081  -36.2622   24.6278 H   0  0  0  0  0  0
  -27.2266  -37.1465   25.8833 H   0  0  0  0  0  0
  -20.9283  -29.8760   21.6916 H   0  0  0  0  0  0
  -26.0177  -38.2893   24.1358 H   0  0  0  0  0  0
  -29.6136  -20.2868   18.7582 H   0  0  0  0  0  0
  -31.8929  -20.1919   22.4354 H   0  0  0  0  0  0
  -29.2574  -17.8745   18.9217 H   0  0  0  0  0  0
  -31.5949  -17.7622   22.5549 H   0  0  0  0  0  0
  -27.2582  -19.5152   24.2821 H   0  0  0  0  0  0
  -28.4855  -18.4012   24.8465 H   0  0  0  0  0  0
  -26.8815  -17.7930   24.4420 H   0  0  0  0  0  0
  -27.4081  -18.6036   20.6752 H   0  0  0  0  0  0
  -26.6332  -19.6042   21.8634 H   0  0  0  0  0  0
  -26.2070  -17.9005   21.7493 H   0  0  0  0  0  0
  -30.1769  -22.0227   21.9045 H   0  0  0  0  0  0
  -29.4064  -22.0776   20.3468 H   0  0  0  0  0  0
  -29.5479  -23.9172   18.8896 H   0  0  0  0  0  0
  -30.2666  -25.4850   18.8972 H   0  0  0  0  0  0
  -27.9362  -16.1083   22.7330 H   0  0  0  0  0  0
  -29.4201  -16.7210   23.3999 H   0  0  0  0  0  0
  -30.3707  -24.3281   21.6240 H   0  0  0  0  0  0
  -31.6471  -24.9939   20.6590 H   0  0  0  0  0  0
  -28.1847  -24.9418   21.0419 H   0  0  0  0  0  0
  -27.6873  -24.9291   19.3832 H   0  0  0  0  0  0
  -28.7683  -16.2731   20.4911 H   0  0  0  0  0  0
  -28.9207  -19.0156   22.5680 H   0  0  0  0  0  0
  -29.6043  -14.6368   22.1769 H   0  0  0  0  0  0
  -31.5358  -22.7867   19.4028 H   0  0  0  0  0  0
  -32.1886  -22.7815   20.8880 H   0  0  0  0  0  0
  1 25  1  0  0  0
  1 30  2  0  0  0
  1 86  1  0  0  0
  2  3  1  0  0  0
  2 25  1  0  0  0
  2 88  1  0  0  0
  2 89  1  0  0  0
  3  4  1  0  0  0
  3 90  1  0  0  0
  3 91  1  0  0  0
  4  5  1  0  0  0
  4 92  1  0  0  0
  4 93  1  0  0  0
  5  6  1  0  0  0
  5 26  1  0  0  0
  5 94  1  0  0  0
  6 25  1  0  0  0
  6 95  1  0  0  0
  6 96  1  0  0  0
  7  8  2  0  0  0
  7 26  1  0  0  0
  7 29  1  0  0  0
  8  9  1  0  0  0
  8 22  1  0  0  0
  9 10  1  0  0  0
  9 27  2  0  0  0
 10 11  2  0  0  0
 10 15  1  0  0  0
 11 12  1  0  0  0
 11 97  1  0  0  0
 12 13  2  0  0  0
 12 98  1  0  0  0
 13 14  1  0  0  0
 13 31  1  0  0  0
 14 15  2  0  0  0
 14 99  1  0  0  0
 15100  1  0  0  0
 16 17  2  0  0  0
 16 21  1  0  0  0
 16 31  1  0  0  0
 17 18  1  0  0  0
 17101  1  0  0  0
 18 19  2  0  0  0
 18102  1  0  0  0
 19 20  1  0  0  0
 19 24  1  0  0  0
 20 21  2  0  0  0
 20103  1  0  0  0
 21 23  1  0  0  0
 22 28  1  0  0  0
 22 32  2  0  0  0
 26 27  1  0  0  0
 28104  1  0  0  0
 28105  1  0  0  0
 29106  1  0  0  0
 29107  1  0  0  0
 33 34  1  0  0  0
 33 66  1  0  0  0
 33 70  2  0  0  0
 34 36  1  0  0  0
 34 59  1  0  0  0
 34108  1  0  0  0
 35 44  2  0  0  0
 35 45  1  0  0  0
 35 68  1  0  0  0
 36 56  1  0  0  0
 36109  1  0  0  0
 37 39  1  0  0  0
 37 47  1  0  0  0
 37 66  1  0  0  0
 37110  1  0  0  0
 38 43  2  0  0  0
 38 46  1  0  0  0
 38 47  1  0  0  0
 39 64  1  0  0  0
 39 67  2  0  0  0
 40 52  1  0  0  0
 40 53  2  0  0  0
 40 58  1  0  0  0
 41111  1  0  0  0
 41112  1  0  0  0
 41113  1  0  0  0
 41 48  1  0  0  0
 42 43  1  0  0  0
 42 66  1  0  0  0
 42114  1  0  0  0
 42115  1  0  0  0
 43 44  1  0  0  0
 44116  1  0  0  0
 45 46  2  0  0  0
 45117  1  0  0  0
 46118  1  0  0  0
 47119  1  0  0  0
 47120  1  0  0  0
 48 56  1  0  0  0
 48 65  1  0  0  0
 48121  1  0  0  0
 49 50  1  0  0  0
 49 53  1  0  0  0
 49 64  1  0  0  0
 49122  1  0  0  0
 50 51  1  0  0  0
 50123  1  0  0  0
 50124  1  0  0  0
 51 52  1  0  0  0
 51125  1  0  0  0
 51126  1  0  0  0
 52127  1  0  0  0
 52128  1  0  0  0
 53 54  1  0  0  0
 54 55  2  0  0  0
 54129  1  0  0  0
 55 57  1  0  0  0
 55130  1  0  0  0
 56 69  2  0  0  0
 57 58  2  0  0  0
 57131  1  0  0  0
 58132  1  0  0  0
 59 60  1  0  0  0
 59 61  1  0  0  0
 59 62  1  0  0  0
 60133  1  0  0  0
 60134  1  0  0  0
 60135  1  0  0  0
 61136  1  0  0  0
 61137  1  0  0  0
 61138  1  0  0  0
 62139  1  0  0  0
 62140  1  0  0  0
 62141  1  0  0  0
 63 65  1  0  0  0
 63142  1  0  0  0
 63143  1  0  0  0
 63144  1  0  0  0
 64145  1  0  0  0
 65146  1  0  0  0
 68 83  1  0  0  0
 71 73  2  0  0  0
 71 75  1  0  0  0
 71147  1  0  0  0
 72 74  1  0  0  0
 72 75  2  0  0  0
 72148  1  0  0  0
 73 76  1  0  0  0
 73149  1  0  0  0
 74 76  2  0  0  0
 74150  1  0  0  0
 75 79  1  0  0  0
 76 84  1  0  0  0
 77151  1  0  0  0
 77152  1  0  0  0
 77153  1  0  0  0
 77 85  1  0  0  0
 78 85  1  0  0  0
 78154  1  0  0  0
 78155  1  0  0  0
 78156  1  0  0  0
 79 87  1  0  0  0
 79157  1  0  0  0
 79158  1  0  0  0
 80 82  1  0  0  0
 80 83  1  0  0  0
 80159  1  0  0  0
 80160  1  0  0  0
 81 85  1  0  0  0
 81161  1  0  0  0
 81162  1  0  0  0
 81 84  1  0  0  0
 82 87  1  0  0  0
 82163  1  0  0  0
 82164  1  0  0  0
 83165  1  0  0  0
 83166  1  0  0  0
 84 86  1  0  0  0
 84167  1  0  0  0
 85168  1  0  0  0
 86169  1  0  0  0
 87170  1  0  0  0
 87171  1  0  0  0
M  CHG  1  87   1
M  ISO  4   1 100  68 101  83 101  86 100
M  END
> <chiral flag>
0

> <version>
0

> <s_m_source_file>
/data/baiqing/PycharmProjects/Reinvent-master-3.2/result/LINK_invent/BTK/process_docking_weight1_custom_sum_contain_oxygen_bond_distance_aromatic_linkinvent_7_9_3/rearranged_h_0119.sdf

> <i_m_source_file_index>
42

> <r_mmod_Potential_Energy-OPLS-2005>
-139.471740722656

> <r_mmod_Stretch_Energy-OPLS-2005>
38.6159400939941

> <r_mmod_Bend_Energy-OPLS-2005>
124.067314147949

> <r_mmod_Torsional_Energy-OPLS-2005>
316.510284423828

> <r_mmod_Improper_Torsional_Energy-OPLS-2005>
14.1718683242798

> <r_mmod_Van_der_Waal_Energy-OPLS-2005>
149.516174316406

> <r_mmod_Electrostatic_Energy-OPLS-2005>
-322.208648681641

> <r_mmod_Solvation_Energy-OPLS-2005>
-470.529968261719

> <b_mmod_Minimization_Converged-OPLS-2005>
0

> <r_mmod_RMS_Derivative-OPLS-2005>
7.68826961517334

$$$$
42
                    3D
 Structure written by MMmdl.
166174  0  0  1  0            999 V2000
  -30.6120  -14.6808   20.4861 C   0  0  0  0  0  0
  -30.4282  -12.4181   19.4617 C   0  0  0  0  0  0
  -29.5019  -12.5066   18.2285 C   0  0  0  0  0  0
  -28.0277  -12.3383   18.6414 C   0  0  0  0  0  0
  -27.6449  -13.2226   19.8571 C   0  0  2  0  0  0
  -28.6869  -13.1146   20.9921 C   0  0  0  0  0  0
  -25.2518  -13.8185   20.5687 C   0  0  0  0  0  0
  -24.1806  -13.0445   20.9216 C   0  0  0  0  0  0
  -24.6380  -11.6917   20.8750 C   0  0  0  0  0  0
  -23.9068  -10.4294   21.0412 C   0  0  0  0  0  0
  -24.3618   -9.4208   21.9191 C   0  0  0  0  0  0
  -23.6294   -8.2243   22.0752 C   0  0  0  0  0  0
  -22.4275   -8.0282   21.3544 C   0  0  0  0  0  0
  -21.9920   -9.0257   20.4644 C   0  0  0  0  0  0
  -22.7245  -10.2138   20.3059 C   0  0  0  0  0  0
  -21.6862   -6.0743   22.5282 C   0  0  0  0  0  0
  -21.4010   -6.5648   23.8215 C   0  0  0  0  0  0
  -21.3655   -5.6796   24.9178 C   0  0  0  0  0  0
  -21.6043   -4.3056   24.7229 C   0  0  0  0  0  0
  -21.8822   -3.8152   23.4348 C   0  0  0  0  0  0
  -21.9190   -4.6968   22.3402 C   0  0  0  0  0  0
  -22.7825  -13.5225   21.1868 C   0  0  0  0  0  0
  -22.1666   -4.2149   21.0977 F   0  0  0  0  0  0
  -21.5624   -3.4542   25.7747 F   0  0  0  0  0  0
  -29.9965  -13.4557   20.4242 N   0  0  0  0  0  0
  -26.2945  -12.9384   20.3303 N   0  0  0  0  0  0
  -25.9310  -11.6537   20.5757 N   0  0  0  0  0  0
  -22.0470  -12.8215   22.0411 N   0  0  0  0  0  0
  -25.4251  -15.1910   20.4087 N   0  0  0  0  0  0
  -31.7813  -14.8171   20.1174 O   0  0  0  0  0  0
  -21.6641   -6.8879   21.4239 O   0  0  0  0  0  0
  -22.3520  -14.5536   20.6710 O   0  0  0  0  0  0
  -24.6261  -31.8578   23.2023 C   0  0  0  0  0  0
  -25.9104  -32.4782   23.8342 C   0  0  1  0  0  0
  -27.2137  -27.2762   20.1212 C   0  0  0  0  0  0
  -25.5892  -33.8577   24.2255 N   0  0  0  0  0  0
  -23.4228  -30.4805   21.5465 C   0  0  2  0  0  0
  -24.8688  -28.9347   20.1093 C   0  0  0  0  0  0
  -22.7492  -29.4598   22.4931 C   0  0  0  0  0  0
  -18.0295  -28.1368   22.8487 C   0  0  0  0  0  0
  -24.1491  -36.7286   23.2634 C   0  0  0  0  0  0
  -25.9677  -30.7699   21.3868 C   0  0  0  0  0  0
  -26.0376  -29.3957   20.7254 C   0  0  0  0  0  0
  -27.2092  -28.5745   20.7296 C   0  0  0  0  0  0
  -26.0264  -26.8950   19.4520 C   0  0  0  0  0  0
  -24.8665  -27.6916   19.4635 C   0  0  0  0  0  0
  -23.6390  -29.8183   20.1615 C   0  0  0  0  0  0
  -25.4116  -36.3078   24.0314 C   0  0  1  0  0  0
  -20.5890  -28.3672   23.1281 C   0  0  2  0  0  0
  -20.6794  -26.9398   22.5404 C   0  0  0  0  0  0
  -19.5774  -26.6367   21.5202 C   0  0  0  0  0  0
  -18.1947  -26.7914   22.1605 C   0  0  0  0  0  0
  -19.1542  -28.8835   23.2882 C   0  0  0  0  0  0
  -18.9474  -30.1435   23.8901 C   0  0  0  0  0  0
  -17.6477  -30.6588   24.0546 C   0  0  0  0  0  0
  -25.9042  -34.9453   23.5096 C   0  0  0  0  0  0
  -16.5362  -29.9073   23.6338 C   0  0  0  0  0  0
  -16.7284  -28.6482   23.0371 C   0  0  0  0  0  0
  -26.4484  -31.6597   25.0731 C   0  0  0  0  0  0
  -25.3701  -31.3745   26.1444 C   0  0  0  0  0  0
  -27.0329  -30.3006   24.6228 C   0  0  0  0  0  0
  -27.6032  -32.4340   25.7508 C   0  0  0  0  0  0
  -27.5589  -37.1793   24.8455 C   0  0  0  0  0  0
  -21.4202  -29.3017   22.3676 N   0  0  0  0  0  0
  -26.4290  -37.3771   23.9406 N   0  0  0  0  0  0
  -24.6904  -31.0539   22.1009 N   0  0  0  0  0  0
  -23.4217  -28.8148   23.3018 O   0  0  0  0  0  0
  -28.3173  -26.3964   20.2048 O   0  0  0  0  0  0
  -26.5643  -34.8927   22.4684 O   0  0  0  0  0  0
  -23.5408  -32.1374   23.7323 O   0  0  0  0  0  0
  -29.6120  -17.7194   19.0615 C   0  0  0  0  0  0
  -29.3150  -19.2515   19.1649 C   0  0  0  0  0  0
  -30.1079  -17.2452   20.4446 C   0  0  1  0  0  0
  -29.4917  -18.4010   21.3385 C   0  0  1  0  0  0
  -28.4328  -23.8321   22.1475 C   0  0  0  0  0  0
  -30.0555  -18.4748   22.7780 C   0  0  0  0  0  0
  -28.9294  -22.2926   20.0976 C   0  0  0  0  0  0
  -29.0749  -21.0012   21.0591 C   0  0  0  0  0  0
  -29.5684  -17.3267   23.6826 C   0  0  0  0  0  0
  -28.1770  -24.9442   19.8586 C   0  0  0  0  0  0
  -28.9385  -23.8018   20.6954 C   0  0  1  0  0  0
  -29.8223  -15.7802   20.7494 N   0  0  0  0  0  0
  -29.6695  -19.6805   20.5380 N   0  3  2  0  0  0
  -29.9161  -17.5874   25.0310 O   0  0  0  0  0  0
  -31.4688  -12.5402   19.1575 H   0  0  0  0  0  0
  -30.3653  -11.4293   19.9196 H   0  0  0  0  0  0
  -29.7713  -11.7451   17.4955 H   0  0  0  0  0  0
  -29.6351  -13.4688   17.7324 H   0  0  0  0  0  0
  -27.8716  -11.2866   18.8856 H   0  0  0  0  0  0
  -27.3705  -12.5539   17.7979 H   0  0  0  0  0  0
  -27.6521  -14.2516   19.4961 H   0  0  0  0  0  0
  -28.7058  -12.1062   21.4072 H   0  0  0  0  0  0
  -28.4289  -13.7779   21.8204 H   0  0  0  0  0  0
  -25.2770   -9.5689   22.4765 H   0  0  0  0  0  0
  -24.0011   -7.4636   22.7475 H   0  0  0  0  0  0
  -21.0854   -8.8779   19.8947 H   0  0  0  0  0  0
  -22.3712  -10.9678   19.6162 H   0  0  0  0  0  0
  -21.2007   -7.6162   23.9719 H   0  0  0  0  0  0
  -21.1469   -6.0532   25.9081 H   0  0  0  0  0  0
  -22.0600   -2.7615   23.2855 H   0  0  0  0  0  0
  -22.4108  -11.9882   22.4805 H   0  0  0  0  0  0
  -21.1078  -13.1202   22.2584 H   0  0  0  0  0  0
  -24.6550  -15.8433   20.5078 H   0  0  0  0  0  0
  -26.2607  -15.6218   20.0369 H   0  0  0  0  0  0
  -26.7173  -32.5439   23.1076 H   0  0  0  0  0  0
  -25.0006  -33.9716   25.0379 H   0  0  0  0  0  0
  -22.7158  -31.3010   21.4054 H   0  0  0  0  0  0
  -23.3767  -35.9605   23.3273 H   0  0  0  0  0  0
  -24.3577  -36.8936   22.2057 H   0  0  0  0  0  0
  -23.7233  -37.6467   23.6688 H   0  0  0  0  0  0
  -26.1062  -31.5335   20.6224 H   0  0  0  0  0  0
  -26.8444  -30.8155   22.0208 H   0  0  0  0  0  0
  -28.0998  -28.9141   21.2383 H   0  0  0  0  0  0
  -25.9511  -25.9662   18.9093 H   0  0  0  0  0  0
  -23.9739  -27.3396   18.9645 H   0  0  0  0  0  0
  -23.7611  -30.5956   19.4061 H   0  0  0  0  0  0
  -22.7606  -29.2460   19.8611 H   0  0  0  0  0  0
  -25.1302  -36.1911   25.0799 H   0  0  0  0  0  0
  -20.9975  -28.3249   24.1398 H   0  0  0  0  0  0
  -20.5689  -26.2279   23.3599 H   0  0  0  0  0  0
  -21.6673  -26.7437   22.1192 H   0  0  0  0  0  0
  -19.6937  -25.6279   21.1236 H   0  0  0  0  0  0
  -19.6716  -27.3186   20.6739 H   0  0  0  0  0  0
  -17.4218  -26.6659   21.4011 H   0  0  0  0  0  0
  -18.0349  -26.0043   22.8985 H   0  0  0  0  0  0
  -19.7955  -30.7237   24.2282 H   0  0  0  0  0  0
  -17.5041  -31.6284   24.5135 H   0  0  0  0  0  0
  -15.5372  -30.2979   23.7663 H   0  0  0  0  0  0
  -15.8675  -28.0798   22.7099 H   0  0  0  0  0  0
  -24.5888  -30.7082   25.7766 H   0  0  0  0  0  0
  -24.8873  -32.2917   26.4828 H   0  0  0  0  0  0
  -25.7986  -30.8950   27.0250 H   0  0  0  0  0  0
  -26.2919  -29.6761   24.1228 H   0  0  0  0  0  0
  -27.3973  -29.7259   25.4749 H   0  0  0  0  0  0
  -27.8815  -30.4259   23.9500 H   0  0  0  0  0  0
  -27.2638  -33.3648   26.2064 H   0  0  0  0  0  0
  -28.3864  -32.6880   25.0355 H   0  0  0  0  0  0
  -28.0685  -31.8483   26.5445 H   0  0  0  0  0  0
  -28.2568  -38.0131   24.7562 H   0  0  0  0  0  0
  -28.1131  -36.2664   24.6217 H   0  0  0  0  0  0
  -27.2321  -37.1365   25.8860 H   0  0  0  0  0  0
  -20.9373  -29.8703   21.6864 H   0  0  0  0  0  0
  -26.0170  -38.2831   24.1448 H   0  0  0  0  0  0
  -30.3495  -17.5055   18.2872 H   0  0  0  0  0  0
  -28.6971  -17.1964   18.7801 H   0  0  0  0  0  0
  -28.2548  -19.4354   18.9853 H   0  0  0  0  0  0
  -29.8756  -19.8220   18.4242 H   0  0  0  0  0  0
  -31.1917  -17.3734   20.4696 H   0  0  0  0  0  0
  -28.4137  -18.2398   21.4154 H   0  0  0  0  0  0
  -28.3347  -24.8582   22.5040 H   0  0  0  0  0  0
  -29.1251  -23.3301   22.8236 H   0  0  0  0  0  0
  -27.4556  -23.3563   22.2423 H   0  0  0  0  0  0
  -29.7318  -19.4098   23.2338 H   0  0  0  0  0  0
  -31.1458  -18.5054   22.7595 H   0  0  0  0  0  0
  -27.9997  -22.1650   19.5425 H   0  0  0  0  0  0
  -29.7060  -22.2479   19.3344 H   0  0  0  0  0  0
  -28.0912  -20.7888   21.4809 H   0  0  0  0  0  0
  -29.7013  -21.2827   21.9052 H   0  0  0  0  0  0
  -30.0045  -16.3736   23.3804 H   0  0  0  0  0  0
  -28.4830  -17.2180   23.6168 H   0  0  0  0  0  0
  -27.1359  -24.6337   19.9031 H   0  0  0  0  0  0
  -28.4718  -24.8531   18.8132 H   0  0  0  0  0  0
  -29.9873  -24.1016   20.7279 H   0  0  0  0  0  0
  -28.8819  -15.5613   21.0419 H   0  0  0  0  0  0
  -30.6659  -19.8416   20.5049 H   0  0  0  0  0  0
  -29.4954  -16.9268   25.5775 H   0  0  0  0  0  0
  1 25  1  0  0  0
  1 30  2  0  0  0
  1 82  1  0  0  0
  2  3  1  0  0  0
  2 25  1  0  0  0
  2 85  1  0  0  0
  2 86  1  0  0  0
  3  4  1  0  0  0
  3 87  1  0  0  0
  3 88  1  0  0  0
  4  5  1  0  0  0
  4 89  1  0  0  0
  4 90  1  0  0  0
  5  6  1  0  0  0
  5 26  1  0  0  0
  5 91  1  0  0  0
  6 25  1  0  0  0
  6 92  1  0  0  0
  6 93  1  0  0  0
  7  8  2  0  0  0
  7 26  1  0  0  0
  7 29  1  0  0  0
  8  9  1  0  0  0
  8 22  1  0  0  0
  9 10  1  0  0  0
  9 27  2  0  0  0
 10 11  2  0  0  0
 10 15  1  0  0  0
 11 12  1  0  0  0
 11 94  1  0  0  0
 12 13  2  0  0  0
 12 95  1  0  0  0
 13 14  1  0  0  0
 13 31  1  0  0  0
 14 15  2  0  0  0
 14 96  1  0  0  0
 15 97  1  0  0  0
 16 17  2  0  0  0
 16 21  1  0  0  0
 16 31  1  0  0  0
 17 18  1  0  0  0
 17 98  1  0  0  0
 18 19  2  0  0  0
 18 99  1  0  0  0
 19 20  1  0  0  0
 19 24  1  0  0  0
 20 21  2  0  0  0
 20100  1  0  0  0
 21 23  1  0  0  0
 22 28  1  0  0  0
 22 32  2  0  0  0
 26 27  1  0  0  0
 28101  1  0  0  0
 28102  1  0  0  0
 29103  1  0  0  0
 29104  1  0  0  0
 33 34  1  0  0  0
 33 66  1  0  0  0
 33 70  2  0  0  0
 34 36  1  0  0  0
 34 59  1  0  0  0
 34105  1  0  0  0
 35 44  2  0  0  0
 35 45  1  0  0  0
 35 68  1  0  0  0
 36 56  1  0  0  0
 36106  1  0  0  0
 37 39  1  0  0  0
 37 47  1  0  0  0
 37 66  1  0  0  0
 37107  1  0  0  0
 38 43  2  0  0  0
 38 46  1  0  0  0
 38 47  1  0  0  0
 39 64  1  0  0  0
 39 67  2  0  0  0
 40 52  1  0  0  0
 40 53  2  0  0  0
 40 58  1  0  0  0
 41108  1  0  0  0
 41109  1  0  0  0
 41110  1  0  0  0
 41 48  1  0  0  0
 42 43  1  0  0  0
 42 66  1  0  0  0
 42111  1  0  0  0
 42112  1  0  0  0
 43 44  1  0  0  0
 44113  1  0  0  0
 45 46  2  0  0  0
 45114  1  0  0  0
 46115  1  0  0  0
 47116  1  0  0  0
 47117  1  0  0  0
 48 56  1  0  0  0
 48 65  1  0  0  0
 48118  1  0  0  0
 49 50  1  0  0  0
 49 53  1  0  0  0
 49 64  1  0  0  0
 49119  1  0  0  0
 50 51  1  0  0  0
 50120  1  0  0  0
 50121  1  0  0  0
 51 52  1  0  0  0
 51122  1  0  0  0
 51123  1  0  0  0
 52124  1  0  0  0
 52125  1  0  0  0
 53 54  1  0  0  0
 54 55  2  0  0  0
 54126  1  0  0  0
 55 57  1  0  0  0
 55127  1  0  0  0
 56 69  2  0  0  0
 57 58  2  0  0  0
 57128  1  0  0  0
 58129  1  0  0  0
 59 60  1  0  0  0
 59 61  1  0  0  0
 59 62  1  0  0  0
 60130  1  0  0  0
 60131  1  0  0  0
 60132  1  0  0  0
 61133  1  0  0  0
 61134  1  0  0  0
 61135  1  0  0  0
 62136  1  0  0  0
 62137  1  0  0  0
 62138  1  0  0  0
 63 65  1  0  0  0
 63139  1  0  0  0
 63140  1  0  0  0
 63141  1  0  0  0
 64142  1  0  0  0
 65143  1  0  0  0
 68 80  1  0  0  0
 71 72  1  0  0  0
 71 73  1  0  0  0
 71144  1  0  0  0
 71145  1  0  0  0
 72 83  1  0  0  0
 72146  1  0  0  0
 72147  1  0  0  0
 73 74  1  0  0  0
 73 82  1  0  0  0
 73148  1  0  0  0
 74 76  1  0  0  0
 74 83  1  0  0  0
 74149  1  0  0  0
 75150  1  0  0  0
 75151  1  0  0  0
 75152  1  0  0  0
 75 81  1  0  0  0
 76 79  1  0  0  0
 76153  1  0  0  0
 76154  1  0  0  0
 77 78  1  0  0  0
 77 81  1  0  0  0
 77155  1  0  0  0
 77156  1  0  0  0
 78157  1  0  0  0
 78158  1  0  0  0
 78 83  1  0  0  0
 79 84  1  0  0  0
 79159  1  0  0  0
 79160  1  0  0  0
 80 81  1  0  0  0
 80161  1  0  0  0
 80162  1  0  0  0
 81163  1  0  0  0
 82164  1  0  0  0
 83165  1  0  0  0
 84166  1  0  0  0
M  CHG  1  83   1
M  ISO  4   1 100  68 101  80 101  82 100
M  END
> <chiral flag>
0

> <version>
0

> <s_m_source_file>
/data/baiqing/PycharmProjects/Reinvent-master-3.2/result/LINK_invent/BTK/process_docking_weight1_custom_sum_contain_oxygen_bond_distance_aromatic_linkinvent_7_9_3/rearranged_h_0119.sdf

> <i_m_source_file_index>
43

> <r_mmod_Potential_Energy-OPLS-2005>
61.4436683654785

> <r_mmod_Stretch_Energy-OPLS-2005>
105.515396118164

> <r_mmod_Bend_Energy-OPLS-2005>
193.445510864258

> <r_mmod_Torsional_Energy-OPLS-2005>
289.737579345703

> <r_mmod_Improper_Torsional_Energy-OPLS-2005>
5.5987491607666

> <r_mmod_Van_der_Waal_Energy-OPLS-2005>
116.277389526367

> <r_mmod_Electrostatic_Energy-OPLS-2005>
-240.304992675781

> <r_mmod_Solvation_Energy-OPLS-2005>
-476.821624755859

> <b_mmod_Minimization_Converged-OPLS-2005>
0

> <r_mmod_RMS_Derivative-OPLS-2005>
2.60914492607117

$$$$
43
                    3D
 Structure written by MMmdl.
184192  0  0  1  0            999 V2000
  -30.7259  -14.4247   20.6814 C   0  0  0  0  0  0
  -30.4149  -12.3208   19.4080 C   0  0  0  0  0  0
  -29.4879  -12.5405   18.1945 C   0  0  0  0  0  0
  -28.0073  -12.4047   18.5998 C   0  0  0  0  0  0
  -27.6624  -13.2049   19.8837 C   0  0  2  0  0  0
  -28.6996  -12.9439   20.9990 C   0  0  0  0  0  0
  -25.2602  -13.7952   20.5777 C   0  0  0  0  0  0
  -24.1875  -13.0281   20.9297 C   0  0  0  0  0  0
  -24.6420  -11.6778   20.8755 C   0  0  0  0  0  0
  -23.9066  -10.4215   21.0381 C   0  0  0  0  0  0
  -24.3609   -9.4136   21.9161 C   0  0  0  0  0  0
  -23.6257   -8.2200   22.0736 C   0  0  0  0  0  0
  -22.4262   -8.0242   21.3519 C   0  0  0  0  0  0
  -21.9899   -9.0216   20.4648 C   0  0  0  0  0  0
  -22.7229  -10.2097   20.3042 C   0  0  0  0  0  0
  -21.6841   -6.0705   22.5267 C   0  0  0  0  0  0
  -21.3992   -6.5614   23.8193 C   0  0  0  0  0  0
  -21.3622   -5.6766   24.9161 C   0  0  0  0  0  0
  -21.6028   -4.3040   24.7229 C   0  0  0  0  0  0
  -21.8834   -3.8139   23.4356 C   0  0  0  0  0  0
  -21.9202   -4.6941   22.3401 C   0  0  0  0  0  0
  -22.7925  -13.5168   21.1877 C   0  0  0  0  0  0
  -22.1677   -4.2116   21.0985 F   0  0  0  0  0  0
  -21.5626   -3.4529   25.7750 F   0  0  0  0  0  0
  -30.0315  -13.2753   20.4592 N   0  0  0  0  0  0
  -26.3040  -12.9199   20.3402 N   0  0  0  0  0  0
  -25.9357  -11.6359   20.5763 N   0  0  0  0  0  0
  -22.0477  -12.8180   22.0372 N   0  0  0  0  0  0
  -25.4148  -15.1589   20.3981 N   0  0  0  0  0  0
  -31.7867  -14.6851   20.1030 O   0  0  0  0  0  0
  -21.6636   -6.8840   21.4217 O   0  0  0  0  0  0
  -22.3815  -14.5584   20.6766 O   0  0  0  0  0  0
  -24.6141  -31.8678   23.2091 C   0  0  0  0  0  0
  -25.9063  -32.4807   23.8384 C   0  0  1  0  0  0
  -27.2648  -27.4443   20.1100 C   0  0  0  0  0  0
  -25.5915  -33.8598   24.2324 N   0  0  0  0  0  0
  -23.4036  -30.4879   21.5451 C   0  0  2  0  0  0
  -24.8605  -28.9436   20.1208 C   0  0  0  0  0  0
  -22.7394  -29.4658   22.4960 C   0  0  0  0  0  0
  -18.0261  -28.1374   22.8474 C   0  0  0  0  0  0
  -24.1478  -36.7276   23.2640 C   0  0  0  0  0  0
  -25.9312  -30.8380   21.3604 C   0  0  0  0  0  0
  -26.0162  -29.4712   20.7088 C   0  0  0  0  0  0
  -27.2185  -28.7315   20.6925 C   0  0  0  0  0  0
  -26.0883  -26.9161   19.5311 C   0  0  0  0  0  0
  -24.8909  -27.6651   19.5317 C   0  0  0  0  0  0
  -23.6199  -29.8106   20.1626 C   0  0  0  0  0  0
  -25.4096  -36.3078   24.0336 C   0  0  1  0  0  0
  -20.5845  -28.3668   23.1298 C   0  0  2  0  0  0
  -20.6744  -26.9394   22.5423 C   0  0  0  0  0  0
  -19.5739  -26.6385   21.5195 C   0  0  0  0  0  0
  -18.1910  -26.7931   22.1592 C   0  0  0  0  0  0
  -19.1507  -28.8834   23.2887 C   0  0  0  0  0  0
  -18.9442  -30.1429   23.8919 C   0  0  0  0  0  0
  -17.6447  -30.6586   24.0553 C   0  0  0  0  0  0
  -25.9021  -34.9455   23.5117 C   0  0  0  0  0  0
  -16.5338  -29.9083   23.6325 C   0  0  0  0  0  0
  -16.7249  -28.6493   23.0355 C   0  0  0  0  0  0
  -26.4525  -31.6587   25.0711 C   0  0  0  0  0  0
  -25.3795  -31.3696   26.1455 C   0  0  0  0  0  0
  -27.0354  -30.3012   24.6108 C   0  0  0  0  0  0
  -27.6082  -32.4319   25.7470 C   0  0  0  0  0  0
  -27.5563  -37.1785   24.8468 C   0  0  0  0  0  0
  -21.4125  -29.3026   22.3698 N   0  0  0  0  0  0
  -26.4284  -37.3767   23.9421 N   0  0  0  0  0  0
  -24.6663  -31.0782   22.0980 N   0  0  0  0  0  0
  -23.4166  -28.8201   23.3005 O   0  0  0  0  0  0
  -28.4789  -26.7849   20.1096 O   0  0  0  0  0  0
  -26.5560  -34.8921   22.4663 O   0  0  0  0  0  0
  -23.5348  -32.1422   23.7508 O   0  0  0  0  0  0
  -28.6042  -19.1914   23.4726 C   0  0  0  0  0  0
  -29.2048  -20.2553   22.7951 C   0  0  0  0  0  0
  -29.0272  -17.8694   23.2212 C   0  0  0  0  0  0
  -30.2214  -19.9849   21.8652 C   0  0  0  0  0  0
  -30.1466  -17.6902   22.3644 C   0  0  0  0  0  0
  -24.6624  -16.3702   24.1236 C   0  0  0  0  0  0
  -26.0448  -17.6279   18.7513 C   0  0  0  0  0  0
  -27.8083  -19.1561   19.5982 C   0  0  0  0  0  0
  -28.3656  -16.7306   23.9920 C   0  0  0  0  0  0
  -30.7932  -21.0978   20.9801 C   0  0  0  0  0  0
  -30.8961  -16.3560   22.2633 C   0  0  0  0  0  0
  -30.0968  -22.4848   21.1167 C   0  0  0  0  0  0
  -30.4933  -23.5084   20.0324 C   0  0  0  0  0  0
  -30.0441  -24.9785   20.2682 C   0  0  0  0  0  0
  -25.7633  -17.7596   22.2900 C   0  0  0  0  0  0
  -28.5466  -25.3517   20.0797 C   0  0  0  0  0  0
  -25.9648  -16.6499   23.3602 C   0  0  1  0  0  0
  -26.5069  -18.4396   19.9731 C   0  0  0  0  0  0
  -30.6892  -18.7261   21.6719 N   0  0  0  0  0  0
  -30.1925  -15.2528   21.5949 N   0  0  0  0  0  0
  -26.9753  -16.9988   24.3627 N   0  0  0  0  0  0
  -26.7044  -17.5782   21.1690 N   0  3  0  0  0  0
  -31.4581  -12.4278   19.1086 H   0  0  0  0  0  0
  -30.3174  -11.2991   19.7795 H   0  0  0  0  0  0
  -29.7246  -11.8237   17.4090 H   0  0  0  0  0  0
  -29.6658  -13.5289   17.7708 H   0  0  0  0  0  0
  -27.8039  -11.3447   18.7618 H   0  0  0  0  0  0
  -27.3615  -12.7149   17.7775 H   0  0  0  0  0  0
  -27.7154  -14.2629   19.6228 H   0  0  0  0  0  0
  -28.6767  -11.8907   21.2881 H   0  0  0  0  0  0
  -28.4477  -13.4873   21.9070 H   0  0  0  0  0  0
  -25.2762   -9.5601   22.4724 H   0  0  0  0  0  0
  -23.9952   -7.4603   22.7463 H   0  0  0  0  0  0
  -21.0827   -8.8739   19.8958 H   0  0  0  0  0  0
  -22.3671  -10.9647   19.6176 H   0  0  0  0  0  0
  -21.1967   -7.6121   23.9694 H   0  0  0  0  0  0
  -21.1411   -6.0495   25.9053 H   0  0  0  0  0  0
  -22.0660   -2.7602   23.2880 H   0  0  0  0  0  0
  -22.4033  -11.9770   22.4639 H   0  0  0  0  0  0
  -21.1122  -13.1268   22.2640 H   0  0  0  0  0  0
  -24.4646  -15.5237   20.3864 H   0  0  0  0  0  0
  -25.8142  -15.2791   19.4740 H   0  0  0  0  0  0
  -26.7126  -32.5570   23.1145 H   0  0  0  0  0  0
  -25.0156  -33.9756   25.0535 H   0  0  0  0  0  0
  -22.6933  -31.3039   21.3967 H   0  0  0  0  0  0
  -23.3744  -35.9606   23.3323 H   0  0  0  0  0  0
  -24.3561  -36.8870   22.2048 H   0  0  0  0  0  0
  -23.7240  -37.6489   23.6641 H   0  0  0  0  0  0
  -26.0381  -31.6098   20.5979 H   0  0  0  0  0  0
  -26.8180  -30.8949   21.9810 H   0  0  0  0  0  0
  -28.1192  -29.1392   21.1351 H   0  0  0  0  0  0
  -26.0909  -25.9371   19.0742 H   0  0  0  0  0  0
  -23.9974  -27.2502   19.0863 H   0  0  0  0  0  0
  -23.7418  -30.5851   19.4056 H   0  0  0  0  0  0
  -22.7456  -29.2331   19.8540 H   0  0  0  0  0  0
  -25.1273  -36.1913   25.0827 H   0  0  0  0  0  0
  -20.9931  -28.3274   24.1413 H   0  0  0  0  0  0
  -20.5618  -26.2287   23.3620 H   0  0  0  0  0  0
  -21.6624  -26.7439   22.1220 H   0  0  0  0  0  0
  -19.6921  -25.6301   21.1202 H   0  0  0  0  0  0
  -19.6689  -27.3215   20.6733 H   0  0  0  0  0  0
  -17.4176  -26.6669   21.3994 H   0  0  0  0  0  0
  -18.0320  -26.0073   22.8982 H   0  0  0  0  0  0
  -19.7926  -30.7214   24.2336 H   0  0  0  0  0  0
  -17.5008  -31.6274   24.5143 H   0  0  0  0  0  0
  -15.5338  -30.2983   23.7662 H   0  0  0  0  0  0
  -15.8637  -28.0812   22.7088 H   0  0  0  0  0  0
  -24.5973  -30.7039   25.7805 H   0  0  0  0  0  0
  -24.9004  -32.2860   26.4912 H   0  0  0  0  0  0
  -25.8165  -30.8873   27.0207 H   0  0  0  0  0  0
  -26.2898  -29.6725   24.1230 H   0  0  0  0  0  0
  -27.4166  -29.7302   25.4589 H   0  0  0  0  0  0
  -27.8718  -30.4282   23.9225 H   0  0  0  0  0  0
  -27.2686  -33.3612   26.2061 H   0  0  0  0  0  0
  -28.3896  -32.6897   25.0305 H   0  0  0  0  0  0
  -28.0753  -31.8446   26.5384 H   0  0  0  0  0  0
  -28.2577  -38.0084   24.7481 H   0  0  0  0  0  0
  -28.1046  -36.2595   24.6309 H   0  0  0  0  0  0
  -27.2273  -37.1472   25.8875 H   0  0  0  0  0  0
  -20.9320  -29.8730   21.6878 H   0  0  0  0  0  0
  -26.0150  -38.2830   24.1478 H   0  0  0  0  0  0
  -27.8094  -19.4062   24.1717 H   0  0  0  0  0  0
  -28.8393  -21.2531   22.9803 H   0  0  0  0  0  0
  -24.2914  -17.2548   24.6454 H   0  0  0  0  0  0
  -24.7981  -15.5779   24.8582 H   0  0  0  0  0  0
  -23.8820  -16.0378   23.4359 H   0  0  0  0  0  0
  -26.0909  -18.2270   17.8427 H   0  0  0  0  0  0
  -25.0114  -17.2944   18.8474 H   0  0  0  0  0  0
  -26.6825  -16.7568   18.5878 H   0  0  0  0  0  0
  -27.6763  -19.7760   18.7114 H   0  0  0  0  0  0
  -28.6175  -18.4533   19.3911 H   0  0  0  0  0  0
  -28.1119  -19.8223   20.3935 H   0  0  0  0  0  0
  -28.9332  -16.6101   24.9158 H   0  0  0  0  0  0
  -28.4452  -15.7752   23.4722 H   0  0  0  0  0  0
  -30.7225  -20.7603   19.9446 H   0  0  0  0  0  0
  -31.8578  -21.1954   21.1954 H   0  0  0  0  0  0
  -31.1012  -16.0256   23.2803 H   0  0  0  0  0  0
  -31.8821  -16.5280   21.8245 H   0  0  0  0  0  0
  -30.3074  -22.8896   22.1078 H   0  0  0  0  0  0
  -29.0174  -22.3497   21.0490 H   0  0  0  0  0  0
  -30.1438  -23.1620   19.0607 H   0  0  0  0  0  0
  -31.5824  -23.5147   19.9669 H   0  0  0  0  0  0
  -30.6001  -25.5856   19.5535 H   0  0  0  0  0  0
  -30.3807  -25.3091   21.2529 H   0  0  0  0  0  0
  -25.8694  -18.7558   22.7211 H   0  0  0  0  0  0
  -24.7475  -17.7021   21.8923 H   0  0  0  0  0  0
  -27.9422  -24.9309   20.8832 H   0  0  0  0  0  0
  -28.1686  -24.9643   19.1310 H   0  0  0  0  0  0
  -26.2482  -15.7096   22.8872 H   0  0  0  0  0  0
  -25.7512  -19.1974   20.1932 H   0  0  0  0  0  0
  -29.3098  -14.9716   21.9890 H   0  0  0  0  0  0
  -26.7826  -16.5281   25.2432 H   0  0  0  0  0  0
  -26.5618  -16.6131   20.8852 H   0  0  0  0  0  0
  -27.6343  -17.6886   21.5473 H   0  0  0  0  0  0
  1 25  1  0  0  0
  1 30  2  0  0  0
  1 90  1  0  0  0
  2  3  1  0  0  0
  2 25  1  0  0  0
  2 93  1  0  0  0
  2 94  1  0  0  0
  3  4  1  0  0  0
  3 95  1  0  0  0
  3 96  1  0  0  0
  4  5  1  0  0  0
  4 97  1  0  0  0
  4 98  1  0  0  0
  5  6  1  0  0  0
  5 26  1  0  0  0
  5 99  1  0  0  0
  6 25  1  0  0  0
  6100  1  0  0  0
  6101  1  0  0  0
  7  8  2  0  0  0
  7 26  1  0  0  0
  7 29  1  0  0  0
  8  9  1  0  0  0
  8 22  1  0  0  0
  9 10  1  0  0  0
  9 27  2  0  0  0
 10 11  2  0  0  0
 10 15  1  0  0  0
 11 12  1  0  0  0
 11102  1  0  0  0
 12 13  2  0  0  0
 12103  1  0  0  0
 13 14  1  0  0  0
 13 31  1  0  0  0
 14 15  2  0  0  0
 14104  1  0  0  0
 15105  1  0  0  0
 16 17  2  0  0  0
 16 21  1  0  0  0
 16 31  1  0  0  0
 17 18  1  0  0  0
 17106  1  0  0  0
 18 19  2  0  0  0
 18107  1  0  0  0
 19 20  1  0  0  0
 19 24  1  0  0  0
 20 21  2  0  0  0
 20108  1  0  0  0
 21 23  1  0  0  0
 22 28  1  0  0  0
 22 32  2  0  0  0
 26 27  1  0  0  0
 28109  1  0  0  0
 28110  1  0  0  0
 29111  1  0  0  0
 29112  1  0  0  0
 33 34  1  0  0  0
 33 66  1  0  0  0
 33 70  2  0  0  0
 34 36  1  0  0  0
 34 59  1  0  0  0
 34113  1  0  0  0
 35 44  2  0  0  0
 35 45  1  0  0  0
 35 68  1  0  0  0
 36 56  1  0  0  0
 36114  1  0  0  0
 37 39  1  0  0  0
 37 47  1  0  0  0
 37 66  1  0  0  0
 37115  1  0  0  0
 38 43  2  0  0  0
 38 46  1  0  0  0
 38 47  1  0  0  0
 39 64  1  0  0  0
 39 67  2  0  0  0
 40 52  1  0  0  0
 40 53  2  0  0  0
 40 58  1  0  0  0
 41116  1  0  0  0
 41117  1  0  0  0
 41118  1  0  0  0
 41 48  1  0  0  0
 42 43  1  0  0  0
 42 66  1  0  0  0
 42119  1  0  0  0
 42120  1  0  0  0
 43 44  1  0  0  0
 44121  1  0  0  0
 45 46  2  0  0  0
 45122  1  0  0  0
 46123  1  0  0  0
 47124  1  0  0  0
 47125  1  0  0  0
 48 56  1  0  0  0
 48 65  1  0  0  0
 48126  1  0  0  0
 49 50  1  0  0  0
 49 53  1  0  0  0
 49 64  1  0  0  0
 49127  1  0  0  0
 50 51  1  0  0  0
 50128  1  0  0  0
 50129  1  0  0  0
 51 52  1  0  0  0
 51130  1  0  0  0
 51131  1  0  0  0
 52132  1  0  0  0
 52133  1  0  0  0
 53 54  1  0  0  0
 54 55  2  0  0  0
 54134  1  0  0  0
 55 57  1  0  0  0
 55135  1  0  0  0
 56 69  2  0  0  0
 57 58  2  0  0  0
 57136  1  0  0  0
 58137  1  0  0  0
 59 60  1  0  0  0
 59 61  1  0  0  0
 59 62  1  0  0  0
 60138  1  0  0  0
 60139  1  0  0  0
 60140  1  0  0  0
 61141  1  0  0  0
 61142  1  0  0  0
 61143  1  0  0  0
 62144  1  0  0  0
 62145  1  0  0  0
 62146  1  0  0  0
 63 65  1  0  0  0
 63147  1  0  0  0
 63148  1  0  0  0
 63149  1  0  0  0
 64150  1  0  0  0
 65151  1  0  0  0
 68 86  1  0  0  0
 71 72  2  0  0  0
 71 73  1  0  0  0
 71152  1  0  0  0
 72 74  1  0  0  0
 72153  1  0  0  0
 73 75  2  0  0  0
 73 79  1  0  0  0
 74 80  1  0  0  0
 74 89  2  0  0  0
 75 81  1  0  0  0
 75 89  1  0  0  0
 76154  1  0  0  0
 76155  1  0  0  0
 76156  1  0  0  0
 76 87  1  0  0  0
 77157  1  0  0  0
 77158  1  0  0  0
 77159  1  0  0  0
 77 88  1  0  0  0
 78 88  1  0  0  0
 78160  1  0  0  0
 78161  1  0  0  0
 78162  1  0  0  0
 79 91  1  0  0  0
 79163  1  0  0  0
 79164  1  0  0  0
 80 82  1  0  0  0
 80165  1  0  0  0
 80166  1  0  0  0
 81 90  1  0  0  0
 81167  1  0  0  0
 81168  1  0  0  0
 82 83  1  0  0  0
 82169  1  0  0  0
 82170  1  0  0  0
 83 84  1  0  0  0
 83171  1  0  0  0
 83172  1  0  0  0
 84 86  1  0  0  0
 84173  1  0  0  0
 84174  1  0  0  0
 85 87  1  0  0  0
 85 92  1  0  0  0
 85175  1  0  0  0
 85176  1  0  0  0
 86177  1  0  0  0
 86178  1  0  0  0
 87 91  1  0  0  0
 87179  1  0  0  0
 88 92  1  0  0  0
 88180  1  0  0  0
 90181  1  0  0  0
 91182  1  0  0  0
 92183  1  0  0  0
 92184  1  0  0  0
M  CHG  1  92   1
M  ISO  4   1 100  68 101  86 101  90 100
M  END
> <chiral flag>
0

> <version>
0

> <s_m_source_file>
/data/baiqing/PycharmProjects/Reinvent-master-3.2/result/LINK_invent/BTK/process_docking_weight1_custom_sum_contain_oxygen_bond_distance_aromatic_linkinvent_7_9_3/rearranged_h_0119.sdf

> <i_m_source_file_index>
44

> <r_mmod_Potential_Energy-OPLS-2005>
-470.942596435547

> <r_mmod_Stretch_Energy-OPLS-2005>
41.2801399230957

> <r_mmod_Bend_Energy-OPLS-2005>
122.865783691406

> <r_mmod_Torsional_Energy-OPLS-2005>
234.913513183594

> <r_mmod_Improper_Torsional_Energy-OPLS-2005>
10.1389923095703

> <r_mmod_Van_der_Waal_Energy-OPLS-2005>
147.459686279297

> <r_mmod_Electrostatic_Energy-OPLS-2005>
-617.675109863281

> <r_mmod_Solvation_Energy-OPLS-2005>
-420.480712890625

> <b_mmod_Minimization_Converged-OPLS-2005>
0

> <r_mmod_RMS_Derivative-OPLS-2005>
5.18162631988525

$$$$
44
                    3D
 Structure written by MMmdl.
178187  0  0  1  0            999 V2000
  -30.7683  -14.4454   20.5567 C   0  0  0  0  0  0
  -30.4237  -12.3013   19.3841 C   0  0  0  0  0  0
  -29.4718  -12.4667   18.1842 C   0  0  0  0  0  0
  -28.0018  -12.2828   18.6174 C   0  0  0  0  0  0
  -27.6421  -13.1410   19.8473 C   0  0  2  0  0  0
  -28.7149  -13.0086   20.9679 C   0  0  0  0  0  0
  -25.2597  -13.7981   20.5562 C   0  0  0  0  0  0
  -24.1837  -13.0379   20.9188 C   0  0  0  0  0  0
  -24.6300  -11.6812   20.8802 C   0  0  0  0  0  0
  -23.8955  -10.4257   21.0473 C   0  0  0  0  0  0
  -24.3526   -9.4183   21.9250 C   0  0  0  0  0  0
  -23.6204   -8.2214   22.0803 C   0  0  0  0  0  0
  -22.4216   -8.0253   21.3567 C   0  0  0  0  0  0
  -21.9841   -9.0220   20.4664 C   0  0  0  0  0  0
  -22.7152  -10.2101   20.3074 C   0  0  0  0  0  0
  -21.6825   -6.0725   22.5302 C   0  0  0  0  0  0
  -21.4005   -6.5661   23.8244 C   0  0  0  0  0  0
  -21.3608   -5.6818   24.9194 C   0  0  0  0  0  0
  -21.6023   -4.3084   24.7260 C   0  0  0  0  0  0
  -21.8833   -3.8149   23.4385 C   0  0  0  0  0  0
  -21.9198   -4.6944   22.3438 C   0  0  0  0  0  0
  -22.7879  -13.5227   21.1862 C   0  0  0  0  0  0
  -22.1704   -4.2139   21.1013 F   0  0  0  0  0  0
  -21.5582   -3.4563   25.7774 F   0  0  0  0  0  0
  -30.0396  -13.3009   20.3921 N   0  0  0  0  0  0
  -26.2925  -12.8961   20.3311 N   0  0  0  0  0  0
  -25.9186  -11.6240   20.5880 N   0  0  0  0  0  0
  -22.0501  -12.8217   22.0353 N   0  0  0  0  0  0
  -25.4419  -15.1657   20.3763 N   0  0  0  0  0  0
  -31.9308  -14.5510   20.1657 O   0  0  0  0  0  0
  -21.6571   -6.8843   21.4256 O   0  0  0  0  0  0
  -22.3631  -14.5593   20.6751 O   0  0  0  0  0  0
  -24.6170  -31.8669   23.2107 C   0  0  0  0  0  0
  -25.9073  -32.4800   23.8382 C   0  0  1  0  0  0
  -27.2051  -27.4515   20.0331 C   0  0  0  0  0  0
  -25.5942  -33.8611   24.2310 N   0  0  0  0  0  0
  -23.3964  -30.5024   21.5567 C   0  0  2  0  0  0
  -24.8250  -28.9693   20.1172 C   0  0  0  0  0  0
  -22.7393  -29.4696   22.4981 C   0  0  0  0  0  0
  -18.0252  -28.1415   22.8483 C   0  0  0  0  0  0
  -24.1505  -36.7325   23.2627 C   0  0  0  0  0  0
  -25.9276  -30.8383   21.3525 C   0  0  0  0  0  0
  -25.9961  -29.4754   20.6944 C   0  0  0  0  0  0
  -27.1923  -28.7244   20.6489 C   0  0  0  0  0  0
  -25.9942  -26.9353   19.5134 C   0  0  0  0  0  0
  -24.8141  -27.6919   19.5399 C   0  0  0  0  0  0
  -23.5979  -29.8490   20.1682 C   0  0  0  0  0  0
  -25.4122  -36.3094   24.0321 C   0  0  1  0  0  0
  -20.5847  -28.3709   23.1310 C   0  0  2  0  0  0
  -20.6768  -26.9444   22.5417 C   0  0  0  0  0  0
  -19.5734  -26.6401   21.5233 C   0  0  0  0  0  0
  -18.1908  -26.7953   22.1640 C   0  0  0  0  0  0
  -19.1503  -28.8862   23.2895 C   0  0  0  0  0  0
  -18.9451  -30.1468   23.8896 C   0  0  0  0  0  0
  -17.6461  -30.6600   24.0585 C   0  0  0  0  0  0
  -25.9067  -34.9465   23.5107 C   0  0  0  0  0  0
  -16.5342  -29.9131   23.6306 C   0  0  0  0  0  0
  -16.7248  -28.6557   23.0304 C   0  0  0  0  0  0
  -26.4500  -31.6535   25.0667 C   0  0  0  0  0  0
  -25.3847  -31.3519   26.1452 C   0  0  0  0  0  0
  -27.0316  -30.3003   24.5928 C   0  0  0  0  0  0
  -27.5972  -32.4292   25.7527 C   0  0  0  0  0  0
  -27.5571  -37.1847   24.8449 C   0  0  0  0  0  0
  -21.4127  -29.3074   22.3716 N   0  0  0  0  0  0
  -26.4271  -37.3800   23.9419 N   0  0  0  0  0  0
  -24.6658  -31.0827   22.0978 N   0  0  0  0  0  0
  -23.4171  -28.8190   23.2980 O   0  0  0  0  0  0
  -28.3859  -26.7461   19.9736 O   0  0  0  0  0  0
  -26.5623  -34.8910   22.4667 O   0  0  0  0  0  0
  -23.5367  -32.1422   23.7519 O   0  0  0  0  0  0
  -28.2042  -23.4764   19.7070 C   0  0  0  0  0  0
  -28.7106  -22.2161   20.0712 C   0  0  0  0  0  0
  -30.4799  -24.2717   19.3736 C   0  0  0  0  0  0
  -29.0952  -24.5008   19.3223 C   0  0  0  0  0  0
  -30.1027  -21.9571   20.0586 C   0  0  0  0  0  0
  -30.9968  -23.0249   19.7738 C   0  0  0  0  0  0
  -28.8542  -17.5495   20.2015 C   0  0  0  0  0  0
  -31.2474  -17.7873   20.9994 C   0  0  0  0  0  0
  -28.9203  -16.0376   20.4101 C   0  0  0  0  0  0
  -30.8693  -16.5459   21.8412 C   0  0  0  0  0  0
  -30.2411  -18.0933   19.8520 C   0  0  0  0  0  0
  -32.5017  -22.9291   19.9680 C   0  0  0  0  0  0
  -30.5768  -20.5410   20.3798 C   0  0  0  0  0  0
  -28.5885  -25.8549   18.8670 C   0  0  0  0  0  0
  -29.5630  -18.9996   16.9666 C   0  0  0  0  0  0
  -29.9493  -19.2101   15.4802 C   0  0  0  0  0  0
  -30.4888  -19.7322   17.9799 C   0  0  0  0  0  0
  -30.1336  -15.5253   21.0773 N   0  0  0  0  0  0
  -31.0073  -18.2936   15.0103 N   0  3  0  0  0  0
  -30.0974  -19.5154   19.4079 N   0  3  1  0  0  0
  -31.4574  -12.4180   19.0494 H   0  0  0  0  0  0
  -30.3548  -11.2928   19.8007 H   0  0  0  0  0  0
  -29.7197  -11.7451   17.4036 H   0  0  0  0  0  0
  -29.6032  -13.4586   17.7387 H   0  0  0  0  0  0
  -27.8531  -11.2245   18.8459 H   0  0  0  0  0  0
  -27.3278  -12.5068   17.7919 H   0  0  0  0  0  0
  -27.6018  -14.1362   19.4367 H   0  0  0  0  0  0
  -28.7217  -11.9920   21.3682 H   0  0  0  0  0  0
  -28.4817  -13.6515   21.8213 H   0  0  0  0  0  0
  -25.2708   -9.5654   22.4775 H   0  0  0  0  0  0
  -23.9962   -7.4588   22.7475 H   0  0  0  0  0  0
  -21.0828   -8.8673   19.8916 H   0  0  0  0  0  0
  -22.3650  -10.9610   19.6134 H   0  0  0  0  0  0
  -21.2028   -7.6168   23.9732 H   0  0  0  0  0  0
  -21.1400   -6.0551   25.9078 H   0  0  0  0  0  0
  -22.0645   -2.7623   23.2902 H   0  0  0  0  0  0
  -22.4097  -11.9795   22.4592 H   0  0  0  0  0  0
  -21.1126  -13.1229   22.2564 H   0  0  0  0  0  0
  -24.6731  -15.8266   20.4074 H   0  0  0  0  0  0
  -26.2855  -15.5642   19.9890 H   0  0  0  0  0  0
  -26.7114  -32.5511   23.1123 H   0  0  0  0  0  0
  -25.0138  -33.9753   25.0490 H   0  0  0  0  0  0
  -22.6879  -31.3216   21.4284 H   0  0  0  0  0  0
  -23.3742  -35.9673   23.3232 H   0  0  0  0  0  0
  -24.3614  -36.9005   22.2052 H   0  0  0  0  0  0
  -23.7266  -37.6514   23.6709 H   0  0  0  0  0  0
  -26.0427  -31.6037   20.5816 H   0  0  0  0  0  0
  -26.8193  -30.8821   21.9673 H   0  0  0  0  0  0
  -28.1086  -29.1273   21.0611 H   0  0  0  0  0  0
  -25.9252  -25.9427   19.0976 H   0  0  0  0  0  0
  -23.9031  -27.2842   19.1240 H   0  0  0  0  0  0
  -23.7293  -30.6354   19.4234 H   0  0  0  0  0  0
  -22.7113  -29.2956   19.8533 H   0  0  0  0  0  0
  -25.1286  -36.1933   25.0812 H   0  0  0  0  0  0
  -20.9931  -28.3298   24.1444 H   0  0  0  0  0  0
  -20.5759  -26.2314   23.3607 H   0  0  0  0  0  0
  -21.6635  -26.7547   22.1169 H   0  0  0  0  0  0
  -19.6916  -25.6320   21.1248 H   0  0  0  0  0  0
  -19.6657  -27.3213   20.6763 H   0  0  0  0  0  0
  -17.4195  -26.6671   21.4029 H   0  0  0  0  0  0
  -18.0293  -26.0099   22.9040 H   0  0  0  0  0  0
  -19.7934  -30.7272   24.2265 H   0  0  0  0  0  0
  -17.5034  -31.6278   24.5217 H   0  0  0  0  0  0
  -15.5356  -30.3080   23.7607 H   0  0  0  0  0  0
  -15.8640  -28.0927   22.6971 H   0  0  0  0  0  0
  -24.6053  -30.6802   25.7831 H   0  0  0  0  0  0
  -24.9043  -32.2623   26.5040 H   0  0  0  0  0  0
  -25.8348  -30.8654   27.0127 H   0  0  0  0  0  0
  -26.2797  -29.6772   24.1064 H   0  0  0  0  0  0
  -27.4214  -29.7158   25.4269 H   0  0  0  0  0  0
  -27.8580  -30.4300   23.8935 H   0  0  0  0  0  0
  -27.2439  -33.3554   26.2073 H   0  0  0  0  0  0
  -28.3866  -32.6915   25.0475 H   0  0  0  0  0  0
  -28.0560  -31.8477   26.5536 H   0  0  0  0  0  0
  -28.2503  -38.0217   24.7564 H   0  0  0  0  0  0
  -28.1147  -36.2748   24.6209 H   0  0  0  0  0  0
  -27.2303  -37.1395   25.8843 H   0  0  0  0  0  0
  -20.9264  -29.8880   21.7029 H   0  0  0  0  0  0
  -26.0119  -38.2847   24.1467 H   0  0  0  0  0  0
  -27.1344  -23.6485   19.7150 H   0  0  0  0  0  0
  -28.0171  -21.4386   20.3628 H   0  0  0  0  0  0
  -31.1484  -25.0839   19.1173 H   0  0  0  0  0  0
  -28.4483  -18.0489   21.0817 H   0  0  0  0  0  0
  -28.1503  -17.7391   19.3849 H   0  0  0  0  0  0
  -32.2424  -17.6573   20.5688 H   0  0  0  0  0  0
  -31.3588  -18.5871   21.7268 H   0  0  0  0  0  0
  -28.9113  -15.6341   19.3974 H   0  0  0  0  0  0
  -28.0337  -15.7048   20.9504 H   0  0  0  0  0  0
  -30.2253  -16.8557   22.6648 H   0  0  0  0  0  0
  -31.7654  -16.1361   22.3115 H   0  0  0  0  0  0
  -30.6013  -17.5072   19.0044 H   0  0  0  0  0  0
  -32.7346  -23.1958   21.0035 H   0  0  0  0  0  0
  -33.0153  -23.6446   19.3241 H   0  0  0  0  0  0
  -32.9260  -21.9516   19.7521 H   0  0  0  0  0  0
  -30.1728  -20.3234   21.3718 H   0  0  0  0  0  0
  -31.6564  -20.4635   20.4721 H   0  0  0  0  0  0
  -27.7491  -25.6991   18.1921 H   0  0  0  0  0  0
  -29.3414  -26.3129   18.2246 H   0  0  0  0  0  0
  -29.4852  -17.9269   17.1591 H   0  0  0  0  0  0
  -28.5554  -19.3872   17.1070 H   0  0  0  0  0  0
  -30.2554  -20.2396   15.3078 H   0  0  0  0  0  0
  -29.0754  -19.0510   14.8484 H   0  0  0  0  0  0
  -30.4396  -20.7965   17.7496 H   0  0  0  0  0  0
  -31.5305  -19.4362   17.8367 H   0  0  0  0  0  0
  -31.8238  -18.3296   15.5887 H   0  0  0  0  0  0
  -31.2832  -18.5516   14.0789 H   0  0  0  0  0  0
  -30.6874  -17.3433   14.9658 H   0  0  0  0  0  0
  -29.1003  -19.6570   19.4175 H   0  0  0  0  0  0
  1 25  1  0  0  0
  1 30  2  0  0  0
  1 88  1  0  0  0
  2  3  1  0  0  0
  2 25  1  0  0  0
  2 91  1  0  0  0
  2 92  1  0  0  0
  3  4  1  0  0  0
  3 93  1  0  0  0
  3 94  1  0  0  0
  4  5  1  0  0  0
  4 95  1  0  0  0
  4 96  1  0  0  0
  5  6  1  0  0  0
  5 26  1  0  0  0
  5 97  1  0  0  0
  6 25  1  0  0  0
  6 98  1  0  0  0
  6 99  1  0  0  0
  7  8  2  0  0  0
  7 26  1  0  0  0
  7 29  1  0  0  0
  8  9  1  0  0  0
  8 22  1  0  0  0
  9 10  1  0  0  0
  9 27  2  0  0  0
 10 11  2  0  0  0
 10 15  1  0  0  0
 11 12  1  0  0  0
 11100  1  0  0  0
 12 13  2  0  0  0
 12101  1  0  0  0
 13 14  1  0  0  0
 13 31  1  0  0  0
 14 15  2  0  0  0
 14102  1  0  0  0
 15103  1  0  0  0
 16 17  2  0  0  0
 16 21  1  0  0  0
 16 31  1  0  0  0
 17 18  1  0  0  0
 17104  1  0  0  0
 18 19  2  0  0  0
 18105  1  0  0  0
 19 20  1  0  0  0
 19 24  1  0  0  0
 20 21  2  0  0  0
 20106  1  0  0  0
 21 23  1  0  0  0
 22 28  1  0  0  0
 22 32  2  0  0  0
 26 27  1  0  0  0
 28107  1  0  0  0
 28108  1  0  0  0
 29109  1  0  0  0
 29110  1  0  0  0
 33 34  1  0  0  0
 33 66  1  0  0  0
 33 70  2  0  0  0
 34 36  1  0  0  0
 34 59  1  0  0  0
 34111  1  0  0  0
 35 44  2  0  0  0
 35 45  1  0  0  0
 35 68  1  0  0  0
 36 56  1  0  0  0
 36112  1  0  0  0
 37 39  1  0  0  0
 37 47  1  0  0  0
 37 66  1  0  0  0
 37113  1  0  0  0
 38 43  2  0  0  0
 38 46  1  0  0  0
 38 47  1  0  0  0
 39 64  1  0  0  0
 39 67  2  0  0  0
 40 52  1  0  0  0
 40 53  2  0  0  0
 40 58  1  0  0  0
 41114  1  0  0  0
 41115  1  0  0  0
 41116  1  0  0  0
 41 48  1  0  0  0
 42 43  1  0  0  0
 42 66  1  0  0  0
 42117  1  0  0  0
 42118  1  0  0  0
 43 44  1  0  0  0
 44119  1  0  0  0
 45 46  2  0  0  0
 45120  1  0  0  0
 46121  1  0  0  0
 47122  1  0  0  0
 47123  1  0  0  0
 48 56  1  0  0  0
 48 65  1  0  0  0
 48124  1  0  0  0
 49 50  1  0  0  0
 49 53  1  0  0  0
 49 64  1  0  0  0
 49125  1  0  0  0
 50 51  1  0  0  0
 50126  1  0  0  0
 50127  1  0  0  0
 51 52  1  0  0  0
 51128  1  0  0  0
 51129  1  0  0  0
 52130  1  0  0  0
 52131  1  0  0  0
 53 54  1  0  0  0
 54 55  2  0  0  0
 54132  1  0  0  0
 55 57  1  0  0  0
 55133  1  0  0  0
 56 69  2  0  0  0
 57 58  2  0  0  0
 57134  1  0  0  0
 58135  1  0  0  0
 59 60  1  0  0  0
 59 61  1  0  0  0
 59 62  1  0  0  0
 60136  1  0  0  0
 60137  1  0  0  0
 60138  1  0  0  0
 61139  1  0  0  0
 61140  1  0  0  0
 61141  1  0  0  0
 62142  1  0  0  0
 62143  1  0  0  0
 62144  1  0  0  0
 63 65  1  0  0  0
 63145  1  0  0  0
 63146  1  0  0  0
 63147  1  0  0  0
 64148  1  0  0  0
 65149  1  0  0  0
 68 84  1  0  0  0
 71 72  2  0  0  0
 71 74  1  0  0  0
 71150  1  0  0  0
 72 75  1  0  0  0
 72151  1  0  0  0
 73 74  2  0  0  0
 73 76  1  0  0  0
 73152  1  0  0  0
 74 84  1  0  0  0
 75 76  2  0  0  0
 75 83  1  0  0  0
 76 82  1  0  0  0
 77 79  1  0  0  0
 77153  1  0  0  0
 77154  1  0  0  0
 77 81  1  0  0  0
 78 80  1  0  0  0
 78 81  1  0  0  0
 78155  1  0  0  0
 78156  1  0  0  0
 79 88  1  0  0  0
 79157  1  0  0  0
 79158  1  0  0  0
 80 88  1  0  0  0
 80159  1  0  0  0
 80160  1  0  0  0
 81 90  1  0  0  0
 81161  1  0  0  0
 82162  1  0  0  0
 82163  1  0  0  0
 82164  1  0  0  0
 83165  1  0  0  0
 83166  1  0  0  0
 83 90  1  0  0  0
 84167  1  0  0  0
 84168  1  0  0  0
 85 86  1  0  0  0
 85 87  1  0  0  0
 85169  1  0  0  0
 85170  1  0  0  0
 86 89  1  0  0  0
 86171  1  0  0  0
 86172  1  0  0  0
 87 90  1  0  0  0
 87173  1  0  0  0
 87174  1  0  0  0
 89175  1  0  0  0
 89176  1  0  0  0
 89177  1  0  0  0
 90178  1  0  0  0
M  CHG  2  89   1  90   1
M  ISO  4   1 100  68 101  84 101  88 100
M  END
> <chiral flag>
0

> <version>
0

> <s_m_source_file>
/data/baiqing/PycharmProjects/Reinvent-master-3.2/result/LINK_invent/BTK/process_docking_weight1_custom_sum_contain_oxygen_bond_distance_aromatic_linkinvent_7_9_3/rearranged_h_0119.sdf

> <i_m_source_file_index>
45

> <r_mmod_Potential_Energy-OPLS-2005>
-59.3644142150879

> <r_mmod_Stretch_Energy-OPLS-2005>
41.1611518859863

> <r_mmod_Bend_Energy-OPLS-2005>
132.682342529297

> <r_mmod_Torsional_Energy-OPLS-2005>
362.585968017578

> <r_mmod_Improper_Torsional_Energy-OPLS-2005>
4.88590669631958

> <r_mmod_Van_der_Waal_Energy-OPLS-2005>
187.005065917969

> <r_mmod_Electrostatic_Energy-OPLS-2005>
184.586349487305

> <r_mmod_Solvation_Energy-OPLS-2005>
-993.730834960938

> <b_mmod_Minimization_Converged-OPLS-2005>
0

> <r_mmod_RMS_Derivative-OPLS-2005>
7.02402400970459

$$$$
45
                    3D
 Structure written by MMmdl.
177186  0  0  1  0            999 V2000
  -30.7535  -14.4044   20.5668 C   0  0  0  0  0  0
  -30.3961  -12.2742   19.4079 C   0  0  0  0  0  0
  -29.4847  -12.5064   18.1895 C   0  0  0  0  0  0
  -28.0031  -12.3819   18.5974 C   0  0  0  0  0  0
  -27.6516  -13.2168   19.8608 C   0  0  2  0  0  0
  -28.6926  -13.0050   20.9799 C   0  0  0  0  0  0
  -25.2540  -13.8203   20.5685 C   0  0  0  0  0  0
  -24.1814  -13.0436   20.9211 C   0  0  0  0  0  0
  -24.6386  -11.6919   20.8759 C   0  0  0  0  0  0
  -23.9061  -10.4291   21.0416 C   0  0  0  0  0  0
  -24.3615   -9.4208   21.9189 C   0  0  0  0  0  0
  -23.6298   -8.2237   22.0740 C   0  0  0  0  0  0
  -22.4287   -8.0269   21.3525 C   0  0  0  0  0  0
  -21.9916   -9.0246   20.4637 C   0  0  0  0  0  0
  -22.7234  -10.2134   20.3056 C   0  0  0  0  0  0
  -21.6864   -6.0727   22.5285 C   0  0  0  0  0  0
  -21.4008   -6.5622   23.8220 C   0  0  0  0  0  0
  -21.3675   -5.6774   24.9179 C   0  0  0  0  0  0
  -21.6046   -4.3039   24.7227 C   0  0  0  0  0  0
  -21.8816   -3.8126   23.4350 C   0  0  0  0  0  0
  -21.9189   -4.6948   22.3408 C   0  0  0  0  0  0
  -22.7825  -13.5213   21.1874 C   0  0  0  0  0  0
  -22.1655   -4.2138   21.0985 F   0  0  0  0  0  0
  -21.5642   -3.4520   25.7740 F   0  0  0  0  0  0
  -30.0223  -13.2732   20.4163 N   0  0  0  0  0  0
  -26.2961  -12.9386   20.3282 N   0  0  0  0  0  0
  -25.9305  -11.6538   20.5735 N   0  0  0  0  0  0
  -22.0450  -12.8239   22.0460 N   0  0  0  0  0  0
  -25.4214  -15.1931   20.4123 N   0  0  0  0  0  0
  -31.9202  -14.4938   20.1926 O   0  0  0  0  0  0
  -21.6634   -6.8880   21.4252 O   0  0  0  0  0  0
  -22.3519  -14.5510   20.6718 O   0  0  0  0  0  0
  -24.6021  -31.8684   23.2123 C   0  0  0  0  0  0
  -25.8953  -32.4821   23.8377 C   0  0  1  0  0  0
  -27.2550  -27.4977   20.0990 C   0  0  0  0  0  0
  -25.5833  -33.8624   24.2317 N   0  0  0  0  0  0
  -23.3853  -30.4892   21.5512 C   0  0  2  0  0  0
  -24.8357  -28.9465   20.1270 C   0  0  0  0  0  0
  -22.7324  -29.4643   22.5038 C   0  0  0  0  0  0
  -18.0251  -28.1347   22.8514 C   0  0  0  0  0  0
  -24.1478  -36.7326   23.2642 C   0  0  0  0  0  0
  -25.9016  -30.8538   21.3494 C   0  0  0  0  0  0
  -25.9818  -29.4860   20.7151 C   0  0  0  0  0  0
  -27.1883  -28.7691   20.6984 C   0  0  0  0  0  0
  -26.0909  -26.9387   19.5248 C   0  0  0  0  0  0
  -24.8812  -27.6677   19.5313 C   0  0  0  0  0  0
  -23.5915  -29.8066   20.1684 C   0  0  0  0  0  0
  -25.4104  -36.3137   24.0343 C   0  0  1  0  0  0
  -20.5836  -28.3594   23.1362 C   0  0  2  0  0  0
  -20.6746  -26.9339   22.5424 C   0  0  0  0  0  0
  -19.5731  -26.6369   21.5206 C   0  0  0  0  0  0
  -18.1908  -26.7914   22.1618 C   0  0  0  0  0  0
  -19.1516  -28.8793   23.2938 C   0  0  0  0  0  0
  -18.9444  -30.1422   23.8907 C   0  0  0  0  0  0
  -17.6449  -30.6558   24.0574 C   0  0  0  0  0  0
  -25.9003  -34.9490   23.5127 C   0  0  0  0  0  0
  -16.5330  -29.9056   23.6327 C   0  0  0  0  0  0
  -16.7257  -28.6482   23.0334 C   0  0  0  0  0  0
  -26.4448  -31.6577   25.0662 C   0  0  0  0  0  0
  -25.3782  -31.3624   26.1451 C   0  0  0  0  0  0
  -27.0266  -30.3047   24.5919 C   0  0  0  0  0  0
  -27.6028  -32.4291   25.7414 C   0  0  0  0  0  0
  -27.5592  -37.1817   24.8471 C   0  0  0  0  0  0
  -21.4070  -29.2985   22.3794 N   0  0  0  0  0  0
  -26.4308  -37.3810   23.9407 N   0  0  0  0  0  0
  -24.6484  -31.0843   22.0988 N   0  0  0  0  0  0
  -23.4140  -28.8189   23.3053 O   0  0  0  0  0  0
  -28.5075  -26.9428   20.0504 O   0  0  0  0  0  0
  -26.5581  -34.8937   22.4698 O   0  0  0  0  0  0
  -23.5250  -32.1418   23.7569 O   0  0  0  0  0  0
  -30.3219  -20.4465   19.0947 C   0  0  0  0  0  0
  -30.5429  -19.3086   18.3040 C   0  0  0  0  0  0
  -30.6441  -18.0439   18.9434 C   0  0  0  0  0  0
  -30.1977  -20.3089   20.4853 C   0  0  0  0  0  0
  -30.4691  -17.9842   20.3600 C   0  0  0  0  0  0
  -30.4190  -22.5538   23.6829 C   0  0  0  0  0  0
  -30.2131  -21.2500   22.8949 C   0  0  0  0  0  0
  -29.3608  -23.6086   23.3094 C   0  0  0  0  0  0
  -29.1263  -22.5899   21.0700 C   0  0  0  0  0  0
  -30.2329  -21.5547   21.3816 C   0  0  2  0  0  0
  -30.7513  -19.5019   16.8038 C   0  0  0  0  0  0
  -32.5811  -16.6643   18.1114 C   0  0  0  0  0  0
  -30.2411  -25.5388   19.6411 C   0  0  0  0  0  0
  -31.0561  -16.8334   18.1195 C   0  0  0  0  0  0
  -30.7571  -16.7701   21.2623 C   0  0  0  0  0  0
  -28.4469  -24.9725   21.4377 C   0  0  0  0  0  0
  -28.7479  -25.5494   20.0277 C   0  0  1  0  0  0
  -30.2237  -19.0981   21.0830 N   0  0  0  0  0  0
  -30.0931  -15.4924   20.9823 N   0  0  0  0  0  0
  -29.3407  -23.8487   21.8398 N   0  3  1  0  0  0
  -31.4436  -12.3428   19.1107 H   0  0  0  0  0  0
  -30.2600  -11.2667   19.8091 H   0  0  0  0  0  0
  -29.7223  -11.7922   17.4013 H   0  0  0  0  0  0
  -29.6742  -13.4968   17.7704 H   0  0  0  0  0  0
  -27.8029  -11.3270   18.7901 H   0  0  0  0  0  0
  -27.3594  -12.6679   17.7646 H   0  0  0  0  0  0
  -27.6940  -14.2647   19.5669 H   0  0  0  0  0  0
  -28.6557  -11.9755   21.3362 H   0  0  0  0  0  0
  -28.4735  -13.6343   21.8442 H   0  0  0  0  0  0
  -25.2759   -9.5695   22.4767 H   0  0  0  0  0  0
  -24.0012   -7.4636   22.7456 H   0  0  0  0  0  0
  -21.0831   -8.8750   19.8976 H   0  0  0  0  0  0
  -22.3666  -10.9661   19.6162 H   0  0  0  0  0  0
  -21.1993   -7.6128   23.9730 H   0  0  0  0  0  0
  -21.1515   -6.0495   25.9093 H   0  0  0  0  0  0
  -22.0597   -2.7588   23.2845 H   0  0  0  0  0  0
  -22.3988  -11.9872   22.4855 H   0  0  0  0  0  0
  -21.1069  -13.1310   22.2645 H   0  0  0  0  0  0
  -24.6478  -15.8426   20.5043 H   0  0  0  0  0  0
  -26.2703  -15.6414   20.0936 H   0  0  0  0  0  0
  -26.7012  -32.5545   23.1135 H   0  0  0  0  0  0
  -25.0034  -33.9826   25.0493 H   0  0  0  0  0  0
  -22.6703  -31.3025   21.4101 H   0  0  0  0  0  0
  -23.3757  -35.9644   23.3320 H   0  0  0  0  0  0
  -24.3574  -36.8916   22.2059 H   0  0  0  0  0  0
  -23.7217  -37.6529   23.6633 H   0  0  0  0  0  0
  -25.9869  -31.6088   20.5669 H   0  0  0  0  0  0
  -26.8002  -30.9242   21.9484 H   0  0  0  0  0  0
  -28.0770  -29.2033   21.1332 H   0  0  0  0  0  0
  -26.1167  -25.9756   19.0370 H   0  0  0  0  0  0
  -24.0018  -27.2474   19.0626 H   0  0  0  0  0  0
  -23.6889  -30.5722   19.3973 H   0  0  0  0  0  0
  -22.7201  -29.2165   19.8855 H   0  0  0  0  0  0
  -25.1295  -36.2023   25.0845 H   0  0  0  0  0  0
  -20.9946  -28.3131   24.1474 H   0  0  0  0  0  0
  -20.5600  -26.2196   23.3594 H   0  0  0  0  0  0
  -21.6628  -26.7351   22.1247 H   0  0  0  0  0  0
  -19.6852  -25.6288   21.1207 H   0  0  0  0  0  0
  -19.6684  -27.3224   20.6779 H   0  0  0  0  0  0
  -17.4186  -26.6685   21.4012 H   0  0  0  0  0  0
  -18.0282  -26.0024   22.8988 H   0  0  0  0  0  0
  -19.7915  -30.7268   24.2234 H   0  0  0  0  0  0
  -17.4984  -31.6240   24.5185 H   0  0  0  0  0  0
  -15.5332  -30.2955   23.7641 H   0  0  0  0  0  0
  -15.8662  -28.0817   22.6995 H   0  0  0  0  0  0
  -24.5942  -30.6953   25.7827 H   0  0  0  0  0  0
  -24.8989  -32.2767   26.4964 H   0  0  0  0  0  0
  -25.8228  -30.8773   27.0147 H   0  0  0  0  0  0
  -26.2746  -29.6790   24.1087 H   0  0  0  0  0  0
  -27.4235  -29.7272   25.4278 H   0  0  0  0  0  0
  -27.8483  -30.4429   23.8886 H   0  0  0  0  0  0
  -27.2627  -33.3567   26.2024 H   0  0  0  0  0  0
  -28.3825  -32.6880   25.0240 H   0  0  0  0  0  0
  -28.0693  -31.8381   26.5304 H   0  0  0  0  0  0
  -28.2642  -38.0092   24.7537 H   0  0  0  0  0  0
  -28.1065  -36.2638   24.6294 H   0  0  0  0  0  0
  -27.2296  -37.1464   25.8868 H   0  0  0  0  0  0
  -20.9163  -29.8754   21.7108 H   0  0  0  0  0  0
  -26.0208  -38.2881   24.1427 H   0  0  0  0  0  0
  -30.3277  -21.4271   18.6409 H   0  0  0  0  0  0
  -31.4138  -22.9522   23.4755 H   0  0  0  0  0  0
  -30.3871  -22.3550   24.7540 H   0  0  0  0  0  0
  -29.2670  -20.7828   23.1740 H   0  0  0  0  0  0
  -31.0001  -20.5380   23.1524 H   0  0  0  0  0  0
  -29.5948  -24.5321   23.8402 H   0  0  0  0  0  0
  -28.3768  -23.2895   23.6565 H   0  0  0  0  0  0
  -28.1450  -22.1787   21.3007 H   0  0  0  0  0  0
  -29.1240  -22.8115   20.0054 H   0  0  0  0  0  0
  -31.1964  -22.0172   21.1591 H   0  0  0  0  0  0
  -30.9418  -20.5498   16.5643 H   0  0  0  0  0  0
  -29.8672  -19.1888   16.2469 H   0  0  0  0  0  0
  -31.6065  -18.9360   16.4334 H   0  0  0  0  0  0
  -33.0760  -17.4931   17.6040 H   0  0  0  0  0  0
  -32.8572  -15.7464   17.5948 H   0  0  0  0  0  0
  -32.9854  -16.6087   19.1229 H   0  0  0  0  0  0
  -30.6994  -24.5521   19.6461 H   0  0  0  0  0  0
  -30.8186  -26.1751   20.3120 H   0  0  0  0  0  0
  -30.3707  -25.9437   18.6352 H   0  0  0  0  0  0
  -30.7002  -16.9320   17.0947 H   0  0  0  0  0  0
  -30.5561  -15.9324   18.4564 H   0  0  0  0  0  0
  -30.4872  -17.0152   22.2912 H   0  0  0  0  0  0
  -31.8409  -16.6538   21.2956 H   0  0  0  0  0  0
  -27.3990  -24.6742   21.5011 H   0  0  0  0  0  0
  -28.5700  -25.7762   22.1669 H   0  0  0  0  0  0
  -28.1696  -25.0441   19.2549 H   0  0  0  0  0  0
  -29.1142  -15.4164   21.2019 H   0  0  0  0  0  0
  -30.2728  -24.1652   21.6132 H   0  0  0  0  0  0
  1 25  1  0  0  0
  1 30  2  0  0  0
  1 89  1  0  0  0
  2  3  1  0  0  0
  2 25  1  0  0  0
  2 91  1  0  0  0
  2 92  1  0  0  0
  3  4  1  0  0  0
  3 93  1  0  0  0
  3 94  1  0  0  0
  4  5  1  0  0  0
  4 95  1  0  0  0
  4 96  1  0  0  0
  5  6  1  0  0  0
  5 26  1  0  0  0
  5 97  1  0  0  0
  6 25  1  0  0  0
  6 98  1  0  0  0
  6 99  1  0  0  0
  7  8  2  0  0  0
  7 26  1  0  0  0
  7 29  1  0  0  0
  8  9  1  0  0  0
  8 22  1  0  0  0
  9 10  1  0  0  0
  9 27  2  0  0  0
 10 11  2  0  0  0
 10 15  1  0  0  0
 11 12  1  0  0  0
 11100  1  0  0  0
 12 13  2  0  0  0
 12101  1  0  0  0
 13 14  1  0  0  0
 13 31  1  0  0  0
 14 15  2  0  0  0
 14102  1  0  0  0
 15103  1  0  0  0
 16 17  2  0  0  0
 16 21  1  0  0  0
 16 31  1  0  0  0
 17 18  1  0  0  0
 17104  1  0  0  0
 18 19  2  0  0  0
 18105  1  0  0  0
 19 20  1  0  0  0
 19 24  1  0  0  0
 20 21  2  0  0  0
 20106  1  0  0  0
 21 23  1  0  0  0
 22 28  1  0  0  0
 22 32  2  0  0  0
 26 27  1  0  0  0
 28107  1  0  0  0
 28108  1  0  0  0
 29109  1  0  0  0
 29110  1  0  0  0
 33 34  1  0  0  0
 33 66  1  0  0  0
 33 70  2  0  0  0
 34 36  1  0  0  0
 34 59  1  0  0  0
 34111  1  0  0  0
 35 44  2  0  0  0
 35 45  1  0  0  0
 35 68  1  0  0  0
 36 56  1  0  0  0
 36112  1  0  0  0
 37 39  1  0  0  0
 37 47  1  0  0  0
 37 66  1  0  0  0
 37113  1  0  0  0
 38 43  2  0  0  0
 38 46  1  0  0  0
 38 47  1  0  0  0
 39 64  1  0  0  0
 39 67  2  0  0  0
 40 52  1  0  0  0
 40 53  2  0  0  0
 40 58  1  0  0  0
 41114  1  0  0  0
 41115  1  0  0  0
 41116  1  0  0  0
 41 48  1  0  0  0
 42 43  1  0  0  0
 42 66  1  0  0  0
 42117  1  0  0  0
 42118  1  0  0  0
 43 44  1  0  0  0
 44119  1  0  0  0
 45 46  2  0  0  0
 45120  1  0  0  0
 46121  1  0  0  0
 47122  1  0  0  0
 47123  1  0  0  0
 48 56  1  0  0  0
 48 65  1  0  0  0
 48124  1  0  0  0
 49 50  1  0  0  0
 49 53  1  0  0  0
 49 64  1  0  0  0
 49125  1  0  0  0
 50 51  1  0  0  0
 50126  1  0  0  0
 50127  1  0  0  0
 51 52  1  0  0  0
 51128  1  0  0  0
 51129  1  0  0  0
 52130  1  0  0  0
 52131  1  0  0  0
 53 54  1  0  0  0
 54 55  2  0  0  0
 54132  1  0  0  0
 55 57  1  0  0  0
 55133  1  0  0  0
 56 69  2  0  0  0
 57 58  2  0  0  0
 57134  1  0  0  0
 58135  1  0  0  0
 59 60  1  0  0  0
 59 61  1  0  0  0
 59 62  1  0  0  0
 60136  1  0  0  0
 60137  1  0  0  0
 60138  1  0  0  0
 61139  1  0  0  0
 61140  1  0  0  0
 61141  1  0  0  0
 62142  1  0  0  0
 62143  1  0  0  0
 62144  1  0  0  0
 63 65  1  0  0  0
 63145  1  0  0  0
 63146  1  0  0  0
 63147  1  0  0  0
 64148  1  0  0  0
 65149  1  0  0  0
 68 87  1  0  0  0
 71 72  2  0  0  0
 71 74  1  0  0  0
 71150  1  0  0  0
 72 73  1  0  0  0
 72 81  1  0  0  0
 73 75  2  0  0  0
 73 84  1  0  0  0
 74 88  2  0  0  0
 74 80  1  0  0  0
 75 85  1  0  0  0
 75 88  1  0  0  0
 76 77  1  0  0  0
 76 78  1  0  0  0
 76151  1  0  0  0
 76152  1  0  0  0
 77 80  1  0  0  0
 77153  1  0  0  0
 77154  1  0  0  0
 78 90  1  0  0  0
 78155  1  0  0  0
 78156  1  0  0  0
 79 80  1  0  0  0
 79 90  1  0  0  0
 79157  1  0  0  0
 79158  1  0  0  0
 80159  1  0  0  0
 81160  1  0  0  0
 81161  1  0  0  0
 81162  1  0  0  0
 82 84  1  0  0  0
 82163  1  0  0  0
 82164  1  0  0  0
 82165  1  0  0  0
 83166  1  0  0  0
 83167  1  0  0  0
 83168  1  0  0  0
 83 87  1  0  0  0
 84169  1  0  0  0
 84170  1  0  0  0
 85 89  1  0  0  0
 85171  1  0  0  0
 85172  1  0  0  0
 86 87  1  0  0  0
 86173  1  0  0  0
 86174  1  0  0  0
 86 90  1  0  0  0
 87175  1  0  0  0
 89176  1  0  0  0
 90177  1  0  0  0
M  CHG  1  90   1
M  ISO  4   1 100  68 101  87 101  89 100
M  END
> <chiral flag>
0

> <version>
0

> <s_m_source_file>
/data/baiqing/PycharmProjects/Reinvent-master-3.2/result/LINK_invent/BTK/process_docking_weight1_custom_sum_contain_oxygen_bond_distance_aromatic_linkinvent_7_9_3/rearranged_h_0119.sdf

> <i_m_source_file_index>
46

> <r_mmod_Potential_Energy-OPLS-2005>
-318.742034912109

> <r_mmod_Stretch_Energy-OPLS-2005>
37.3694839477539

> <r_mmod_Bend_Energy-OPLS-2005>
135.720596313477

> <r_mmod_Torsional_Energy-OPLS-2005>
257.411376953125

> <r_mmod_Improper_Torsional_Energy-OPLS-2005>
6.22935676574707

> <r_mmod_Van_der_Waal_Energy-OPLS-2005>
168.583511352539

> <r_mmod_Electrostatic_Energy-OPLS-2005>
-525.524536132812

> <r_mmod_Solvation_Energy-OPLS-2005>
-418.875762939453

> <b_mmod_Minimization_Converged-OPLS-2005>
0

> <r_mmod_RMS_Derivative-OPLS-2005>
4.36690378189087

$$$$
46
                    3D
 Structure written by MMmdl.
164173  0  0  1  0            999 V2000
  -30.6571  -14.5327   20.6112 C   0  0  0  0  0  0
  -30.4518  -12.3695   19.4105 C   0  0  0  0  0  0
  -29.5005  -12.5438   18.2062 C   0  0  0  0  0  0
  -28.0196  -12.3902   18.6176 C   0  0  0  0  0  0
  -27.6640  -13.2104   19.8872 C   0  0  2  0  0  0
  -28.7135  -12.9814   20.9996 C   0  0  0  0  0  0
  -25.2590  -13.8182   20.5700 C   0  0  0  0  0  0
  -24.1828  -13.0476   20.9175 C   0  0  0  0  0  0
  -24.6347  -11.6933   20.8713 C   0  0  0  0  0  0
  -23.9002  -10.4324   21.0337 C   0  0  0  0  0  0
  -24.3541   -9.4248   21.9160 C   0  0  0  0  0  0
  -23.6229   -8.2274   22.0738 C   0  0  0  0  0  0
  -22.4239   -8.0263   21.3510 C   0  0  0  0  0  0
  -21.9835   -9.0241   20.4626 C   0  0  0  0  0  0
  -22.7137  -10.2134   20.3018 C   0  0  0  0  0  0
  -21.6873   -6.0685   22.5288 C   0  0  0  0  0  0
  -21.4057   -6.5614   23.8227 C   0  0  0  0  0  0
  -21.3646   -5.6771   24.9202 C   0  0  0  0  0  0
  -21.6003   -4.3039   24.7260 C   0  0  0  0  0  0
  -21.8823   -3.8114   23.4401 C   0  0  0  0  0  0
  -21.9196   -4.6898   22.3431 C   0  0  0  0  0  0
  -22.7841  -13.5237   21.1812 C   0  0  0  0  0  0
  -22.1641   -4.2056   21.1015 F   0  0  0  0  0  0
  -21.5566   -3.4551   25.7790 F   0  0  0  0  0  0
  -30.0381  -13.3268   20.4521 N   0  0  0  0  0  0
  -26.3039  -12.9354   20.3446 N   0  0  0  0  0  0
  -25.9291  -11.6520   20.5765 N   0  0  0  0  0  0
  -22.0423  -12.8287   22.0346 N   0  0  0  0  0  0
  -25.4427  -15.1910   20.4029 N   0  0  0  0  0  0
  -31.7643  -14.7836   20.1281 O   0  0  0  0  0  0
  -21.6650   -6.8830   21.4236 O   0  0  0  0  0  0
  -22.3548  -14.5578   20.6663 O   0  0  0  0  0  0
  -24.6193  -31.8643   23.2079 C   0  0  0  0  0  0
  -25.9053  -32.4808   23.8382 C   0  0  1  0  0  0
  -27.2457  -27.4002   20.0601 C   0  0  0  0  0  0
  -25.5875  -33.8606   24.2294 N   0  0  0  0  0  0
  -23.4107  -30.4802   21.5519 C   0  0  2  0  0  0
  -24.8626  -28.9504   20.0979 C   0  0  0  0  0  0
  -22.7389  -29.4580   22.4997 C   0  0  0  0  0  0
  -18.0273  -28.1382   22.8683 C   0  0  0  0  0  0
  -24.1484  -36.7301   23.2635 C   0  0  0  0  0  0
  -25.9434  -30.8046   21.3785 C   0  0  0  0  0  0
  -26.0186  -29.4373   20.7186 C   0  0  0  0  0  0
  -27.2039  -28.6606   20.7161 C   0  0  0  0  0  0
  -26.0841  -26.9601   19.3942 C   0  0  0  0  0  0
  -24.8913  -27.7124   19.4306 C   0  0  0  0  0  0
  -23.6272  -29.8235   20.1597 C   0  0  0  0  0  0
  -25.4107  -36.3110   24.0323 C   0  0  1  0  0  0
  -20.5846  -28.3695   23.1480 C   0  0  2  0  0  0
  -20.6605  -26.9314   22.5941 C   0  0  0  0  0  0
  -19.5697  -26.6242   21.5657 C   0  0  0  0  0  0
  -18.1907  -26.7821   22.2109 C   0  0  0  0  0  0
  -19.1528  -28.8891   23.3050 C   0  0  0  0  0  0
  -18.9428  -30.1516   23.9016 C   0  0  0  0  0  0
  -17.6422  -30.6668   24.0562 C   0  0  0  0  0  0
  -25.9027  -34.9463   23.5111 C   0  0  0  0  0  0
  -16.5342  -29.9147   23.6297 C   0  0  0  0  0  0
  -16.7258  -28.6479   23.0475 C   0  0  0  0  0  0
  -26.4467  -31.6609   25.0722 C   0  0  0  0  0  0
  -25.3690  -31.3679   26.1427 C   0  0  0  0  0  0
  -27.0333  -30.3067   24.6116 C   0  0  0  0  0  0
  -27.6077  -32.4300   25.7455 C   0  0  0  0  0  0
  -27.5589  -37.1804   24.8472 C   0  0  0  0  0  0
  -21.4139  -29.2808   22.3607 N   0  0  0  0  0  0
  -26.4305  -37.3790   23.9405 N   0  0  0  0  0  0
  -24.6762  -31.0670   22.1039 N   0  0  0  0  0  0
  -23.4097  -28.8288   23.3222 O   0  0  0  0  0  0
  -28.3731  -26.5988   20.1839 O   0  0  0  0  0  0
  -26.5602  -34.8908   22.4689 O   0  0  0  0  0  0
  -23.5380  -32.1419   23.7423 O   0  0  0  0  0  0
  -27.2387  -21.5725   20.7259 C   0  0  0  0  0  0
  -29.1693  -22.2212   19.8546 C   0  0  0  0  0  0
  -28.5988  -21.1651   20.5497 C   0  0  0  0  0  0
  -27.0233  -22.7961   20.1504 C   0  0  0  0  0  0
  -28.1783  -18.7858   21.5262 C   0  0  0  0  0  0
  -28.7938  -17.4906   22.1327 C   0  0  0  0  0  0
  -30.2202  -17.7170   20.0276 C   0  0  0  0  0  0
  -29.2312  -19.8385   21.0818 C   0  0  1  0  0  0
  -30.0410  -16.9450   21.3733 C   0  0  2  0  0  0
  -25.7514  -23.5833   20.0734 C   0  0  0  0  0  0
  -28.3778  -24.3692   18.6497 C   0  0  0  0  0  0
  -28.9071  -25.7808   19.1136 C   0  0  0  0  0  0
  -28.2158  -23.2128   19.5709 N   0  0  0  0  0  0
  -29.8943  -15.4737   21.2143 N   0  0  0  0  0  0
  -30.2208  -19.2156   20.1579 N   0  3  0  0  0  0
  -31.4812  -12.5370   19.0874 H   0  0  0  0  0  0
  -30.4309  -11.3478   19.7911 H   0  0  0  0  0  0
  -29.7444  -11.8275   17.4200 H   0  0  0  0  0  0
  -29.6544  -13.5327   17.7718 H   0  0  0  0  0  0
  -27.8345  -11.3310   18.8016 H   0  0  0  0  0  0
  -27.3699  -12.6745   17.7891 H   0  0  0  0  0  0
  -27.7071  -14.2600   19.6027 H   0  0  0  0  0  0
  -28.7207  -11.9353   21.3023 H   0  0  0  0  0  0
  -28.4648  -13.5439   21.9025 H   0  0  0  0  0  0
  -25.2674   -9.5714   22.4753 H   0  0  0  0  0  0
  -23.9892   -7.4699   22.7509 H   0  0  0  0  0  0
  -21.0728   -8.8733   19.9009 H   0  0  0  0  0  0
  -22.3532  -10.9633   19.6117 H   0  0  0  0  0  0
  -21.2130   -7.6135   23.9721 H   0  0  0  0  0  0
  -21.1428   -6.0518   25.9087 H   0  0  0  0  0  0
  -22.0626   -2.7569   23.2968 H   0  0  0  0  0  0
  -22.3922  -11.9931   22.4800 H   0  0  0  0  0  0
  -21.1045  -13.1383   22.2545 H   0  0  0  0  0  0
  -24.6945  -15.8681   20.4952 H   0  0  0  0  0  0
  -26.2934  -15.5944   20.0347 H   0  0  0  0  0  0
  -26.7098  -32.5459   23.1120 H   0  0  0  0  0  0
  -25.0098  -33.9748   25.0490 H   0  0  0  0  0  0
  -22.7043  -31.3005   21.4153 H   0  0  0  0  0  0
  -23.3756  -35.9643   23.3331 H   0  0  0  0  0  0
  -24.3606  -36.8868   22.2052 H   0  0  0  0  0  0
  -23.7198  -37.6482   23.6657 H   0  0  0  0  0  0
  -26.0607  -31.5712   20.6115 H   0  0  0  0  0  0
  -26.8306  -30.8620   21.9978 H   0  0  0  0  0  0
  -28.0916  -29.0207   21.2181 H   0  0  0  0  0  0
  -26.0837  -26.0269   18.8586 H   0  0  0  0  0  0
  -24.0101  -27.3453   18.9226 H   0  0  0  0  0  0
  -23.7455  -30.6127   19.4154 H   0  0  0  0  0  0
  -22.7507  -29.2522   19.8467 H   0  0  0  0  0  0
  -25.1305  -36.2005   25.0821 H   0  0  0  0  0  0
  -20.9968  -28.3459   24.1619 H   0  0  0  0  0  0
  -21.6499  -26.7093   22.1970 H   0  0  0  0  0  0
  -20.5317  -26.2498   23.4356 H   0  0  0  0  0  0
  -19.6625  -27.3061   20.7217 H   0  0  0  0  0  0
  -19.6863  -25.6141   21.1733 H   0  0  0  0  0  0
  -17.4097  -26.6183   21.4694 H   0  0  0  0  0  0
  -18.0520  -26.0262   22.9850 H   0  0  0  0  0  0
  -19.7844  -30.7377   24.2460 H   0  0  0  0  0  0
  -17.4929  -31.6364   24.5096 H   0  0  0  0  0  0
  -15.5361  -30.3079   23.7563 H   0  0  0  0  0  0
  -15.8651  -28.0713   22.7344 H   0  0  0  0  0  0
  -24.5905  -30.7019   25.7666 H   0  0  0  0  0  0
  -24.8836  -32.2818   26.4875 H   0  0  0  0  0  0
  -25.7984  -30.8794   27.0185 H   0  0  0  0  0  0
  -26.2886  -29.6770   24.1229 H   0  0  0  0  0  0
  -27.4178  -29.7362   25.4577 H   0  0  0  0  0  0
  -27.8710  -30.4402   23.9258 H   0  0  0  0  0  0
  -27.2780  -33.3617   26.2070 H   0  0  0  0  0  0
  -28.3875  -32.6785   25.0237 H   0  0  0  0  0  0
  -28.0796  -31.8376   26.5307 H   0  0  0  0  0  0
  -28.2625  -38.0083   24.7546 H   0  0  0  0  0  0
  -28.1061  -36.2615   24.6326 H   0  0  0  0  0  0
  -27.2320  -37.1479   25.8873 H   0  0  0  0  0  0
  -20.9377  -29.7839   21.6238 H   0  0  0  0  0  0
  -26.0208  -38.2885   24.1389 H   0  0  0  0  0  0
  -26.4650  -21.0148   21.2343 H   0  0  0  0  0  0
  -30.1818  -22.3454   19.4900 H   0  0  0  0  0  0
  -27.4930  -19.2164   22.2564 H   0  0  0  0  0  0
  -27.5567  -18.5217   20.6733 H   0  0  0  0  0  0
  -27.9975  -16.7422   22.1488 H   0  0  0  0  0  0
  -29.0592  -17.6506   23.1785 H   0  0  0  0  0  0
  -29.4266  -17.4286   19.3430 H   0  0  0  0  0  0
  -31.1575  -17.4172   19.5550 H   0  0  0  0  0  0
  -29.7919  -20.1167   21.9756 H   0  0  0  0  0  0
  -30.9287  -17.1174   21.9907 H   0  0  0  0  0  0
  -25.7871  -24.4519   20.7325 H   0  0  0  0  0  0
  -24.8965  -22.9734   20.3778 H   0  0  0  0  0  0
  -25.5317  -23.9148   19.0578 H   0  0  0  0  0  0
  -29.1018  -24.0310   17.9056 H   0  0  0  0  0  0
  -27.4639  -24.4764   18.0674 H   0  0  0  0  0  0
  -28.9552  -26.4160   18.2262 H   0  0  0  0  0  0
  -29.9485  -25.6250   19.3976 H   0  0  0  0  0  0
  -29.0436  -15.0946   21.6023 H   0  0  0  0  0  0
  -30.0816  -19.6094   19.2433 H   0  0  0  0  0  0
  -31.1318  -19.5153   20.4766 H   0  0  0  0  0  0
  1 25  1  0  0  0
  1 30  2  0  0  0
  1 84  1  0  0  0
  2  3  1  0  0  0
  2 25  1  0  0  0
  2 86  1  0  0  0
  2 87  1  0  0  0
  3  4  1  0  0  0
  3 88  1  0  0  0
  3 89  1  0  0  0
  4  5  1  0  0  0
  4 90  1  0  0  0
  4 91  1  0  0  0
  5  6  1  0  0  0
  5 26  1  0  0  0
  5 92  1  0  0  0
  6 25  1  0  0  0
  6 93  1  0  0  0
  6 94  1  0  0  0
  7  8  2  0  0  0
  7 26  1  0  0  0
  7 29  1  0  0  0
  8  9  1  0  0  0
  8 22  1  0  0  0
  9 10  1  0  0  0
  9 27  2  0  0  0
 10 11  2  0  0  0
 10 15  1  0  0  0
 11 12  1  0  0  0
 11 95  1  0  0  0
 12 13  2  0  0  0
 12 96  1  0  0  0
 13 14  1  0  0  0
 13 31  1  0  0  0
 14 15  2  0  0  0
 14 97  1  0  0  0
 15 98  1  0  0  0
 16 17  2  0  0  0
 16 21  1  0  0  0
 16 31  1  0  0  0
 17 18  1  0  0  0
 17 99  1  0  0  0
 18 19  2  0  0  0
 18100  1  0  0  0
 19 20  1  0  0  0
 19 24  1  0  0  0
 20 21  2  0  0  0
 20101  1  0  0  0
 21 23  1  0  0  0
 22 28  1  0  0  0
 22 32  2  0  0  0
 26 27  1  0  0  0
 28102  1  0  0  0
 28103  1  0  0  0
 29104  1  0  0  0
 29105  1  0  0  0
 33 34  1  0  0  0
 33 66  1  0  0  0
 33 70  2  0  0  0
 34 36  1  0  0  0
 34 59  1  0  0  0
 34106  1  0  0  0
 35 44  2  0  0  0
 35 45  1  0  0  0
 35 68  1  0  0  0
 36 56  1  0  0  0
 36107  1  0  0  0
 37 39  1  0  0  0
 37 47  1  0  0  0
 37 66  1  0  0  0
 37108  1  0  0  0
 38 43  2  0  0  0
 38 46  1  0  0  0
 38 47  1  0  0  0
 39 64  1  0  0  0
 39 67  2  0  0  0
 40 52  1  0  0  0
 40 53  2  0  0  0
 40 58  1  0  0  0
 41109  1  0  0  0
 41110  1  0  0  0
 41111  1  0  0  0
 41 48  1  0  0  0
 42 43  1  0  0  0
 42 66  1  0  0  0
 42112  1  0  0  0
 42113  1  0  0  0
 43 44  1  0  0  0
 44114  1  0  0  0
 45 46  2  0  0  0
 45115  1  0  0  0
 46116  1  0  0  0
 47117  1  0  0  0
 47118  1  0  0  0
 48 56  1  0  0  0
 48 65  1  0  0  0
 48119  1  0  0  0
 49 50  1  0  0  0
 49 53  1  0  0  0
 49 64  1  0  0  0
 49120  1  0  0  0
 50 51  1  0  0  0
 50121  1  0  0  0
 50122  1  0  0  0
 51 52  1  0  0  0
 51123  1  0  0  0
 51124  1  0  0  0
 52125  1  0  0  0
 52126  1  0  0  0
 53 54  1  0  0  0
 54 55  2  0  0  0
 54127  1  0  0  0
 55 57  1  0  0  0
 55128  1  0  0  0
 56 69  2  0  0  0
 57 58  2  0  0  0
 57129  1  0  0  0
 58130  1  0  0  0
 59 60  1  0  0  0
 59 61  1  0  0  0
 59 62  1  0  0  0
 60131  1  0  0  0
 60132  1  0  0  0
 60133  1  0  0  0
 61134  1  0  0  0
 61135  1  0  0  0
 61136  1  0  0  0
 62137  1  0  0  0
 62138  1  0  0  0
 62139  1  0  0  0
 63 65  1  0  0  0
 63140  1  0  0  0
 63141  1  0  0  0
 63142  1  0  0  0
 64143  1  0  0  0
 65144  1  0  0  0
 68 82  1  0  0  0
 71 73  1  0  0  0
 71 74  2  0  0  0
 71145  1  0  0  0
 72 73  2  0  0  0
 72 83  1  0  0  0
 72146  1  0  0  0
 73 78  1  0  0  0
 74 80  1  0  0  0
 74 83  1  0  0  0
 75 76  1  0  0  0
 75 78  1  0  0  0
 75147  1  0  0  0
 75148  1  0  0  0
 76 79  1  0  0  0
 76149  1  0  0  0
 76150  1  0  0  0
 77 79  1  0  0  0
 77 85  1  0  0  0
 77151  1  0  0  0
 77152  1  0  0  0
 78 85  1  0  0  0
 78153  1  0  0  0
 79 84  1  0  0  0
 79154  1  0  0  0
 80155  1  0  0  0
 80156  1  0  0  0
 80157  1  0  0  0
 81 82  1  0  0  0
 81 83  1  0  0  0
 81158  1  0  0  0
 81159  1  0  0  0
 82160  1  0  0  0
 82161  1  0  0  0
 84162  1  0  0  0
 85163  1  0  0  0
 85164  1  0  0  0
M  CHG  1  85   1
M  ISO  4   1 100  68 101  82 101  84 100
M  END
> <chiral flag>
0

> <version>
0

> <s_m_source_file>
/data/baiqing/PycharmProjects/Reinvent-master-3.2/result/LINK_invent/BTK/process_docking_weight1_custom_sum_contain_oxygen_bond_distance_aromatic_linkinvent_7_9_3/rearranged_h_0119.sdf

> <i_m_source_file_index>
47

> <r_mmod_Potential_Energy-OPLS-2005>
-190.859359741211

> <r_mmod_Stretch_Energy-OPLS-2005>
55.4176063537598

> <r_mmod_Bend_Energy-OPLS-2005>
166.156127929688

> <r_mmod_Torsional_Energy-OPLS-2005>
255.7412109375

> <r_mmod_Improper_Torsional_Energy-OPLS-2005>
4.98422527313232

> <r_mmod_Van_der_Waal_Energy-OPLS-2005>
123.721969604492

> <r_mmod_Electrostatic_Energy-OPLS-2005>
-365.959411621094

> <r_mmod_Solvation_Energy-OPLS-2005>
-458.422668457031

> <b_mmod_Minimization_Converged-OPLS-2005>
0

> <r_mmod_RMS_Derivative-OPLS-2005>
7.24622058868408

$$$$
47
                    3D
 Structure written by MMmdl.
170178  0  0  1  0            999 V2000
  -30.6513  -14.4416   20.5370 C   0  0  0  0  0  0
  -30.4258  -12.2816   19.4016 C   0  0  0  0  0  0
  -29.4904  -12.4948   18.1952 C   0  0  0  0  0  0
  -28.0025  -12.3821   18.5968 C   0  0  0  0  0  0
  -27.6539  -13.1876   19.8751 C   0  0  2  0  0  0
  -28.6985  -12.9219   20.9835 C   0  0  0  0  0  0
  -25.2562  -13.8102   20.5718 C   0  0  0  0  0  0
  -24.1815  -13.0410   20.9221 C   0  0  0  0  0  0
  -24.6327  -11.6863   20.8745 C   0  0  0  0  0  0
  -23.8984  -10.4278   21.0425 C   0  0  0  0  0  0
  -24.3564   -9.4194   21.9201 C   0  0  0  0  0  0
  -23.6283   -8.2193   22.0729 C   0  0  0  0  0  0
  -22.4236   -8.0251   21.3564 C   0  0  0  0  0  0
  -21.9885   -9.0189   20.4627 C   0  0  0  0  0  0
  -22.7159  -10.2105   20.3070 C   0  0  0  0  0  0
  -21.6840   -6.0708   22.5265 C   0  0  0  0  0  0
  -21.3990   -6.5608   23.8202 C   0  0  0  0  0  0
  -21.3700   -5.6765   24.9176 C   0  0  0  0  0  0
  -21.6087   -4.3031   24.7226 C   0  0  0  0  0  0
  -21.8819   -3.8123   23.4337 C   0  0  0  0  0  0
  -21.9195   -4.6941   22.3393 C   0  0  0  0  0  0
  -22.7842  -13.5231   21.1917 C   0  0  0  0  0  0
  -22.1653   -4.2133   21.0963 F   0  0  0  0  0  0
  -21.5689   -3.4522   25.7746 F   0  0  0  0  0  0
  -30.0295  -13.2416   20.4349 N   0  0  0  0  0  0
  -26.2954  -12.9232   20.3360 N   0  0  0  0  0  0
  -25.9240  -11.6411   20.5749 N   0  0  0  0  0  0
  -22.0492  -12.8191   22.0450 N   0  0  0  0  0  0
  -25.4324  -15.1816   20.4083 N   0  0  0  0  0  0
  -31.7953  -14.6653   20.1233 O   0  0  0  0  0  0
  -21.6625   -6.8842   21.4233 O   0  0  0  0  0  0
  -22.3541  -14.5578   20.6806 O   0  0  0  0  0  0
  -24.6106  -31.8757   23.2144 C   0  0  0  0  0  0
  -25.8999  -32.4899   23.8409 C   0  0  1  0  0  0
  -27.2147  -27.4202   20.0882 C   0  0  0  0  0  0
  -25.5871  -33.8702   24.2295 N   0  0  0  0  0  0
  -23.3971  -30.5094   21.5555 C   0  0  2  0  0  0
  -24.8411  -28.9800   20.1202 C   0  0  0  0  0  0
  -22.7370  -29.4729   22.4932 C   0  0  0  0  0  0
  -18.0294  -28.1410   22.8515 C   0  0  0  0  0  0
  -24.1513  -36.7316   23.2646 C   0  0  0  0  0  0
  -25.9361  -30.8400   21.3760 C   0  0  0  0  0  0
  -26.0121  -29.4807   20.7039 C   0  0  0  0  0  0
  -27.2042  -28.7126   20.6747 C   0  0  0  0  0  0
  -26.0185  -26.9472   19.4966 C   0  0  0  0  0  0
  -24.8417  -27.7141   19.5190 C   0  0  0  0  0  0
  -23.6080  -29.8568   20.1671 C   0  0  0  0  0  0
  -25.4173  -36.3191   24.0312 C   0  0  1  0  0  0
  -20.5887  -28.3710   23.1312 C   0  0  2  0  0  0
  -20.6806  -26.9444   22.5427 C   0  0  0  0  0  0
  -19.5761  -26.6400   21.5263 C   0  0  0  0  0  0
  -18.1940  -26.7960   22.1655 C   0  0  0  0  0  0
  -19.1546  -28.8881   23.2928 C   0  0  0  0  0  0
  -18.9460  -30.1501   23.8926 C   0  0  0  0  0  0
  -17.6461  -30.6622   24.0606 C   0  0  0  0  0  0
  -25.9079  -34.9539   23.5116 C   0  0  0  0  0  0
  -16.5360  -29.9113   23.6352 C   0  0  0  0  0  0
  -16.7293  -28.6546   23.0339 C   0  0  0  0  0  0
  -26.4409  -31.6707   25.0752 C   0  0  0  0  0  0
  -25.3588  -31.3761   26.1422 C   0  0  0  0  0  0
  -27.0256  -30.3170   24.6190 C   0  0  0  0  0  0
  -27.6061  -32.4383   25.7435 C   0  0  0  0  0  0
  -27.5626  -37.1843   24.8472 C   0  0  0  0  0  0
  -21.4117  -29.3068   22.3655 N   0  0  0  0  0  0
  -26.4369  -37.3856   23.9385 N   0  0  0  0  0  0
  -24.6658  -31.0847   22.1084 N   0  0  0  0  0  0
  -23.4158  -28.8225   23.2926 O   0  0  0  0  0  0
  -28.3704  -26.6555   20.0770 O   0  0  0  0  0  0
  -26.5645  -34.8966   22.4684 O   0  0  0  0  0  0
  -23.5293  -32.1540   23.7517 O   0  0  0  0  0  0
  -29.5733  -18.7666   19.2432 C   0  0  0  0  0  0
  -30.6944  -17.6373   21.5287 C   0  0  0  0  0  0
  -29.4575  -17.3638   19.4459 C   0  0  0  0  0  0
  -30.0193  -16.8009   20.6204 C   0  0  0  0  0  0
  -30.2615  -19.5674   20.1965 C   0  0  0  0  0  0
  -30.9405  -21.4567   18.6417 C   0  0  0  0  0  0
  -26.9943  -17.3958   17.1475 C   0  0  0  0  0  0
  -28.6779  -15.7602   16.1945 C   0  0  0  0  0  0
  -29.5395  -24.4546   20.0998 C   0  0  0  0  0  0
  -29.3184  -21.9347   20.6242 C   0  0  0  0  0  0
  -28.2034  -25.2256   20.2444 C   0  0  0  0  0  0
  -30.4985  -21.0845   20.0659 C   0  0  1  0  0  0
  -28.4487  -16.9128   17.1843 C   0  0  0  0  0  0
  -30.7906  -18.9593   21.2821 N   0  3  0  0  0  0
  -29.8438  -15.4304   20.9370 N   0  0  0  0  0  0
  -28.8126  -16.4998   18.5339 N   0  0  0  0  0  0
  -29.6899  -23.3142   21.0532 N   0  3  0  0  0  0
  -31.4649  -12.4084   19.0968 H   0  0  0  0  0  0
  -30.3443  -11.2619   19.7787 H   0  0  0  0  0  0
  -29.7233  -11.7664   17.4178 H   0  0  0  0  0  0
  -29.6811  -13.4774   17.7627 H   0  0  0  0  0  0
  -27.7787  -11.3264   18.7531 H   0  0  0  0  0  0
  -27.3697  -12.7109   17.7693 H   0  0  0  0  0  0
  -27.6951  -14.2403   19.6001 H   0  0  0  0  0  0
  -28.6727  -11.8700   21.2699 H   0  0  0  0  0  0
  -28.4655  -13.4772   21.8943 H   0  0  0  0  0  0
  -25.2709   -9.5682   22.4787 H   0  0  0  0  0  0
  -24.0040   -7.4572   22.7405 H   0  0  0  0  0  0
  -21.0844   -8.8647   19.8900 H   0  0  0  0  0  0
  -22.3591  -10.9644   19.6190 H   0  0  0  0  0  0
  -21.1903   -7.6102   23.9703 H   0  0  0  0  0  0
  -21.1589   -6.0489   25.9091 H   0  0  0  0  0  0
  -22.0582   -2.7589   23.2815 H   0  0  0  0  0  0
  -22.4036  -11.9783   22.4760 H   0  0  0  0  0  0
  -21.1148  -13.1241   22.2722 H   0  0  0  0  0  0
  -24.6632  -15.8359   20.4903 H   0  0  0  0  0  0
  -26.2646  -15.6079   20.0207 H   0  0  0  0  0  0
  -26.7025  -32.5606   23.1122 H   0  0  0  0  0  0
  -24.9962  -33.9915   25.0390 H   0  0  0  0  0  0
  -22.6858  -31.3294   21.4205 H   0  0  0  0  0  0
  -23.3837  -35.9591   23.3392 H   0  0  0  0  0  0
  -24.3580  -36.8887   22.2053 H   0  0  0  0  0  0
  -23.7190  -37.6507   23.6608 H   0  0  0  0  0  0
  -26.0646  -31.6256   20.6293 H   0  0  0  0  0  0
  -26.8114  -30.8759   22.0128 H   0  0  0  0  0  0
  -28.1135  -29.1040   21.1060 H   0  0  0  0  0  0
  -25.9517  -26.0000   18.9835 H   0  0  0  0  0  0
  -23.9356  -27.3295   19.0762 H   0  0  0  0  0  0
  -23.7265  -30.6496   19.4267 H   0  0  0  0  0  0
  -22.7234  -29.3016   19.8511 H   0  0  0  0  0  0
  -25.1357  -36.2091   25.0795 H   0  0  0  0  0  0
  -21.0048  -28.3371   24.1415 H   0  0  0  0  0  0
  -20.5829  -26.2338   23.3632 H   0  0  0  0  0  0
  -21.6653  -26.7550   22.1150 H   0  0  0  0  0  0
  -19.6940  -25.6306   21.1308 H   0  0  0  0  0  0
  -19.6704  -27.3215   20.6795 H   0  0  0  0  0  0
  -17.4214  -26.6757   21.4046 H   0  0  0  0  0  0
  -18.0333  -26.0085   22.9024 H   0  0  0  0  0  0
  -19.7942  -30.7333   24.2285 H   0  0  0  0  0  0
  -17.5016  -31.6323   24.5170 H   0  0  0  0  0  0
  -15.5367  -30.3019   23.7691 H   0  0  0  0  0  0
  -15.8692  -28.0910   22.6975 H   0  0  0  0  0  0
  -24.5766  -30.7162   25.7614 H   0  0  0  0  0  0
  -24.8711  -32.2879   26.4890 H   0  0  0  0  0  0
  -25.7810  -30.8811   27.0171 H   0  0  0  0  0  0
  -26.2822  -29.6932   24.1223 H   0  0  0  0  0  0
  -27.3978  -29.7467   25.4708 H   0  0  0  0  0  0
  -27.8673  -30.4510   23.9392 H   0  0  0  0  0  0
  -27.2818  -33.3714   26.2033 H   0  0  0  0  0  0
  -28.3804  -32.6913   25.0170 H   0  0  0  0  0  0
  -28.0788  -31.8463   26.5276 H   0  0  0  0  0  0
  -28.2692  -38.0110   24.7595 H   0  0  0  0  0  0
  -28.1077  -36.2657   24.6259 H   0  0  0  0  0  0
  -27.2303  -37.1472   25.8860 H   0  0  0  0  0  0
  -20.9248  -29.8784   21.6893 H   0  0  0  0  0  0
  -26.0306  -38.2956   24.1370 H   0  0  0  0  0  0
  -29.1541  -19.2311   18.3648 H   0  0  0  0  0  0
  -31.1584  -17.2833   22.4364 H   0  0  0  0  0  0
  -31.7783  -20.8308   18.3326 H   0  0  0  0  0  0
  -31.2874  -22.4856   18.5898 H   0  0  0  0  0  0
  -30.1480  -21.3380   17.9034 H   0  0  0  0  0  0
  -26.7652  -17.8773   16.1960 H   0  0  0  0  0  0
  -26.7907  -18.1269   17.9315 H   0  0  0  0  0  0
  -26.2969  -16.5644   17.2746 H   0  0  0  0  0  0
  -28.4418  -16.0649   15.1729 H   0  0  0  0  0  0
  -28.0518  -14.8979   16.4329 H   0  0  0  0  0  0
  -29.7189  -15.4308   16.1970 H   0  0  0  0  0  0
  -30.3391  -25.1619   20.3264 H   0  0  0  0  0  0
  -29.7030  -24.1362   19.0683 H   0  0  0  0  0  0
  -28.9868  -21.4564   21.5485 H   0  0  0  0  0  0
  -28.4570  -21.9229   19.9545 H   0  0  0  0  0  0
  -27.7607  -25.0719   21.2315 H   0  0  0  0  0  0
  -27.5164  -24.7747   19.5288 H   0  0  0  0  0  0
  -31.3606  -21.3081   20.6932 H   0  0  0  0  0  0
  -29.0934  -17.7311   16.8653 H   0  0  0  0  0  0
  -31.3109  -19.5190   21.9616 H   0  0  0  0  0  0
  -28.9052  -15.1551   21.1826 H   0  0  0  0  0  0
  -28.9354  -15.5080   18.6841 H   0  0  0  0  0  0
  -29.1343  -23.5199   21.8697 H   0  0  0  0  0  0
  -30.6413  -23.2963   21.3823 H   0  0  0  0  0  0
  1 25  1  0  0  0
  1 30  2  0  0  0
  1 85  1  0  0  0
  2  3  1  0  0  0
  2 25  1  0  0  0
  2 88  1  0  0  0
  2 89  1  0  0  0
  3  4  1  0  0  0
  3 90  1  0  0  0
  3 91  1  0  0  0
  4  5  1  0  0  0
  4 92  1  0  0  0
  4 93  1  0  0  0
  5  6  1  0  0  0
  5 26  1  0  0  0
  5 94  1  0  0  0
  6 25  1  0  0  0
  6 95  1  0  0  0
  6 96  1  0  0  0
  7  8  2  0  0  0
  7 26  1  0  0  0
  7 29  1  0  0  0
  8  9  1  0  0  0
  8 22  1  0  0  0
  9 10  1  0  0  0
  9 27  2  0  0  0
 10 11  2  0  0  0
 10 15  1  0  0  0
 11 12  1  0  0  0
 11 97  1  0  0  0
 12 13  2  0  0  0
 12 98  1  0  0  0
 13 14  1  0  0  0
 13 31  1  0  0  0
 14 15  2  0  0  0
 14 99  1  0  0  0
 15100  1  0  0  0
 16 17  2  0  0  0
 16 21  1  0  0  0
 16 31  1  0  0  0
 17 18  1  0  0  0
 17101  1  0  0  0
 18 19  2  0  0  0
 18102  1  0  0  0
 19 20  1  0  0  0
 19 24  1  0  0  0
 20 21  2  0  0  0
 20103  1  0  0  0
 21 23  1  0  0  0
 22 28  1  0  0  0
 22 32  2  0  0  0
 26 27  1  0  0  0
 28104  1  0  0  0
 28105  1  0  0  0
 29106  1  0  0  0
 29107  1  0  0  0
 33 34  1  0  0  0
 33 66  1  0  0  0
 33 70  2  0  0  0
 34 36  1  0  0  0
 34 59  1  0  0  0
 34108  1  0  0  0
 35 44  2  0  0  0
 35 45  1  0  0  0
 35 68  1  0  0  0
 36 56  1  0  0  0
 36109  1  0  0  0
 37 39  1  0  0  0
 37 47  1  0  0  0
 37 66  1  0  0  0
 37110  1  0  0  0
 38 43  2  0  0  0
 38 46  1  0  0  0
 38 47  1  0  0  0
 39 64  1  0  0  0
 39 67  2  0  0  0
 40 52  1  0  0  0
 40 53  2  0  0  0
 40 58  1  0  0  0
 41111  1  0  0  0
 41112  1  0  0  0
 41113  1  0  0  0
 41 48  1  0  0  0
 42 43  1  0  0  0
 42 66  1  0  0  0
 42114  1  0  0  0
 42115  1  0  0  0
 43 44  1  0  0  0
 44116  1  0  0  0
 45 46  2  0  0  0
 45117  1  0  0  0
 46118  1  0  0  0
 47119  1  0  0  0
 47120  1  0  0  0
 48 56  1  0  0  0
 48 65  1  0  0  0
 48121  1  0  0  0
 49 50  1  0  0  0
 49 53  1  0  0  0
 49 64  1  0  0  0
 49122  1  0  0  0
 50 51  1  0  0  0
 50123  1  0  0  0
 50124  1  0  0  0
 51 52  1  0  0  0
 51125  1  0  0  0
 51126  1  0  0  0
 52127  1  0  0  0
 52128  1  0  0  0
 53 54  1  0  0  0
 54 55  2  0  0  0
 54129  1  0  0  0
 55 57  1  0  0  0
 55130  1  0  0  0
 56 69  2  0  0  0
 57 58  2  0  0  0
 57131  1  0  0  0
 58132  1  0  0  0
 59 60  1  0  0  0
 59 61  1  0  0  0
 59 62  1  0  0  0
 60133  1  0  0  0
 60134  1  0  0  0
 60135  1  0  0  0
 61136  1  0  0  0
 61137  1  0  0  0
 61138  1  0  0  0
 62139  1  0  0  0
 62140  1  0  0  0
 62141  1  0  0  0
 63 65  1  0  0  0
 63142  1  0  0  0
 63143  1  0  0  0
 63144  1  0  0  0
 64145  1  0  0  0
 65146  1  0  0  0
 68 81  1  0  0  0
 71 73  2  0  0  0
 71 75  1  0  0  0
 71147  1  0  0  0
 72 74  2  0  0  0
 72 84  1  0  0  0
 72148  1  0  0  0
 73 74  1  0  0  0
 73 86  1  0  0  0
 74 85  1  0  0  0
 75 82  1  0  0  0
 75 84  2  0  0  0
 76149  1  0  0  0
 76150  1  0  0  0
 76151  1  0  0  0
 76 82  1  0  0  0
 77152  1  0  0  0
 77153  1  0  0  0
 77154  1  0  0  0
 77 83  1  0  0  0
 78 83  1  0  0  0
 78155  1  0  0  0
 78156  1  0  0  0
 78157  1  0  0  0
 79 81  1  0  0  0
 79 87  1  0  0  0
 79158  1  0  0  0
 79159  1  0  0  0
 80 82  1  0  0  0
 80 87  1  0  0  0
 80160  1  0  0  0
 80161  1  0  0  0
 81162  1  0  0  0
 81163  1  0  0  0
 82164  1  0  0  0
 83 86  1  0  0  0
 83165  1  0  0  0
 84166  1  0  0  0
 85167  1  0  0  0
 86168  1  0  0  0
 87169  1  0  0  0
 87170  1  0  0  0
M  CHG  2  84   1  87   1
M  ISO  4   1 100  68 101  81 101  85 100
M  END
> <chiral flag>
0

> <version>
0

> <s_m_source_file>
/data/baiqing/PycharmProjects/Reinvent-master-3.2/result/LINK_invent/BTK/process_docking_weight1_custom_sum_contain_oxygen_bond_distance_aromatic_linkinvent_7_9_3/rearranged_h_0119.sdf

> <i_m_source_file_index>
48

> <r_mmod_Potential_Energy-OPLS-2005>
-373.706695556641

> <r_mmod_Stretch_Energy-OPLS-2005>
40.2279319763184

> <r_mmod_Bend_Energy-OPLS-2005>
117.595642089844

> <r_mmod_Torsional_Energy-OPLS-2005>
266.320251464844

> <r_mmod_Improper_Torsional_Energy-OPLS-2005>
7.93579244613647

> <r_mmod_Van_der_Waal_Energy-OPLS-2005>
147.616744995117

> <r_mmod_Electrostatic_Energy-OPLS-2005>
-37.8177871704102

> <r_mmod_Solvation_Energy-OPLS-2005>
-930.513854980469

> <b_mmod_Minimization_Converged-OPLS-2005>
0

> <r_mmod_RMS_Derivative-OPLS-2005>
6.00568628311157

$$$$
48
                    3D
 Structure written by MMmdl.
178187  0  0  1  0            999 V2000
  -30.5920  -14.8024   20.4485 C   0  0  0  0  0  0
  -30.4357  -12.4934   19.4784 C   0  0  0  0  0  0
  -29.5125  -12.5127   18.2397 C   0  0  0  0  0  0
  -28.0408  -12.3255   18.6564 C   0  0  0  0  0  0
  -27.6382  -13.2363   19.8467 C   0  0  2  0  0  0
  -28.6835  -13.1991   20.9824 C   0  0  0  0  0  0
  -25.2502  -13.8204   20.5708 C   0  0  0  0  0  0
  -24.1802  -13.0443   20.9225 C   0  0  0  0  0  0
  -24.6399  -11.6922   20.8755 C   0  0  0  0  0  0
  -23.9078  -10.4295   21.0411 C   0  0  0  0  0  0
  -24.3626   -9.4207   21.9188 C   0  0  0  0  0  0
  -23.6297   -8.2244   22.0757 C   0  0  0  0  0  0
  -22.4279   -8.0283   21.3545 C   0  0  0  0  0  0
  -21.9919   -9.0259   20.4647 C   0  0  0  0  0  0
  -22.7252  -10.2137   20.3058 C   0  0  0  0  0  0
  -21.6854   -6.0738   22.5279 C   0  0  0  0  0  0
  -21.4016   -6.5640   23.8213 C   0  0  0  0  0  0
  -21.3658   -5.6792   24.9173 C   0  0  0  0  0  0
  -21.6043   -4.3055   24.7224 C   0  0  0  0  0  0
  -21.8819   -3.8149   23.4344 C   0  0  0  0  0  0
  -21.9193   -4.6967   22.3401 C   0  0  0  0  0  0
  -22.7820  -13.5221   21.1874 C   0  0  0  0  0  0
  -22.1661   -4.2152   21.0979 F   0  0  0  0  0  0
  -21.5627   -3.4540   25.7736 F   0  0  0  0  0  0
  -29.9758  -13.5677   20.3923 N   0  0  0  0  0  0
  -26.2923  -12.9417   20.3271 N   0  0  0  0  0  0
  -25.9329  -11.6556   20.5753 N   0  0  0  0  0  0
  -22.0461  -12.8206   22.0421 N   0  0  0  0  0  0
  -25.4177  -15.1932   20.4120 N   0  0  0  0  0  0
  -31.7878  -14.8889   20.1589 O   0  0  0  0  0  0
  -21.6641   -6.8883   21.4241 O   0  0  0  0  0  0
  -22.3507  -14.5527   20.6719 O   0  0  0  0  0  0
  -24.6360  -31.8515   23.1958 C   0  0  0  0  0  0
  -25.9166  -32.4735   23.8318 C   0  0  1  0  0  0
  -27.2147  -27.2189   20.1421 C   0  0  0  0  0  0
  -25.5942  -33.8538   24.2236 N   0  0  0  0  0  0
  -23.4350  -30.4741   21.5401 C   0  0  2  0  0  0
  -24.8837  -28.9157   20.1112 C   0  0  0  0  0  0
  -22.7526  -29.4588   22.4898 C   0  0  0  0  0  0
  -18.0299  -28.1391   22.8485 C   0  0  0  0  0  0
  -24.1488  -36.7270   23.2641 C   0  0  0  0  0  0
  -25.9851  -30.7518   21.3826 C   0  0  0  0  0  0
  -26.0584  -29.3704   20.7255 C   0  0  0  0  0  0
  -27.2300  -28.5365   20.7269 C   0  0  0  0  0  0
  -26.0228  -26.8522   19.4816 C   0  0  0  0  0  0
  -24.8737  -27.6660   19.4753 C   0  0  0  0  0  0
  -23.6563  -29.8077   20.1572 C   0  0  0  0  0  0
  -25.4115  -36.3055   24.0324 C   0  0  1  0  0  0
  -20.5906  -28.3709   23.1256 C   0  0  2  0  0  0
  -20.6786  -26.9422   22.5405 C   0  0  0  0  0  0
  -19.5758  -26.6384   21.5214 C   0  0  0  0  0  0
  -18.1938  -26.7933   22.1623 C   0  0  0  0  0  0
  -19.1552  -28.8869   23.2865 C   0  0  0  0  0  0
  -18.9472  -30.1469   23.8887 C   0  0  0  0  0  0
  -17.6470  -30.6591   24.0564 C   0  0  0  0  0  0
  -25.9062  -34.9428   23.5084 C   0  0  0  0  0  0
  -16.5362  -29.9085   23.6338 C   0  0  0  0  0  0
  -16.7284  -28.6503   23.0359 C   0  0  0  0  0  0
  -26.4516  -31.6574   25.0725 C   0  0  0  0  0  0
  -25.3725  -31.3728   26.1434 C   0  0  0  0  0  0
  -27.0380  -30.2987   24.6247 C   0  0  0  0  0  0
  -27.6056  -32.4332   25.7503 C   0  0  0  0  0  0
  -27.5579  -37.1789   24.8463 C   0  0  0  0  0  0
  -21.4228  -29.3049   22.3641 N   0  0  0  0  0  0
  -26.4283  -37.3763   23.9416 N   0  0  0  0  0  0
  -24.7048  -31.0443   22.0956 N   0  0  0  0  0  0
  -23.4204  -28.8130   23.3015 O   0  0  0  0  0  0
  -28.2703  -26.2638   20.1742 O   0  0  0  0  0  0
  -26.5639  -34.8912   22.4657 O   0  0  0  0  0  0
  -23.5499  -32.1355   23.7227 O   0  0  0  0  0  0
  -30.2853  -22.1645   18.9455 C   0  0  0  0  0  0
  -29.6815  -23.4089   19.2973 C   0  0  0  0  0  0
  -28.3572  -22.2168   20.9109 C   0  0  0  0  0  0
  -29.9446  -20.9177   19.5486 C   0  0  0  0  0  0
  -28.9628  -20.9344   20.5672 C   0  0  0  0  0  0
  -28.6857  -23.4938   20.2962 C   0  0  0  0  0  0
  -30.6942  -19.6252   19.0927 C   0  0  0  0  0  0
  -28.5145  -19.5669   21.2003 C   0  0  0  0  0  0
  -30.0567  -18.1786   19.2011 C   0  0  0  0  0  0
  -29.6212  -18.4903   21.6900 C   0  0  2  0  0  0
  -30.1933  -17.4627   20.5865 C   0  0  1  0  0  0
  -31.4265  -15.1791   25.1505 C   0  0  0  0  0  0
  -27.5845  -18.2074   24.8565 C   0  0  0  0  0  0
  -29.6345  -19.5930   24.8121 C   0  0  0  0  0  0
  -27.9325  -24.8690   20.6847 C   0  0  0  0  0  0
  -30.2217  -16.0613   24.7998 C   0  0  0  0  0  0
  -30.5248  -17.0392   23.6499 C   0  0  0  0  0  0
  -29.2893  -17.7938   23.0581 C   0  0  1  0  0  0
  -29.8145  -15.9537   20.6264 N   0  0  0  0  0  0
  -28.6854  -18.7617   24.0311 N   0  3  0  0  0  0
  -31.4743  -12.6295   19.1725 H   0  0  0  0  0  0
  -30.3957  -11.5241   19.9776 H   0  0  0  0  0  0
  -29.8049  -11.7313   17.5372 H   0  0  0  0  0  0
  -29.6266  -13.4598   17.7099 H   0  0  0  0  0  0
  -27.9099  -11.2789   18.9334 H   0  0  0  0  0  0
  -27.3805  -12.4984   17.8055 H   0  0  0  0  0  0
  -27.6224  -14.2518   19.4504 H   0  0  0  0  0  0
  -28.7343  -12.2072   21.4338 H   0  0  0  0  0  0
  -28.4102  -13.8876   21.7837 H   0  0  0  0  0  0
  -25.2771   -9.5681   22.4765 H   0  0  0  0  0  0
  -24.0003   -7.4636   22.7479 H   0  0  0  0  0  0
  -21.0850   -8.8781   19.8953 H   0  0  0  0  0  0
  -22.3713  -10.9677   19.6167 H   0  0  0  0  0  0
  -21.2009   -7.6149   23.9717 H   0  0  0  0  0  0
  -21.1478   -6.0522   25.9075 H   0  0  0  0  0  0
  -22.0599   -2.7612   23.2843 H   0  0  0  0  0  0
  -22.4073  -11.9862   22.4800 H   0  0  0  0  0  0
  -21.1074  -13.1224   22.2617 H   0  0  0  0  0  0
  -24.6381  -15.8355   20.5013 H   0  0  0  0  0  0
  -26.2421  -15.6275   20.0191 H   0  0  0  0  0  0
  -26.7234  -32.5372   23.1057 H   0  0  0  0  0  0
  -25.0080  -33.9665   25.0377 H   0  0  0  0  0  0
  -22.7341  -31.2982   21.3919 H   0  0  0  0  0  0
  -23.3757  -35.9594   23.3285 H   0  0  0  0  0  0
  -24.3581  -36.8913   22.2059 H   0  0  0  0  0  0
  -23.7231  -37.6460   23.6682 H   0  0  0  0  0  0
  -26.1292  -31.5101   20.6118 H   0  0  0  0  0  0
  -26.8604  -30.8016   22.0185 H   0  0  0  0  0  0
  -28.1275  -28.8794   21.2227 H   0  0  0  0  0  0
  -25.9620  -25.9003   18.9742 H   0  0  0  0  0  0
  -23.9790  -27.3157   18.9794 H   0  0  0  0  0  0
  -23.7845  -30.5842   19.4020 H   0  0  0  0  0  0
  -22.7732  -29.2442   19.8502 H   0  0  0  0  0  0
  -25.1297  -36.1891   25.0815 H   0  0  0  0  0  0
  -21.0000  -28.3293   24.1376 H   0  0  0  0  0  0
  -20.5688  -26.2320   23.3614 H   0  0  0  0  0  0
  -21.6653  -26.7441   22.1197 H   0  0  0  0  0  0
  -19.6918  -25.6292   21.1248 H   0  0  0  0  0  0
  -19.6692  -27.3193   20.6742 H   0  0  0  0  0  0
  -17.4207  -26.6688   21.4025 H   0  0  0  0  0  0
  -18.0336  -26.0073   22.9018 H   0  0  0  0  0  0
  -19.7947  -30.7290   24.2245 H   0  0  0  0  0  0
  -17.5022  -31.6272   24.5167 H   0  0  0  0  0  0
  -15.5361  -30.2982   23.7669 H   0  0  0  0  0  0
  -15.8685  -28.0818   22.7081 H   0  0  0  0  0  0
  -24.5916  -30.7057   25.7759 H   0  0  0  0  0  0
  -24.8896  -32.2894   26.4834 H   0  0  0  0  0  0
  -25.8034  -30.8927   27.0228 H   0  0  0  0  0  0
  -26.2983  -29.6714   24.1256 H   0  0  0  0  0  0
  -27.4032  -29.7271   25.4789 H   0  0  0  0  0  0
  -27.8868  -30.4249   23.9523 H   0  0  0  0  0  0
  -27.2662  -33.3652   26.2034 H   0  0  0  0  0  0
  -28.3893  -32.6860   25.0349 H   0  0  0  0  0  0
  -28.0694  -31.8485   26.5458 H   0  0  0  0  0  0
  -28.2574  -38.0108   24.7541 H   0  0  0  0  0  0
  -28.1099  -36.2641   24.6250 H   0  0  0  0  0  0
  -27.2303  -37.1386   25.8866 H   0  0  0  0  0  0
  -20.9423  -29.8763   21.6831 H   0  0  0  0  0  0
  -26.0153  -38.2828   24.1437 H   0  0  0  0  0  0
  -31.0422  -22.1751   18.1727 H   0  0  0  0  0  0
  -29.9857  -24.3093   18.7816 H   0  0  0  0  0  0
  -27.5859  -22.2237   21.6684 H   0  0  0  0  0  0
  -31.6645  -19.6189   19.5904 H   0  0  0  0  0  0
  -30.9270  -19.7770   18.0378 H   0  0  0  0  0  0
  -27.8297  -19.0821   20.5049 H   0  0  0  0  0  0
  -27.8510  -19.8542   22.0109 H   0  0  0  0  0  0
  -30.5865  -17.5505   18.4838 H   0  0  0  0  0  0
  -29.0270  -18.1868   18.8445 H   0  0  0  0  0  0
  -30.4727  -19.1279   21.9343 H   0  0  0  0  0  0
  -31.2687  -17.4355   20.7743 H   0  0  0  0  0  0
  -31.1877  -14.5040   25.9730 H   0  0  0  0  0  0
  -32.2822  -15.7820   25.4569 H   0  0  0  0  0  0
  -31.7342  -14.5676   24.3016 H   0  0  0  0  0  0
  -27.0642  -19.0077   25.3836 H   0  0  0  0  0  0
  -27.9366  -17.5020   25.6059 H   0  0  0  0  0  0
  -26.8433  -17.6996   24.2386 H   0  0  0  0  0  0
  -29.1072  -20.4088   25.3075 H   0  0  0  0  0  0
  -30.3907  -20.0432   24.1687 H   0  0  0  0  0  0
  -30.1409  -19.0156   25.5856 H   0  0  0  0  0  0
  -28.0213  -24.9429   21.7689 H   0  0  0  0  0  0
  -26.8772  -24.6554   20.5255 H   0  0  0  0  0  0
  -29.9339  -16.6069   25.6968 H   0  0  0  0  0  0
  -29.3787  -15.4224   24.5329 H   0  0  0  0  0  0
  -30.9979  -16.4465   22.8727 H   0  0  0  0  0  0
  -31.3047  -17.7385   23.9503 H   0  0  0  0  0  0
  -28.5263  -17.0495   22.8252 H   0  0  0  0  0  0
  -28.8348  -15.7597   20.7665 H   0  0  0  0  0  0
  -28.2093  -19.4244   23.4377 H   0  0  0  0  0  0
  1 25  1  0  0  0
  1 30  2  0  0  0
  1 89  1  0  0  0
  2  3  1  0  0  0
  2 25  1  0  0  0
  2 91  1  0  0  0
  2 92  1  0  0  0
  3  4  1  0  0  0
  3 93  1  0  0  0
  3 94  1  0  0  0
  4  5  1  0  0  0
  4 95  1  0  0  0
  4 96  1  0  0  0
  5  6  1  0  0  0
  5 26  1  0  0  0
  5 97  1  0  0  0
  6 25  1  0  0  0
  6 98  1  0  0  0
  6 99  1  0  0  0
  7  8  2  0  0  0
  7 26  1  0  0  0
  7 29  1  0  0  0
  8  9  1  0  0  0
  8 22  1  0  0  0
  9 10  1  0  0  0
  9 27  2  0  0  0
 10 11  2  0  0  0
 10 15  1  0  0  0
 11 12  1  0  0  0
 11100  1  0  0  0
 12 13  2  0  0  0
 12101  1  0  0  0
 13 14  1  0  0  0
 13 31  1  0  0  0
 14 15  2  0  0  0
 14102  1  0  0  0
 15103  1  0  0  0
 16 17  2  0  0  0
 16 21  1  0  0  0
 16 31  1  0  0  0
 17 18  1  0  0  0
 17104  1  0  0  0
 18 19  2  0  0  0
 18105  1  0  0  0
 19 20  1  0  0  0
 19 24  1  0  0  0
 20 21  2  0  0  0
 20106  1  0  0  0
 21 23  1  0  0  0
 22 28  1  0  0  0
 22 32  2  0  0  0
 26 27  1  0  0  0
 28107  1  0  0  0
 28108  1  0  0  0
 29109  1  0  0  0
 29110  1  0  0  0
 33 34  1  0  0  0
 33 66  1  0  0  0
 33 70  2  0  0  0
 34 36  1  0  0  0
 34 59  1  0  0  0
 34111  1  0  0  0
 35 44  2  0  0  0
 35 45  1  0  0  0
 35 68  1  0  0  0
 36 56  1  0  0  0
 36112  1  0  0  0
 37 39  1  0  0  0
 37 47  1  0  0  0
 37 66  1  0  0  0
 37113  1  0  0  0
 38 43  2  0  0  0
 38 46  1  0  0  0
 38 47  1  0  0  0
 39 64  1  0  0  0
 39 67  2  0  0  0
 40 52  1  0  0  0
 40 53  2  0  0  0
 40 58  1  0  0  0
 41114  1  0  0  0
 41115  1  0  0  0
 41116  1  0  0  0
 41 48  1  0  0  0
 42 43  1  0  0  0
 42 66  1  0  0  0
 42117  1  0  0  0
 42118  1  0  0  0
 43 44  1  0  0  0
 44119  1  0  0  0
 45 46  2  0  0  0
 45120  1  0  0  0
 46121  1  0  0  0
 47122  1  0  0  0
 47123  1  0  0  0
 48 56  1  0  0  0
 48 65  1  0  0  0
 48124  1  0  0  0
 49 50  1  0  0  0
 49 53  1  0  0  0
 49 64  1  0  0  0
 49125  1  0  0  0
 50 51  1  0  0  0
 50126  1  0  0  0
 50127  1  0  0  0
 51 52  1  0  0  0
 51128  1  0  0  0
 51129  1  0  0  0
 52130  1  0  0  0
 52131  1  0  0  0
 53 54  1  0  0  0
 54 55  2  0  0  0
 54132  1  0  0  0
 55 57  1  0  0  0
 55133  1  0  0  0
 56 69  2  0  0  0
 57 58  2  0  0  0
 57134  1  0  0  0
 58135  1  0  0  0
 59 60  1  0  0  0
 59 61  1  0  0  0
 59 62  1  0  0  0
 60136  1  0  0  0
 60137  1  0  0  0
 60138  1  0  0  0
 61139  1  0  0  0
 61140  1  0  0  0
 61141  1  0  0  0
 62142  1  0  0  0
 62143  1  0  0  0
 62144  1  0  0  0
 63 65  1  0  0  0
 63145  1  0  0  0
 63146  1  0  0  0
 63147  1  0  0  0
 64148  1  0  0  0
 65149  1  0  0  0
 68 85  1  0  0  0
 71 72  2  0  0  0
 71 74  1  0  0  0
 71150  1  0  0  0
 72 76  1  0  0  0
 72151  1  0  0  0
 73 75  1  0  0  0
 73 76  2  0  0  0
 73152  1  0  0  0
 74 75  2  0  0  0
 74 77  1  0  0  0
 75 78  1  0  0  0
 76 85  1  0  0  0
 77 79  1  0  0  0
 77153  1  0  0  0
 77154  1  0  0  0
 78155  1  0  0  0
 78156  1  0  0  0
 78 80  1  0  0  0
 79 81  1  0  0  0
 79157  1  0  0  0
 79158  1  0  0  0
 80 81  1  0  0  0
 80 88  1  0  0  0
 80159  1  0  0  0
 81 89  1  0  0  0
 81160  1  0  0  0
 82 86  1  0  0  0
 82161  1  0  0  0
 82162  1  0  0  0
 82163  1  0  0  0
 83164  1  0  0  0
 83165  1  0  0  0
 83166  1  0  0  0
 83 90  1  0  0  0
 84 90  1  0  0  0
 84167  1  0  0  0
 84168  1  0  0  0
 84169  1  0  0  0
 85170  1  0  0  0
 85171  1  0  0  0
 86 87  1  0  0  0
 86172  1  0  0  0
 86173  1  0  0  0
 87174  1  0  0  0
 87175  1  0  0  0
 87 88  1  0  0  0
 88 90  1  0  0  0
 88176  1  0  0  0
 89177  1  0  0  0
 90178  1  0  0  0
M  CHG  1  90   1
M  ISO  4   1 100  68 101  85 101  89 100
M  END
> <chiral flag>
0

> <version>
0

> <s_m_source_file>
/data/baiqing/PycharmProjects/Reinvent-master-3.2/result/LINK_invent/BTK/process_docking_weight1_custom_sum_contain_oxygen_bond_distance_aromatic_linkinvent_7_9_3/rearranged_h_0119.sdf

> <i_m_source_file_index>
49

> <r_mmod_Potential_Energy-OPLS-2005>
265.162780761719

> <r_mmod_Stretch_Energy-OPLS-2005>
156.912139892578

> <r_mmod_Bend_Energy-OPLS-2005>
212.906921386719

> <r_mmod_Torsional_Energy-OPLS-2005>
293.194519042969

> <r_mmod_Improper_Torsional_Energy-OPLS-2005>
4.94659042358398

> <r_mmod_Van_der_Waal_Energy-OPLS-2005>
140.319580078125

> <r_mmod_Electrostatic_Energy-OPLS-2005>
-215.340087890625

> <r_mmod_Solvation_Energy-OPLS-2005>
-443.857330322266

> <b_mmod_Minimization_Converged-OPLS-2005>
0

> <r_mmod_RMS_Derivative-OPLS-2005>
0.433950871229172

$$$$
49
                    3D
 Structure written by MMmdl.
183191  0  0  1  0            999 V2000
  -30.6357  -14.4825   20.5337 C   0  0  0  0  0  0
  -30.4439  -12.3005   19.4259 C   0  0  0  0  0  0
  -29.5111  -12.5226   18.2118 C   0  0  0  0  0  0
  -28.0215  -12.3925   18.6052 C   0  0  0  0  0  0
  -27.6693  -13.1939   19.8837 C   0  0  2  0  0  0
  -28.7101  -12.9307   20.9982 C   0  0  0  0  0  0
  -25.2639  -13.8135   20.5585 C   0  0  0  0  0  0
  -24.1912  -13.0416   20.9152 C   0  0  0  0  0  0
  -24.6477  -11.6882   20.8753 C   0  0  0  0  0  0
  -23.9144  -10.4268   21.0384 C   0  0  0  0  0  0
  -24.3691   -9.4172   21.9147 C   0  0  0  0  0  0
  -23.6344   -8.2224   22.0735 C   0  0  0  0  0  0
  -22.4300   -8.0304   21.3535 C   0  0  0  0  0  0
  -21.9983   -9.0270   20.4624 C   0  0  0  0  0  0
  -22.7331  -10.2139   20.3009 C   0  0  0  0  0  0
  -21.6836   -6.0771   22.5285 C   0  0  0  0  0  0
  -21.4015   -6.5676   23.8226 C   0  0  0  0  0  0
  -21.3654   -5.6829   24.9179 C   0  0  0  0  0  0
  -21.6037   -4.3084   24.7239 C   0  0  0  0  0  0
  -21.8835   -3.8193   23.4368 C   0  0  0  0  0  0
  -21.9202   -4.7001   22.3411 C   0  0  0  0  0  0
  -22.7951  -13.5194   21.1869 C   0  0  0  0  0  0
  -22.1637   -4.2180   21.0994 F   0  0  0  0  0  0
  -21.5631   -3.4565   25.7743 F   0  0  0  0  0  0
  -30.0432  -13.2608   20.4651 N   0  0  0  0  0  0
  -26.3075  -12.9257   20.3320 N   0  0  0  0  0  0
  -25.9377  -11.6448   20.5762 N   0  0  0  0  0  0
  -22.0603  -12.8135   22.0409 N   0  0  0  0  0  0
  -25.4437  -15.1832   20.3863 N   0  0  0  0  0  0
  -31.7489  -14.7232   20.0605 O   0  0  0  0  0  0
  -21.6639   -6.8919   21.4243 O   0  0  0  0  0  0
  -22.3579  -14.5458   20.6691 O   0  0  0  0  0  0
  -24.6165  -31.8673   23.2074 C   0  0  0  0  0  0
  -25.9052  -32.4822   23.8375 C   0  0  1  0  0  0
  -27.2415  -27.4193   20.0952 C   0  0  0  0  0  0
  -25.5888  -33.8617   24.2299 N   0  0  0  0  0  0
  -23.4037  -30.4904   21.5501 C   0  0  2  0  0  0
  -24.8486  -28.9457   20.1251 C   0  0  0  0  0  0
  -22.7403  -29.4691   22.5014 C   0  0  0  0  0  0
  -18.0275  -28.1389   22.8501 C   0  0  0  0  0  0
  -24.1472  -36.7310   23.2640 C   0  0  0  0  0  0
  -25.9347  -30.8278   21.3593 C   0  0  0  0  0  0
  -26.0144  -29.4601   20.7087 C   0  0  0  0  0  0
  -27.2142  -28.7094   20.6804 C   0  0  0  0  0  0
  -26.0486  -26.9171   19.5337 C   0  0  0  0  0  0
  -24.8595  -27.6704   19.5387 C   0  0  0  0  0  0
  -23.6110  -29.8115   20.1702 C   0  0  0  0  0  0
  -25.4097  -36.3122   24.0354 C   0  0  1  0  0  0
  -20.5864  -28.3698   23.1309 C   0  0  2  0  0  0
  -20.6777  -26.9434   22.5418 C   0  0  0  0  0  0
  -19.5751  -26.6393   21.5223 C   0  0  0  0  0  0
  -18.1923  -26.7943   22.1616 C   0  0  0  0  0  0
  -19.1526  -28.8854   23.2900 C   0  0  0  0  0  0
  -18.9464  -30.1460   23.8915 C   0  0  0  0  0  0
  -17.6467  -30.6606   24.0576 C   0  0  0  0  0  0
  -25.9022  -34.9494   23.5137 C   0  0  0  0  0  0
  -16.5355  -29.9110   23.6329 C   0  0  0  0  0  0
  -16.7265  -28.6524   23.0366 C   0  0  0  0  0  0
  -26.4468  -31.6622   25.0718 C   0  0  0  0  0  0
  -25.3710  -31.3807   26.1458 C   0  0  0  0  0  0
  -27.0334  -30.3056   24.6150 C   0  0  0  0  0  0
  -27.6002  -32.4393   25.7484 C   0  0  0  0  0  0
  -27.5595  -37.1799   24.8459 C   0  0  0  0  0  0
  -21.4128  -29.3070   22.3727 N   0  0  0  0  0  0
  -26.4285  -37.3818   23.9431 N   0  0  0  0  0  0
  -24.6709  -31.0755   22.0979 N   0  0  0  0  0  0
  -23.4158  -28.8223   23.3061 O   0  0  0  0  0  0
  -28.4256  -26.7022   20.0328 O   0  0  0  0  0  0
  -26.5613  -34.8968   22.4701 O   0  0  0  0  0  0
  -23.5349  -32.1441   23.7452 O   0  0  0  0  0  0
  -32.6117  -18.5995   17.3998 C   0  0  0  0  0  0
  -31.3034  -17.8019   17.3072 C   0  0  0  0  0  0
  -32.8369  -19.1547   18.8243 C   0  0  0  0  0  0
  -30.1371  -18.5861   17.9316 C   0  0  0  0  0  0
  -31.5719  -19.8647   19.4229 C   0  0  1  0  0  0
  -29.8049  -23.1588   13.7915 C   0  0  0  0  0  0
  -27.5088  -23.8736   18.4990 C   0  0  0  0  0  0
  -30.1620  -23.5030   15.2398 C   0  0  0  0  0  0
  -29.6004  -23.0357   19.7604 C   0  0  0  0  0  0
  -30.5944  -17.7818   20.2361 C   0  0  0  0  0  0
  -29.5229  -16.6707   20.1358 C   0  0  0  0  0  0
  -29.9176  -22.3616   16.2273 C   0  0  0  0  0  0
  -28.4297  -25.3078   20.4168 C   0  0  0  0  0  0
  -31.4400  -21.2891   18.7659 C   0  0  1  0  0  0
  -28.7732  -24.2901   19.2773 C   0  0  2  0  0  0
  -30.0737  -22.0558   18.6242 C   0  0  2  0  0  0
  -30.4060  -18.9511   19.3320 N   0  0  0  0  0  0
  -29.7949  -15.4591   20.9254 N   0  0  0  0  0  0
  -32.4898  -22.1983   19.2772 N   0  3  0  0  0  0
  -30.3038  -22.8914   17.4911 O   0  0  0  0  0  0
  -31.4870  -12.4237   19.1282 H   0  0  0  0  0  0
  -30.3652  -11.2769   19.8025 H   0  0  0  0  0  0
  -29.7465  -11.8128   17.4199 H   0  0  0  0  0  0
  -29.6903  -13.5152   17.7934 H   0  0  0  0  0  0
  -27.7984  -11.3370   18.7563 H   0  0  0  0  0  0
  -27.3914  -12.7258   17.7788 H   0  0  0  0  0  0
  -27.7188  -14.2452   19.6081 H   0  0  0  0  0  0
  -28.6867  -11.8752   21.2797 H   0  0  0  0  0  0
  -28.4768  -13.4814   21.9089 H   0  0  0  0  0  0
  -25.2837   -9.5642   22.4725 H   0  0  0  0  0  0
  -24.0074   -7.4612   22.7428 H   0  0  0  0  0  0
  -21.0918   -8.8840   19.8905 H   0  0  0  0  0  0
  -22.3828  -10.9712   19.6131 H   0  0  0  0  0  0
  -21.1989   -7.6175   23.9768 H   0  0  0  0  0  0
  -21.1417   -6.0511   25.9081 H   0  0  0  0  0  0
  -22.0601   -2.7661   23.2854 H   0  0  0  0  0  0
  -22.4225  -11.9780   22.4779 H   0  0  0  0  0  0
  -21.1177  -13.1093   22.2524 H   0  0  0  0  0  0
  -24.6975  -15.8595   20.4996 H   0  0  0  0  0  0
  -26.2976  -15.5968   20.0334 H   0  0  0  0  0  0
  -26.7118  -32.5516   23.1132 H   0  0  0  0  0  0
  -25.0054  -33.9763   25.0467 H   0  0  0  0  0  0
  -22.6961  -31.3103   21.4027 H   0  0  0  0  0  0
  -23.3773  -35.9599   23.3271 H   0  0  0  0  0  0
  -24.3563  -36.8934   22.2053 H   0  0  0  0  0  0
  -23.7171  -37.6487   23.6668 H   0  0  0  0  0  0
  -26.0470  -31.5899   20.5872 H   0  0  0  0  0  0
  -26.8222  -30.8824   21.9778 H   0  0  0  0  0  0
  -28.1207  -29.1124   21.1127 H   0  0  0  0  0  0
  -26.0154  -25.9461   19.0772 H   0  0  0  0  0  0
  -23.9620  -27.2549   19.1001 H   0  0  0  0  0  0
  -23.7177  -30.5750   19.4002 H   0  0  0  0  0  0
  -22.7360  -29.2266   19.8791 H   0  0  0  0  0  0
  -25.1271  -36.1986   25.0855 H   0  0  0  0  0  0
  -20.9975  -28.3277   24.1422 H   0  0  0  0  0  0
  -20.5675  -26.2336   23.3628 H   0  0  0  0  0  0
  -21.6652  -26.7475   22.1212 H   0  0  0  0  0  0
  -19.6914  -25.6300   21.1265 H   0  0  0  0  0  0
  -19.6686  -27.3199   20.6752 H   0  0  0  0  0  0
  -17.4218  -26.6746   21.3985 H   0  0  0  0  0  0
  -18.0261  -26.0042   22.8955 H   0  0  0  0  0  0
  -19.7944  -30.7261   24.2285 H   0  0  0  0  0  0
  -17.5038  -31.6286   24.5181 H   0  0  0  0  0  0
  -15.5360  -30.3045   23.7632 H   0  0  0  0  0  0
  -15.8653  -28.0838   22.7100 H   0  0  0  0  0  0
  -24.5822  -30.7218   25.7813 H   0  0  0  0  0  0
  -24.8986  -32.3022   26.4876 H   0  0  0  0  0  0
  -25.8003  -30.8979   27.0240 H   0  0  0  0  0  0
  -26.2936  -29.6785   24.1158 H   0  0  0  0  0  0
  -27.4043  -29.7316   25.4650 H   0  0  0  0  0  0
  -27.8780  -30.4362   23.9381 H   0  0  0  0  0  0
  -27.2550  -33.3648   26.2112 H   0  0  0  0  0  0
  -28.3779  -32.7042   25.0314 H   0  0  0  0  0  0
  -28.0733  -31.8525   26.5361 H   0  0  0  0  0  0
  -28.2605  -38.0113   24.7563 H   0  0  0  0  0  0
  -28.1111  -36.2654   24.6215 H   0  0  0  0  0  0
  -27.2335  -37.1352   25.8867 H   0  0  0  0  0  0
  -20.9309  -29.8808   21.6945 H   0  0  0  0  0  0
  -26.0184  -38.2896   24.1454 H   0  0  0  0  0  0
  -32.5828  -19.4159   16.6745 H   0  0  0  0  0  0
  -33.4525  -17.9719   17.1003 H   0  0  0  0  0  0
  -31.4077  -16.8351   17.7965 H   0  0  0  0  0  0
  -31.0754  -17.5809   16.2631 H   0  0  0  0  0  0
  -33.6792  -19.8448   18.7882 H   0  0  0  0  0  0
  -33.1948  -18.3623   19.4791 H   0  0  0  0  0  0
  -29.2093  -18.0219   17.8475 H   0  0  0  0  0  0
  -29.9613  -19.4828   17.3371 H   0  0  0  0  0  0
  -31.7326  -20.0343   20.4909 H   0  0  0  0  0  0
  -30.0190  -24.0067   13.1406 H   0  0  0  0  0  0
  -28.7467  -22.9200   13.6888 H   0  0  0  0  0  0
  -30.3818  -22.3098   13.4262 H   0  0  0  0  0  0
  -27.6776  -23.0462   17.8169 H   0  0  0  0  0  0
  -27.1564  -24.6899   17.8704 H   0  0  0  0  0  0
  -26.7006  -23.5673   19.1651 H   0  0  0  0  0  0
  -29.5801  -24.3686   15.5550 H   0  0  0  0  0  0
  -31.2085  -23.7988   15.2957 H   0  0  0  0  0  0
  -29.0239  -22.4677   20.4921 H   0  0  0  0  0  0
  -30.4583  -23.4076   20.3144 H   0  0  0  0  0  0
  -31.5527  -17.3040   20.0591 H   0  0  0  0  0  0
  -30.6355  -18.1425   21.2654 H   0  0  0  0  0  0
  -29.4196  -16.3254   19.1076 H   0  0  0  0  0  0
  -28.5468  -17.0616   20.4198 H   0  0  0  0  0  0
  -30.4997  -21.4792   15.9592 H   0  0  0  0  0  0
  -28.8675  -22.0678   16.2169 H   0  0  0  0  0  0
  -29.2070  -25.2415   21.1793 H   0  0  0  0  0  0
  -27.5113  -25.0208   20.9361 H   0  0  0  0  0  0
  -31.7439  -21.1233   17.7376 H   0  0  0  0  0  0
  -29.4203  -24.8359   18.5856 H   0  0  0  0  0  0
  -29.2611  -21.3602   18.4038 H   0  0  0  0  0  0
  -28.9942  -15.1113   21.4314 H   0  0  0  0  0  0
  -32.3630  -22.3882   20.2552 H   0  0  0  0  0  0
  -32.4486  -23.0696   18.7732 H   0  0  0  0  0  0
  -33.4064  -21.8046   19.1482 H   0  0  0  0  0  0
  1 25  1  0  0  0
  1 30  2  0  0  0
  1 88  1  0  0  0
  2  3  1  0  0  0
  2 25  1  0  0  0
  2 91  1  0  0  0
  2 92  1  0  0  0
  3  4  1  0  0  0
  3 93  1  0  0  0
  3 94  1  0  0  0
  4  5  1  0  0  0
  4 95  1  0  0  0
  4 96  1  0  0  0
  5  6  1  0  0  0
  5 26  1  0  0  0
  5 97  1  0  0  0
  6 25  1  0  0  0
  6 98  1  0  0  0
  6 99  1  0  0  0
  7  8  2  0  0  0
  7 26  1  0  0  0
  7 29  1  0  0  0
  8  9  1  0  0  0
  8 22  1  0  0  0
  9 10  1  0  0  0
  9 27  2  0  0  0
 10 11  2  0  0  0
 10 15  1  0  0  0
 11 12  1  0  0  0
 11100  1  0  0  0
 12 13  2  0  0  0
 12101  1  0  0  0
 13 14  1  0  0  0
 13 31  1  0  0  0
 14 15  2  0  0  0
 14102  1  0  0  0
 15103  1  0  0  0
 16 17  2  0  0  0
 16 21  1  0  0  0
 16 31  1  0  0  0
 17 18  1  0  0  0
 17104  1  0  0  0
 18 19  2  0  0  0
 18105  1  0  0  0
 19 20  1  0  0  0
 19 24  1  0  0  0
 20 21  2  0  0  0
 20106  1  0  0  0
 21 23  1  0  0  0
 22 28  1  0  0  0
 22 32  2  0  0  0
 26 27  1  0  0  0
 28107  1  0  0  0
 28108  1  0  0  0
 29109  1  0  0  0
 29110  1  0  0  0
 33 34  1  0  0  0
 33 66  1  0  0  0
 33 70  2  0  0  0
 34 36  1  0  0  0
 34 59  1  0  0  0
 34111  1  0  0  0
 35 44  2  0  0  0
 35 45  1  0  0  0
 35 68  1  0  0  0
 36 56  1  0  0  0
 36112  1  0  0  0
 37 39  1  0  0  0
 37 47  1  0  0  0
 37 66  1  0  0  0
 37113  1  0  0  0
 38 43  2  0  0  0
 38 46  1  0  0  0
 38 47  1  0  0  0
 39 64  1  0  0  0
 39 67  2  0  0  0
 40 52  1  0  0  0
 40 53  2  0  0  0
 40 58  1  0  0  0
 41114  1  0  0  0
 41115  1  0  0  0
 41116  1  0  0  0
 41 48  1  0  0  0
 42 43  1  0  0  0
 42 66  1  0  0  0
 42117  1  0  0  0
 42118  1  0  0  0
 43 44  1  0  0  0
 44119  1  0  0  0
 45 46  2  0  0  0
 45120  1  0  0  0
 46121  1  0  0  0
 47122  1  0  0  0
 47123  1  0  0  0
 48 56  1  0  0  0
 48 65  1  0  0  0
 48124  1  0  0  0
 49 50  1  0  0  0
 49 53  1  0  0  0
 49 64  1  0  0  0
 49125  1  0  0  0
 50 51  1  0  0  0
 50126  1  0  0  0
 50127  1  0  0  0
 51 52  1  0  0  0
 51128  1  0  0  0
 51129  1  0  0  0
 52130  1  0  0  0
 52131  1  0  0  0
 53 54  1  0  0  0
 54 55  2  0  0  0
 54132  1  0  0  0
 55 57  1  0  0  0
 55133  1  0  0  0
 56 69  2  0  0  0
 57 58  2  0  0  0
 57134  1  0  0  0
 58135  1  0  0  0
 59 60  1  0  0  0
 59 61  1  0  0  0
 59 62  1  0  0  0
 60136  1  0  0  0
 60137  1  0  0  0
 60138  1  0  0  0
 61139  1  0  0  0
 61140  1  0  0  0
 61141  1  0  0  0
 62142  1  0  0  0
 62143  1  0  0  0
 62144  1  0  0  0
 63 65  1  0  0  0
 63145  1  0  0  0
 63146  1  0  0  0
 63147  1  0  0  0
 64148  1  0  0  0
 65149  1  0  0  0
 68 83  1  0  0  0
 71 72  1  0  0  0
 71 73  1  0  0  0
 71150  1  0  0  0
 71151  1  0  0  0
 72 74  1  0  0  0
 72152  1  0  0  0
 72153  1  0  0  0
 73154  1  0  0  0
 73155  1  0  0  0
 73 75  1  0  0  0
 74 87  1  0  0  0
 74156  1  0  0  0
 74157  1  0  0  0
 75 84  1  0  0  0
 75 87  1  0  0  0
 75158  1  0  0  0
 76 78  1  0  0  0
 76159  1  0  0  0
 76160  1  0  0  0
 76161  1  0  0  0
 77162  1  0  0  0
 77163  1  0  0  0
 77164  1  0  0  0
 77 85  1  0  0  0
 78 82  1  0  0  0
 78165  1  0  0  0
 78166  1  0  0  0
 79 85  1  0  0  0
 79167  1  0  0  0
 79168  1  0  0  0
 79 86  1  0  0  0
 80 81  1  0  0  0
 80 87  1  0  0  0
 80169  1  0  0  0
 80170  1  0  0  0
 81 88  1  0  0  0
 81171  1  0  0  0
 81172  1  0  0  0
 82 90  1  0  0  0
 82173  1  0  0  0
 82174  1  0  0  0
 83 85  1  0  0  0
 83175  1  0  0  0
 83176  1  0  0  0
 84 86  1  0  0  0
 84 89  1  0  0  0
 84177  1  0  0  0
 85178  1  0  0  0
 86 90  1  0  0  0
 86179  1  0  0  0
 88180  1  0  0  0
 89181  1  0  0  0
 89182  1  0  0  0
 89183  1  0  0  0
M  CHG  1  89   1
M  ISO  4   1 100  68 101  83 101  88 100
M  END
> <chiral flag>
0

> <version>
0

> <s_m_source_file>
/data/baiqing/PycharmProjects/Reinvent-master-3.2/result/LINK_invent/BTK/process_docking_weight1_custom_sum_contain_oxygen_bond_distance_aromatic_linkinvent_7_9_3/rearranged_h_0119.sdf

> <i_m_source_file_index>
50

> <r_mmod_Potential_Energy-OPLS-2005>
-107.246444702148

> <r_mmod_Stretch_Energy-OPLS-2005>
53.8503456115723

> <r_mmod_Bend_Energy-OPLS-2005>
150.613647460938

> <r_mmod_Torsional_Energy-OPLS-2005>
349.244293212891

> <r_mmod_Improper_Torsional_Energy-OPLS-2005>
9.28498554229736

> <r_mmod_Van_der_Waal_Energy-OPLS-2005>
155.902450561523

> <r_mmod_Electrostatic_Energy-OPLS-2005>
-392.334533691406

> <r_mmod_Solvation_Energy-OPLS-2005>
-448.595550537109

> <b_mmod_Minimization_Converged-OPLS-2005>
0

> <r_mmod_RMS_Derivative-OPLS-2005>
4.83791971206665

$$$$
50
                    3D
 Structure written by MMmdl.
165173  0  0  1  0            999 V2000
  -30.7120  -14.4453   20.5447 C   0  0  0  0  0  0
  -30.4180  -12.2812   19.4193 C   0  0  0  0  0  0
  -29.4892  -12.4777   18.2023 C   0  0  0  0  0  0
  -28.0123  -12.3505   18.6199 C   0  0  0  0  0  0
  -27.6626  -13.2010   19.8709 C   0  0  2  0  0  0
  -28.7055  -12.9910   20.9933 C   0  0  0  0  0  0
  -25.2596  -13.8185   20.5621 C   0  0  0  0  0  0
  -24.1835  -13.0464   20.9186 C   0  0  0  0  0  0
  -24.6390  -11.6927   20.8777 C   0  0  0  0  0  0
  -23.9056  -10.4311   21.0440 C   0  0  0  0  0  0
  -24.3617   -9.4206   21.9189 C   0  0  0  0  0  0
  -23.6283   -8.2243   22.0762 C   0  0  0  0  0  0
  -22.4271   -8.0296   21.3548 C   0  0  0  0  0  0
  -21.9909   -9.0275   20.4655 C   0  0  0  0  0  0
  -22.7247  -10.2143   20.3062 C   0  0  0  0  0  0
  -21.6843   -6.0741   22.5282 C   0  0  0  0  0  0
  -21.4021   -6.5635   23.8222 C   0  0  0  0  0  0
  -21.3657   -5.6783   24.9177 C   0  0  0  0  0  0
  -21.6044   -4.3047   24.7222 C   0  0  0  0  0  0
  -21.8814   -3.8143   23.4341 C   0  0  0  0  0  0
  -21.9191   -4.6968   22.3400 C   0  0  0  0  0  0
  -22.7858  -13.5288   21.1833 C   0  0  0  0  0  0
  -22.1654   -4.2150   21.0979 F   0  0  0  0  0  0
  -21.5619   -3.4534   25.7733 F   0  0  0  0  0  0
  -30.0336  -13.2765   20.4301 N   0  0  0  0  0  0
  -26.3036  -12.9321   20.3370 N   0  0  0  0  0  0
  -25.9309  -11.6489   20.5811 N   0  0  0  0  0  0
  -22.0462  -12.8291   22.0383 N   0  0  0  0  0  0
  -25.4329  -15.1890   20.3886 N   0  0  0  0  0  0
  -31.8526  -14.6038   20.0978 O   0  0  0  0  0  0
  -21.6636   -6.8885   21.4244 O   0  0  0  0  0  0
  -22.3566  -14.5596   20.6685 O   0  0  0  0  0  0
  -24.6114  -31.8726   23.2067 C   0  0  0  0  0  0
  -25.9022  -32.4829   23.8400 C   0  0  1  0  0  0
  -27.2254  -27.4461   20.1259 C   0  0  0  0  0  0
  -25.5893  -33.8619   24.2370 N   0  0  0  0  0  0
  -23.4011  -30.4908   21.5450 C   0  0  2  0  0  0
  -24.8557  -28.9698   20.0970 C   0  0  0  0  0  0
  -22.7415  -29.4686   22.4957 C   0  0  0  0  0  0
  -18.0296  -28.1385   22.8461 C   0  0  0  0  0  0
  -24.1491  -36.7300   23.2635 C   0  0  0  0  0  0
  -25.9261  -30.8422   21.3595 C   0  0  0  0  0  0
  -26.0047  -29.4726   20.7222 C   0  0  0  0  0  0
  -27.1924  -28.7116   20.7500 C   0  0  0  0  0  0
  -26.0908  -26.9849   19.4335 C   0  0  0  0  0  0
  -24.8942  -27.7252   19.4450 C   0  0  0  0  0  0
  -23.6091  -29.8228   20.1551 C   0  0  0  0  0  0
  -25.4104  -36.3116   24.0352 C   0  0  1  0  0  0
  -20.5886  -28.3685   23.1308 C   0  0  2  0  0  0
  -20.6813  -26.9416   22.5437 C   0  0  0  0  0  0
  -19.5800  -26.6378   21.5233 C   0  0  0  0  0  0
  -18.1969  -26.7930   22.1605 C   0  0  0  0  0  0
  -19.1532  -28.8866   23.2867 C   0  0  0  0  0  0
  -18.9455  -30.1482   23.8854 C   0  0  0  0  0  0
  -17.6446  -30.6597   24.0520 C   0  0  0  0  0  0
  -25.9025  -34.9469   23.5157 C   0  0  0  0  0  0
  -16.5351  -29.9071   23.6290 C   0  0  0  0  0  0
  -16.7289  -28.6499   23.0302 C   0  0  0  0  0  0
  -26.4472  -31.6577   25.0690 C   0  0  0  0  0  0
  -25.3732  -31.3654   26.1425 C   0  0  0  0  0  0
  -27.0325  -30.3034   24.6020 C   0  0  0  0  0  0
  -27.6092  -32.4279   25.7411 C   0  0  0  0  0  0
  -27.5589  -37.1801   24.8476 C   0  0  0  0  0  0
  -21.4148  -29.3025   22.3656 N   0  0  0  0  0  0
  -26.4303  -37.3792   23.9418 N   0  0  0  0  0  0
  -24.6639  -31.0825   22.0969 N   0  0  0  0  0  0
  -23.4187  -28.8294   23.3056 O   0  0  0  0  0  0
  -28.3482  -26.6589   20.1611 O   0  0  0  0  0  0
  -26.5580  -34.8922   22.4711 O   0  0  0  0  0  0
  -23.5300  -32.1497   23.7442 O   0  0  0  0  0  0
  -28.0752  -20.2729   20.3023 C   0  0  0  0  0  0
  -26.0272  -20.7538   21.0855 C   0  0  0  0  0  0
  -27.0463  -21.2700   20.3269 C   0  0  0  0  0  0
  -27.6004  -19.1814   20.9827 C   0  0  0  0  0  0
  -26.2442  -24.6056   21.7411 C   0  0  0  0  0  0
  -25.4613  -18.5809   22.2125 C   0  0  0  0  0  0
  -26.9987  -22.5916   19.5842 C   0  0  0  0  0  0
  -27.9928  -23.6939   20.0182 C   0  0  0  0  0  0
  -29.6158  -17.9140   21.6090 C   0  0  0  0  0  0
  -30.4942  -16.8736   20.8916 C   0  0  0  0  0  0
  -28.4890  -25.8441   21.3419 C   0  0  0  0  0  0
  -27.7248  -24.4813   21.3290 C   0  0  1  0  0  0
  -26.3382  -19.4602   21.4645 N   0  0  0  0  0  0
  -28.2378  -17.9439   21.1310 N   0  0  0  0  0  0
  -30.0115  -15.4946   21.0076 N   0  0  0  0  0  0
  -31.4619  -12.3669   19.1134 H   0  0  0  0  0  0
  -30.3123  -11.2735   19.8248 H   0  0  0  0  0  0
  -29.7195  -11.7431   17.4298 H   0  0  0  0  0  0
  -29.6620  -13.4578   17.7534 H   0  0  0  0  0  0
  -27.8217  -11.2975   18.8278 H   0  0  0  0  0  0
  -27.3578  -12.6164   17.7889 H   0  0  0  0  0  0
  -27.7058  -14.2485   19.5650 H   0  0  0  0  0  0
  -28.6761  -11.9617   21.3578 H   0  0  0  0  0  0
  -28.4811  -13.6137   21.8588 H   0  0  0  0  0  0
  -25.2753   -9.5674   22.4765 H   0  0  0  0  0  0
  -23.9989   -7.4633   22.7471 H   0  0  0  0  0  0
  -21.0844   -8.8807   19.8952 H   0  0  0  0  0  0
  -22.3722  -10.9688   19.6173 H   0  0  0  0  0  0
  -21.2020   -7.6141   23.9739 H   0  0  0  0  0  0
  -21.1487   -6.0500   25.9086 H   0  0  0  0  0  0
  -22.0600   -2.7605   23.2837 H   0  0  0  0  0  0
  -22.4032  -11.9934   22.4766 H   0  0  0  0  0  0
  -21.1081  -13.1338   22.2587 H   0  0  0  0  0  0
  -24.6474  -15.8279   20.4312 H   0  0  0  0  0  0
  -26.2661  -15.6090   19.9954 H   0  0  0  0  0  0
  -26.7103  -32.5592   23.1184 H   0  0  0  0  0  0
  -25.0081  -33.9816   25.0533 H   0  0  0  0  0  0
  -22.6870  -31.3037   21.4041 H   0  0  0  0  0  0
  -23.3758  -35.9632   23.3310 H   0  0  0  0  0  0
  -24.3561  -36.8872   22.2042 H   0  0  0  0  0  0
  -23.7234  -37.6508   23.6623 H   0  0  0  0  0  0
  -26.0272  -31.6007   20.5820 H   0  0  0  0  0  0
  -26.8207  -30.9135   21.9659 H   0  0  0  0  0  0
  -28.0718  -29.0874   21.2548 H   0  0  0  0  0  0
  -26.1301  -26.0380   18.9130 H   0  0  0  0  0  0
  -24.0223  -27.3434   18.9328 H   0  0  0  0  0  0
  -23.6996  -30.5998   19.3962 H   0  0  0  0  0  0
  -22.7439  -29.2256   19.8679 H   0  0  0  0  0  0
  -25.1276  -36.1982   25.0847 H   0  0  0  0  0  0
  -20.9991  -28.3289   24.1432 H   0  0  0  0  0  0
  -20.5756  -26.2314   23.3637 H   0  0  0  0  0  0
  -21.6696  -26.7493   22.1235 H   0  0  0  0  0  0
  -19.6989  -25.6284   21.1263 H   0  0  0  0  0  0
  -19.6772  -27.3196   20.6772 H   0  0  0  0  0  0
  -17.4280  -26.6690   21.3965 H   0  0  0  0  0  0
  -18.0324  -26.0068   22.8986 H   0  0  0  0  0  0
  -19.7933  -30.7325   24.2192 H   0  0  0  0  0  0
  -17.4973  -31.6275   24.5137 H   0  0  0  0  0  0
  -15.5348  -30.2957   23.7595 H   0  0  0  0  0  0
  -15.8697  -28.0812   22.7016 H   0  0  0  0  0  0
  -24.5910  -30.7020   25.7715 H   0  0  0  0  0  0
  -24.8921  -32.2810   26.4893 H   0  0  0  0  0  0
  -25.8053  -30.8778   27.0171 H   0  0  0  0  0  0
  -26.2882  -29.6738   24.1137 H   0  0  0  0  0  0
  -27.4229  -29.7282   25.4435 H   0  0  0  0  0  0
  -27.8642  -30.4398   23.9089 H   0  0  0  0  0  0
  -27.2775  -33.3574   26.2035 H   0  0  0  0  0  0
  -28.3835  -32.6826   25.0169 H   0  0  0  0  0  0
  -28.0846  -31.8371   26.5248 H   0  0  0  0  0  0
  -28.2637  -38.0081   24.7513 H   0  0  0  0  0  0
  -28.1064  -36.2606   24.6324 H   0  0  0  0  0  0
  -27.2298  -37.1471   25.8882 H   0  0  0  0  0  0
  -20.9319  -29.8580   21.6725 H   0  0  0  0  0  0
  -26.0190  -38.2872   24.1407 H   0  0  0  0  0  0
  -29.0253  -20.3370   19.7878 H   0  0  0  0  0  0
  -25.0680  -21.1817   21.3512 H   0  0  0  0  0  0
  -25.7965  -23.6300   21.9313 H   0  0  0  0  0  0
  -25.6202  -25.0777   20.9915 H   0  0  0  0  0  0
  -26.1408  -25.1772   22.6633 H   0  0  0  0  0  0
  -24.7972  -18.0586   21.5231 H   0  0  0  0  0  0
  -24.8585  -19.1650   22.9083 H   0  0  0  0  0  0
  -26.0359  -17.8467   22.7773 H   0  0  0  0  0  0
  -25.9795  -22.9758   19.5882 H   0  0  0  0  0  0
  -27.2004  -22.3649   18.5364 H   0  0  0  0  0  0
  -27.9967  -24.4109   19.1996 H   0  0  0  0  0  0
  -29.0017  -23.2855   20.0458 H   0  0  0  0  0  0
  -30.0799  -18.8954   21.4990 H   0  0  0  0  0  0
  -29.6023  -17.7101   22.6800 H   0  0  0  0  0  0
  -31.5025  -16.9295   21.3076 H   0  0  0  0  0  0
  -30.5860  -17.1327   19.8368 H   0  0  0  0  0  0
  -28.2395  -26.4115   22.2412 H   0  0  0  0  0  0
  -29.5559  -25.6332   21.4299 H   0  0  0  0  0  0
  -28.1666  -23.8874   22.1306 H   0  0  0  0  0  0
  -27.6482  -17.2510   21.5778 H   0  0  0  0  0  0
  -29.0578  -15.3436   21.2941 H   0  0  0  0  0  0
  1 25  1  0  0  0
  1 30  2  0  0  0
  1 85  1  0  0  0
  2  3  1  0  0  0
  2 25  1  0  0  0
  2 86  1  0  0  0
  2 87  1  0  0  0
  3  4  1  0  0  0
  3 88  1  0  0  0
  3 89  1  0  0  0
  4  5  1  0  0  0
  4 90  1  0  0  0
  4 91  1  0  0  0
  5  6  1  0  0  0
  5 26  1  0  0  0
  5 92  1  0  0  0
  6 25  1  0  0  0
  6 93  1  0  0  0
  6 94  1  0  0  0
  7  8  2  0  0  0
  7 26  1  0  0  0
  7 29  1  0  0  0
  8  9  1  0  0  0
  8 22  1  0  0  0
  9 10  1  0  0  0
  9 27  2  0  0  0
 10 11  2  0  0  0
 10 15  1  0  0  0
 11 12  1  0  0  0
 11 95  1  0  0  0
 12 13  2  0  0  0
 12 96  1  0  0  0
 13 14  1  0  0  0
 13 31  1  0  0  0
 14 15  2  0  0  0
 14 97  1  0  0  0
 15 98  1  0  0  0
 16 17  2  0  0  0
 16 21  1  0  0  0
 16 31  1  0  0  0
 17 18  1  0  0  0
 17 99  1  0  0  0
 18 19  2  0  0  0
 18100  1  0  0  0
 19 20  1  0  0  0
 19 24  1  0  0  0
 20 21  2  0  0  0
 20101  1  0  0  0
 21 23  1  0  0  0
 22 28  1  0  0  0
 22 32  2  0  0  0
 26 27  1  0  0  0
 28102  1  0  0  0
 28103  1  0  0  0
 29104  1  0  0  0
 29105  1  0  0  0
 33 34  1  0  0  0
 33 66  1  0  0  0
 33 70  2  0  0  0
 34 36  1  0  0  0
 34 59  1  0  0  0
 34106  1  0  0  0
 35 44  2  0  0  0
 35 45  1  0  0  0
 35 68  1  0  0  0
 36 56  1  0  0  0
 36107  1  0  0  0
 37 39  1  0  0  0
 37 47  1  0  0  0
 37 66  1  0  0  0
 37108  1  0  0  0
 38 43  2  0  0  0
 38 46  1  0  0  0
 38 47  1  0  0  0
 39 64  1  0  0  0
 39 67  2  0  0  0
 40 52  1  0  0  0
 40 53  2  0  0  0
 40 58  1  0  0  0
 41109  1  0  0  0
 41110  1  0  0  0
 41111  1  0  0  0
 41 48  1  0  0  0
 42 43  1  0  0  0
 42 66  1  0  0  0
 42112  1  0  0  0
 42113  1  0  0  0
 43 44  1  0  0  0
 44114  1  0  0  0
 45 46  2  0  0  0
 45115  1  0  0  0
 46116  1  0  0  0
 47117  1  0  0  0
 47118  1  0  0  0
 48 56  1  0  0  0
 48 65  1  0  0  0
 48119  1  0  0  0
 49 50  1  0  0  0
 49 53  1  0  0  0
 49 64  1  0  0  0
 49120  1  0  0  0
 50 51  1  0  0  0
 50121  1  0  0  0
 50122  1  0  0  0
 51 52  1  0  0  0
 51123  1  0  0  0
 51124  1  0  0  0
 52125  1  0  0  0
 52126  1  0  0  0
 53 54  1  0  0  0
 54 55  2  0  0  0
 54127  1  0  0  0
 55 57  1  0  0  0
 55128  1  0  0  0
 56 69  2  0  0  0
 57 58  2  0  0  0
 57129  1  0  0  0
 58130  1  0  0  0
 59 60  1  0  0  0
 59 61  1  0  0  0
 59 62  1  0  0  0
 60131  1  0  0  0
 60132  1  0  0  0
 60133  1  0  0  0
 61134  1  0  0  0
 61135  1  0  0  0
 61136  1  0  0  0
 62137  1  0  0  0
 62138  1  0  0  0
 62139  1  0  0  0
 63 65  1  0  0  0
 63140  1  0  0  0
 63141  1  0  0  0
 63142  1  0  0  0
 64143  1  0  0  0
 65144  1  0  0  0
 68 81  1  0  0  0
 71 73  1  0  0  0
 71 74  2  0  0  0
 71145  1  0  0  0
 72 73  2  0  0  0
 72 83  1  0  0  0
 72146  1  0  0  0
 73 77  1  0  0  0
 74 83  1  0  0  0
 74 84  1  0  0  0
 75147  1  0  0  0
 75148  1  0  0  0
 75149  1  0  0  0
 75 82  1  0  0  0
 76 83  1  0  0  0
 76150  1  0  0  0
 76151  1  0  0  0
 76152  1  0  0  0
 77 78  1  0  0  0
 77153  1  0  0  0
 77154  1  0  0  0
 78 82  1  0  0  0
 78155  1  0  0  0
 78156  1  0  0  0
 79 80  1  0  0  0
 79 84  1  0  0  0
 79157  1  0  0  0
 79158  1  0  0  0
 80 85  1  0  0  0
 80159  1  0  0  0
 80160  1  0  0  0
 81 82  1  0  0  0
 81161  1  0  0  0
 81162  1  0  0  0
 82163  1  0  0  0
 84164  1  0  0  0
 85165  1  0  0  0
M  ISO  4   1 100  68 101  81 101  85 100
M  END
> <chiral flag>
0

> <version>
0

> <s_m_source_file>
/data/baiqing/PycharmProjects/Reinvent-master-3.2/result/LINK_invent/BTK/process_docking_weight1_custom_sum_contain_oxygen_bond_distance_aromatic_linkinvent_7_9_3/rearranged_h_0119.sdf

> <i_m_source_file_index>
51

> <r_mmod_Potential_Energy-OPLS-2005>
-144.698150634766

> <r_mmod_Stretch_Energy-OPLS-2005>
34.2053031921387

> <r_mmod_Bend_Energy-OPLS-2005>
112.200065612793

> <r_mmod_Torsional_Energy-OPLS-2005>
269.121612548828

> <r_mmod_Improper_Torsional_Energy-OPLS-2005>
9.38465881347656

> <r_mmod_Van_der_Waal_Energy-OPLS-2005>
120.090950012207

> <r_mmod_Electrostatic_Energy-OPLS-2005>
-496.122039794922

> <r_mmod_Solvation_Energy-OPLS-2005>
-209.406600952148

> <b_mmod_Minimization_Converged-OPLS-2005>
0

> <r_mmod_RMS_Derivative-OPLS-2005>
4.25696659088135

$$$$
51
                    3D
 Structure written by MMmdl.
161170  0  0  1  0            999 V2000
  -30.6247  -14.7196   20.4853 C   0  0  0  0  0  0
  -30.4408  -12.4486   19.4520 C   0  0  0  0  0  0
  -29.5102  -12.4979   18.2192 C   0  0  0  0  0  0
  -28.0365  -12.3223   18.6383 C   0  0  0  0  0  0
  -27.6443  -13.2234   19.8391 C   0  0  2  0  0  0
  -28.6924  -13.1483   20.9692 C   0  0  0  0  0  0
  -25.2560  -13.8171   20.5686 C   0  0  0  0  0  0
  -24.1828  -13.0432   20.9210 C   0  0  0  0  0  0
  -24.6398  -11.6912   20.8735 C   0  0  0  0  0  0
  -23.9062  -10.4296   21.0418 C   0  0  0  0  0  0
  -24.3615   -9.4220   21.9204 C   0  0  0  0  0  0
  -23.6295   -8.2249   22.0772 C   0  0  0  0  0  0
  -22.4283   -8.0276   21.3551 C   0  0  0  0  0  0
  -21.9912   -9.0256   20.4657 C   0  0  0  0  0  0
  -22.7232  -10.2141   20.3069 C   0  0  0  0  0  0
  -21.6843   -6.0737   22.5293 C   0  0  0  0  0  0
  -21.4014   -6.5646   23.8224 C   0  0  0  0  0  0
  -21.3655   -5.6804   24.9183 C   0  0  0  0  0  0
  -21.6040   -4.3068   24.7234 C   0  0  0  0  0  0
  -21.8817   -3.8153   23.4358 C   0  0  0  0  0  0
  -21.9198   -4.6968   22.3418 C   0  0  0  0  0  0
  -22.7855  -13.5250   21.1864 C   0  0  0  0  0  0
  -22.1662   -4.2150   21.0995 F   0  0  0  0  0  0
  -21.5625   -3.4554   25.7743 F   0  0  0  0  0  0
  -29.9918  -13.5044   20.3853 N   0  0  0  0  0  0
  -26.2964  -12.9357   20.3220 N   0  0  0  0  0  0
  -25.9322  -11.6516   20.5708 N   0  0  0  0  0  0
  -22.0468  -12.8248   22.0400 N   0  0  0  0  0  0
  -25.4249  -15.1884   20.4100 N   0  0  0  0  0  0
  -31.8246  -14.8180   20.2242 O   0  0  0  0  0  0
  -21.6637   -6.8877   21.4253 O   0  0  0  0  0  0
  -22.3558  -14.5559   20.6705 O   0  0  0  0  0  0
  -24.6337  -31.8541   23.1965 C   0  0  0  0  0  0
  -25.9167  -32.4745   23.8307 C   0  0  1  0  0  0
  -27.2183  -27.2610   20.1266 C   0  0  0  0  0  0
  -25.5976  -33.8547   24.2227 N   0  0  0  0  0  0
  -23.4325  -30.4754   21.5393 C   0  0  2  0  0  0
  -24.8822  -28.9273   20.1044 C   0  0  0  0  0  0
  -22.7535  -29.4558   22.4875 C   0  0  0  0  0  0
  -18.0264  -28.1412   22.8441 C   0  0  0  0  0  0
  -24.1481  -36.7273   23.2636 C   0  0  0  0  0  0
  -25.9806  -30.7659   21.3805 C   0  0  0  0  0  0
  -26.0531  -29.3893   20.7208 C   0  0  0  0  0  0
  -27.2256  -28.5669   20.7252 C   0  0  0  0  0  0
  -26.0322  -26.8765   19.4661 C   0  0  0  0  0  0
  -24.8753  -27.6773   19.4690 C   0  0  0  0  0  0
  -23.6538  -29.8144   20.1537 C   0  0  0  0  0  0
  -25.4111  -36.3049   24.0311 C   0  0  1  0  0  0
  -20.5877  -28.3708   23.1247 C   0  0  2  0  0  0
  -20.6777  -26.9416   22.5407 C   0  0  0  0  0  0
  -19.5767  -26.6370   21.5203 C   0  0  0  0  0  0
  -18.1927  -26.7935   22.1593 C   0  0  0  0  0  0
  -19.1534  -28.8871   23.2824 C   0  0  0  0  0  0
  -18.9472  -30.1463   23.8854 C   0  0  0  0  0  0
  -17.6486  -30.6615   24.0545 C   0  0  0  0  0  0
  -25.9067  -34.9428   23.5062 C   0  0  0  0  0  0
  -16.5358  -29.9121   23.6349 C   0  0  0  0  0  0
  -16.7250  -28.6546   23.0337 C   0  0  0  0  0  0
  -26.4519  -31.6603   25.0725 C   0  0  0  0  0  0
  -25.3730  -31.3797   26.1460 C   0  0  0  0  0  0
  -27.0440  -30.3029   24.6255 C   0  0  0  0  0  0
  -27.6047  -32.4375   25.7521 C   0  0  0  0  0  0
  -27.5568  -37.1772   24.8458 C   0  0  0  0  0  0
  -21.4233  -29.3057   22.3661 N   0  0  0  0  0  0
  -26.4278  -37.3753   23.9408 N   0  0  0  0  0  0
  -24.7010  -31.0489   22.0949 N   0  0  0  0  0  0
  -23.4232  -28.8061   23.2947 O   0  0  0  0  0  0
  -28.2961  -26.3459   20.1670 O   0  0  0  0  0  0
  -26.5630  -34.8922   22.4623 O   0  0  0  0  0  0
  -23.5485  -32.1374   23.7251 O   0  0  0  0  0  0
  -30.2591  -21.0020   18.9810 C   0  0  0  0  0  0
  -30.9844  -18.7963   19.2168 C   0  0  0  0  0  0
  -29.4279  -20.8985   20.1162 C   0  0  0  0  0  0
  -30.1072  -18.5802   20.3145 C   0  0  0  0  0  0
  -33.3021  -17.6805   19.6061 C   0  0  0  0  0  0
  -33.3652  -18.2366   18.2117 C   0  0  0  0  0  0
  -32.0278  -17.7998   18.7889 C   0  0  0  0  0  0
  -27.9232  -24.9901   22.1260 C   0  0  0  0  0  0
  -28.6141  -22.1688   20.6255 C   0  0  0  0  0  0
  -30.2102  -17.2412   21.1754 C   0  0  0  0  0  0
  -28.9526  -23.6858   20.1301 C   0  0  0  0  0  0
  -28.0134  -24.9262   20.5940 C   0  0  2  0  0  0
  -31.0135  -19.9702   18.5333 N   0  0  0  0  0  0
  -29.3382  -19.6605   20.7574 N   0  0  0  0  0  0
  -29.8449  -15.8409   20.6945 N   0  0  0  0  0  0
  -31.4785  -12.5853   19.1435 H   0  0  0  0  0  0
  -30.3960  -11.4691   19.9334 H   0  0  0  0  0  0
  -29.7865  -11.7202   17.5060 H   0  0  0  0  0  0
  -29.6359  -13.4469   17.6955 H   0  0  0  0  0  0
  -27.9004  -11.2738   18.9093 H   0  0  0  0  0  0
  -27.3753  -12.5060   17.7904 H   0  0  0  0  0  0
  -27.6394  -14.2439   19.4565 H   0  0  0  0  0  0
  -28.7261  -12.1456   21.3972 H   0  0  0  0  0  0
  -28.4289  -13.8206   21.7869 H   0  0  0  0  0  0
  -25.2749   -9.5702   22.4794 H   0  0  0  0  0  0
  -23.9990   -7.4648   22.7509 H   0  0  0  0  0  0
  -21.0832   -8.8787   19.8973 H   0  0  0  0  0  0
  -22.3686  -10.9691   19.6188 H   0  0  0  0  0  0
  -21.1996   -7.6153   23.9723 H   0  0  0  0  0  0
  -21.1472   -6.0535   25.9085 H   0  0  0  0  0  0
  -22.0590   -2.7615   23.2866 H   0  0  0  0  0  0
  -22.4032  -11.9892   22.4797 H   0  0  0  0  0  0
  -21.1096  -13.1330   22.2587 H   0  0  0  0  0  0
  -24.6571  -15.8400   20.5281 H   0  0  0  0  0  0
  -26.2656  -15.6316   20.0633 H   0  0  0  0  0  0
  -26.7236  -32.5386   23.1048 H   0  0  0  0  0  0
  -25.0174  -33.9675   25.0411 H   0  0  0  0  0  0
  -22.7272  -31.2952   21.3924 H   0  0  0  0  0  0
  -23.3751  -35.9601   23.3290 H   0  0  0  0  0  0
  -24.3558  -36.8932   22.2052 H   0  0  0  0  0  0
  -23.7245  -37.6459   23.6701 H   0  0  0  0  0  0
  -26.1264  -31.5277   20.6136 H   0  0  0  0  0  0
  -26.8559  -30.8105   22.0167 H   0  0  0  0  0  0
  -28.1201  -28.9065   21.2314 H   0  0  0  0  0  0
  -25.9791  -25.9327   18.9443 H   0  0  0  0  0  0
  -23.9818  -27.3201   18.9761 H   0  0  0  0  0  0
  -23.7817  -30.5950   19.4036 H   0  0  0  0  0  0
  -22.7746  -29.2497   19.8387 H   0  0  0  0  0  0
  -25.1277  -36.1875   25.0797 H   0  0  0  0  0  0
  -20.9910  -28.3307   24.1392 H   0  0  0  0  0  0
  -20.5714  -26.2295   23.3608 H   0  0  0  0  0  0
  -21.6646  -26.7486   22.1179 H   0  0  0  0  0  0
  -19.6960  -25.6266   21.1287 H   0  0  0  0  0  0
  -19.6759  -27.3146   20.6702 H   0  0  0  0  0  0
  -17.4200  -26.6613   21.4000 H   0  0  0  0  0  0
  -18.0345  -26.0121   22.9031 H   0  0  0  0  0  0
  -19.7968  -30.7240   24.2252 H   0  0  0  0  0  0
  -17.5075  -31.6307   24.5133 H   0  0  0  0  0  0
  -15.5372  -30.3021   23.7760 H   0  0  0  0  0  0
  -15.8613  -28.0891   22.7075 H   0  0  0  0  0  0
  -24.5847  -30.7208   25.7790 H   0  0  0  0  0  0
  -24.9001  -32.3006   26.4879 H   0  0  0  0  0  0
  -25.8038  -30.8964   27.0243 H   0  0  0  0  0  0
  -26.3066  -29.6674   24.1341 H   0  0  0  0  0  0
  -27.4192  -29.7376   25.4796 H   0  0  0  0  0  0
  -27.8889  -30.4306   23.9489 H   0  0  0  0  0  0
  -27.2628  -33.3685   26.2051 H   0  0  0  0  0  0
  -28.3907  -32.6922   25.0402 H   0  0  0  0  0  0
  -28.0664  -31.8545   26.5495 H   0  0  0  0  0  0
  -28.2552  -38.0097   24.7533 H   0  0  0  0  0  0
  -28.1102  -36.2628   24.6261 H   0  0  0  0  0  0
  -27.2294  -37.1379   25.8862 H   0  0  0  0  0  0
  -20.9433  -29.8826   21.6894 H   0  0  0  0  0  0
  -26.0153  -38.2815   24.1456 H   0  0  0  0  0  0
  -30.3502  -21.9272   18.4323 H   0  0  0  0  0  0
  -33.4417  -18.3792   20.4297 H   0  0  0  0  0  0
  -33.7256  -16.6909   19.7601 H   0  0  0  0  0  0
  -33.8279  -17.6080   17.4534 H   0  0  0  0  0  0
  -33.5598  -19.3017   18.1044 H   0  0  0  0  0  0
  -31.5786  -16.8868   18.4044 H   0  0  0  0  0  0
  -27.6051  -24.0381   22.5501 H   0  0  0  0  0  0
  -27.1956  -25.7354   22.4463 H   0  0  0  0  0  0
  -28.8821  -25.2538   22.5725 H   0  0  0  0  0  0
  -28.6777  -22.1448   21.7126 H   0  0  0  0  0  0
  -27.5687  -21.9669   20.3889 H   0  0  0  0  0  0
  -29.6148  -17.4050   22.0748 H   0  0  0  0  0  0
  -31.2366  -17.1963   21.5407 H   0  0  0  0  0  0
  -28.9399  -23.6827   19.0408 H   0  0  0  0  0  0
  -29.9832  -23.9085   20.4072 H   0  0  0  0  0  0
  -27.0218  -24.6404   20.2504 H   0  0  0  0  0  0
  -28.8577  -15.6427   20.7410 H   0  0  0  0  0  0
  1 25  1  0  0  0
  1 30  2  0  0  0
  1 85  1  0  0  0
  2  3  1  0  0  0
  2 25  1  0  0  0
  2 86  1  0  0  0
  2 87  1  0  0  0
  3  4  1  0  0  0
  3 88  1  0  0  0
  3 89  1  0  0  0
  4  5  1  0  0  0
  4 90  1  0  0  0
  4 91  1  0  0  0
  5  6  1  0  0  0
  5 26  1  0  0  0
  5 92  1  0  0  0
  6 25  1  0  0  0
  6 93  1  0  0  0
  6 94  1  0  0  0
  7  8  2  0  0  0
  7 26  1  0  0  0
  7 29  1  0  0  0
  8  9  1  0  0  0
  8 22  1  0  0  0
  9 10  1  0  0  0
  9 27  2  0  0  0
 10 11  2  0  0  0
 10 15  1  0  0  0
 11 12  1  0  0  0
 11 95  1  0  0  0
 12 13  2  0  0  0
 12 96  1  0  0  0
 13 14  1  0  0  0
 13 31  1  0  0  0
 14 15  2  0  0  0
 14 97  1  0  0  0
 15 98  1  0  0  0
 16 17  2  0  0  0
 16 21  1  0  0  0
 16 31  1  0  0  0
 17 18  1  0  0  0
 17 99  1  0  0  0
 18 19  2  0  0  0
 18100  1  0  0  0
 19 20  1  0  0  0
 19 24  1  0  0  0
 20 21  2  0  0  0
 20101  1  0  0  0
 21 23  1  0  0  0
 22 28  1  0  0  0
 22 32  2  0  0  0
 26 27  1  0  0  0
 28102  1  0  0  0
 28103  1  0  0  0
 29104  1  0  0  0
 29105  1  0  0  0
 33 34  1  0  0  0
 33 66  1  0  0  0
 33 70  2  0  0  0
 34 36  1  0  0  0
 34 59  1  0  0  0
 34106  1  0  0  0
 35 44  2  0  0  0
 35 45  1  0  0  0
 35 68  1  0  0  0
 36 56  1  0  0  0
 36107  1  0  0  0
 37 39  1  0  0  0
 37 47  1  0  0  0
 37 66  1  0  0  0
 37108  1  0  0  0
 38 43  2  0  0  0
 38 46  1  0  0  0
 38 47  1  0  0  0
 39 64  1  0  0  0
 39 67  2  0  0  0
 40 52  1  0  0  0
 40 53  2  0  0  0
 40 58  1  0  0  0
 41109  1  0  0  0
 41110  1  0  0  0
 41111  1  0  0  0
 41 48  1  0  0  0
 42 43  1  0  0  0
 42 66  1  0  0  0
 42112  1  0  0  0
 42113  1  0  0  0
 43 44  1  0  0  0
 44114  1  0  0  0
 45 46  2  0  0  0
 45115  1  0  0  0
 46116  1  0  0  0
 47117  1  0  0  0
 47118  1  0  0  0
 48 56  1  0  0  0
 48 65  1  0  0  0
 48119  1  0  0  0
 49 50  1  0  0  0
 49 53  1  0  0  0
 49 64  1  0  0  0
 49120  1  0  0  0
 50 51  1  0  0  0
 50121  1  0  0  0
 50122  1  0  0  0
 51 52  1  0  0  0
 51123  1  0  0  0
 51124  1  0  0  0
 52125  1  0  0  0
 52126  1  0  0  0
 53 54  1  0  0  0
 54 55  2  0  0  0
 54127  1  0  0  0
 55 57  1  0  0  0
 55128  1  0  0  0
 56 69  2  0  0  0
 57 58  2  0  0  0
 57129  1  0  0  0
 58130  1  0  0  0
 59 60  1  0  0  0
 59 61  1  0  0  0
 59 62  1  0  0  0
 60131  1  0  0  0
 60132  1  0  0  0
 60133  1  0  0  0
 61134  1  0  0  0
 61135  1  0  0  0
 61136  1  0  0  0
 62137  1  0  0  0
 62138  1  0  0  0
 62139  1  0  0  0
 63 65  1  0  0  0
 63140  1  0  0  0
 63141  1  0  0  0
 63142  1  0  0  0
 64143  1  0  0  0
 65144  1  0  0  0
 68 82  1  0  0  0
 71 73  2  0  0  0
 71 83  1  0  0  0
 71145  1  0  0  0
 72 74  1  0  0  0
 72 83  2  0  0  0
 72 77  1  0  0  0
 73 79  1  0  0  0
 73 84  1  0  0  0
 74 80  1  0  0  0
 74 84  2  0  0  0
 75 76  1  0  0  0
 75 77  1  0  0  0
 75146  1  0  0  0
 75147  1  0  0  0
 76 77  1  0  0  0
 76148  1  0  0  0
 76149  1  0  0  0
 77150  1  0  0  0
 78151  1  0  0  0
 78152  1  0  0  0
 78153  1  0  0  0
 78 82  1  0  0  0
 79 81  1  0  0  0
 79154  1  0  0  0
 79155  1  0  0  0
 80 85  1  0  0  0
 80156  1  0  0  0
 80157  1  0  0  0
 81 82  1  0  0  0
 81158  1  0  0  0
 81159  1  0  0  0
 82160  1  0  0  0
 85161  1  0  0  0
M  ISO  4   1 100  68 101  82 101  85 100
M  END
> <chiral flag>
0

> <version>
0

> <s_m_source_file>
/data/baiqing/PycharmProjects/Reinvent-master-3.2/result/LINK_invent/BTK/process_docking_weight1_custom_sum_contain_oxygen_bond_distance_aromatic_linkinvent_7_9_3/rearranged_h_0119.sdf

> <i_m_source_file_index>
52

> <r_mmod_Potential_Energy-OPLS-2005>
168.974075317383

> <r_mmod_Stretch_Energy-OPLS-2005>
125.149673461914

> <r_mmod_Bend_Energy-OPLS-2005>
169.276748657227

> <r_mmod_Torsional_Energy-OPLS-2005>
249.541091918945

> <r_mmod_Improper_Torsional_Energy-OPLS-2005>
6.02600049972534

> <r_mmod_Van_der_Waal_Energy-OPLS-2005>
133.871566772461

> <r_mmod_Electrostatic_Energy-OPLS-2005>
-382.870452880859

> <r_mmod_Solvation_Energy-OPLS-2005>
-216.152084350586

> <b_mmod_Minimization_Converged-OPLS-2005>
0

> <r_mmod_RMS_Derivative-OPLS-2005>
2.84364700317383

$$$$
52
                    3D
 Structure written by MMmdl.
160168  0  0  1  0            999 V2000
  -30.6166  -14.7361   20.4795 C   0  0  0  0  0  0
  -30.4359  -12.4543   19.4636 C   0  0  0  0  0  0
  -29.5092  -12.5060   18.2293 C   0  0  0  0  0  0
  -28.0362  -12.3284   18.6467 C   0  0  0  0  0  0
  -27.6422  -13.2293   19.8475 C   0  0  2  0  0  0
  -28.6886  -13.1583   20.9802 C   0  0  0  0  0  0
  -25.2512  -13.8189   20.5673 C   0  0  0  0  0  0
  -24.1805  -13.0436   20.9197 C   0  0  0  0  0  0
  -24.6400  -11.6914   20.8750 C   0  0  0  0  0  0
  -23.9078  -10.4291   21.0413 C   0  0  0  0  0  0
  -24.3629   -9.4205   21.9189 C   0  0  0  0  0  0
  -23.6295   -8.2245   22.0759 C   0  0  0  0  0  0
  -22.4276   -8.0287   21.3552 C   0  0  0  0  0  0
  -21.9916   -9.0263   20.4654 C   0  0  0  0  0  0
  -22.7253  -10.2137   20.3061 C   0  0  0  0  0  0
  -21.6853   -6.0736   22.5278 C   0  0  0  0  0  0
  -21.4020   -6.5639   23.8214 C   0  0  0  0  0  0
  -21.3658   -5.6791   24.9174 C   0  0  0  0  0  0
  -21.6039   -4.3054   24.7222 C   0  0  0  0  0  0
  -21.8817   -3.8145   23.4343 C   0  0  0  0  0  0
  -21.9195   -4.6962   22.3399 C   0  0  0  0  0  0
  -22.7828  -13.5219   21.1855 C   0  0  0  0  0  0
  -22.1659   -4.2148   21.0976 F   0  0  0  0  0  0
  -21.5630   -3.4537   25.7732 F   0  0  0  0  0  0
  -29.9885  -13.5137   20.3964 N   0  0  0  0  0  0
  -26.2939  -12.9390   20.3263 N   0  0  0  0  0  0
  -25.9329  -11.6537   20.5752 N   0  0  0  0  0  0
  -22.0470  -12.8228   22.0418 N   0  0  0  0  0  0
  -25.4182  -15.1914   20.4079 N   0  0  0  0  0  0
  -31.8063  -14.8291   20.1669 O   0  0  0  0  0  0
  -21.6642   -6.8884   21.4243 O   0  0  0  0  0  0
  -22.3516  -14.5523   20.6692 O   0  0  0  0  0  0
  -24.6305  -31.8552   23.1976 C   0  0  0  0  0  0
  -25.9133  -32.4755   23.8326 C   0  0  1  0  0  0
  -27.2238  -27.2712   20.1352 C   0  0  0  0  0  0
  -25.5932  -33.8557   24.2253 N   0  0  0  0  0  0
  -23.4280  -30.4755   21.5408 C   0  0  2  0  0  0
  -24.8774  -28.9197   20.1137 C   0  0  0  0  0  0
  -22.7504  -29.4595   22.4917 C   0  0  0  0  0  0
  -18.0293  -28.1383   22.8484 C   0  0  0  0  0  0
  -24.1490  -36.7285   23.2639 C   0  0  0  0  0  0
  -25.9723  -30.7713   21.3760 C   0  0  0  0  0  0
  -26.0486  -29.3929   20.7214 C   0  0  0  0  0  0
  -27.2286  -28.5822   20.7179 C   0  0  0  0  0  0
  -26.0342  -26.8608   19.5000 C   0  0  0  0  0  0
  -24.8747  -27.6609   19.4913 C   0  0  0  0  0  0
  -23.6473  -29.8057   20.1586 C   0  0  0  0  0  0
  -25.4118  -36.3071   24.0325 C   0  0  1  0  0  0
  -20.5895  -28.3693   23.1274 C   0  0  2  0  0  0
  -20.6781  -26.9412   22.5409 C   0  0  0  0  0  0
  -19.5757  -26.6380   21.5213 C   0  0  0  0  0  0
  -18.1936  -26.7924   22.1625 C   0  0  0  0  0  0
  -19.1545  -28.8856   23.2872 C   0  0  0  0  0  0
  -18.9466  -30.1458   23.8887 C   0  0  0  0  0  0
  -17.6465  -30.6583   24.0561 C   0  0  0  0  0  0
  -25.9057  -34.9441   23.5093 C   0  0  0  0  0  0
  -16.5356  -29.9079   23.6331 C   0  0  0  0  0  0
  -16.7280  -28.6498   23.0351 C   0  0  0  0  0  0
  -26.4502  -31.6576   25.0713 C   0  0  0  0  0  0
  -25.3722  -31.3724   26.1431 C   0  0  0  0  0  0
  -27.0352  -30.2993   24.6197 C   0  0  0  0  0  0
  -27.6058  -32.4311   25.7489 C   0  0  0  0  0  0
  -27.5578  -37.1799   24.8468 C   0  0  0  0  0  0
  -21.4209  -29.3040   22.3662 N   0  0  0  0  0  0
  -26.4294  -37.3769   23.9405 N   0  0  0  0  0  0
  -24.6958  -31.0519   22.0948 N   0  0  0  0  0  0
  -23.4203  -28.8140   23.3019 O   0  0  0  0  0  0
  -28.3106  -26.3721   20.1415 O   0  0  0  0  0  0
  -26.5633  -34.8914   22.4663 O   0  0  0  0  0  0
  -23.5455  -32.1372   23.7269 O   0  0  0  0  0  0
  -28.9812  -23.6031   18.7885 C   0  0  0  0  0  0
  -28.6465  -23.6662   20.1531 C   0  0  0  0  0  0
  -28.7618  -22.3994   20.8683 C   0  0  0  0  0  0
  -29.3804  -22.3772   18.2128 C   0  0  0  0  0  0
  -29.1812  -21.1743   20.2076 C   0  0  0  0  0  0
  -28.4124  -22.3819   22.3511 C   0  0  0  0  0  0
  -29.7210  -22.3007   16.7389 C   0  0  0  0  0  0
  -31.6373  -17.6080   21.2900 C   0  0  0  0  0  0
  -28.0944  -25.0297   20.7795 C   0  0  0  0  0  0
  -29.4885  -18.5269   20.1895 C   0  0  0  0  0  0
  -30.1399  -17.3315   21.0692 C   0  0  2  0  0  0
  -29.4703  -21.2086   18.8943 N   0  0  0  0  0  0
  -29.3403  -19.8873   20.8483 N   0  0  0  0  0  0
  -29.8392  -15.8570   20.7459 N   0  0  0  0  0  0
  -31.4757  -12.5838   19.1588 H   0  0  0  0  0  0
  -30.3854  -11.4766   19.9449 H   0  0  0  0  0  0
  -29.7911  -11.7332   17.5122 H   0  0  0  0  0  0
  -29.6333  -13.4608   17.7168 H   0  0  0  0  0  0
  -27.8972  -11.2802   18.9136 H   0  0  0  0  0  0
  -27.3770  -12.5167   17.7984 H   0  0  0  0  0  0
  -27.6372  -14.2509   19.4669 H   0  0  0  0  0  0
  -28.7242  -12.1575   21.4128 H   0  0  0  0  0  0
  -28.4244  -13.8338   21.7956 H   0  0  0  0  0  0
  -25.2778   -9.5672   22.4761 H   0  0  0  0  0  0
  -24.0000   -7.4634   22.7481 H   0  0  0  0  0  0
  -21.0844   -8.8788   19.8964 H   0  0  0  0  0  0
  -22.3720  -10.9677   19.6166 H   0  0  0  0  0  0
  -21.2015   -7.6148   23.9717 H   0  0  0  0  0  0
  -21.1484   -6.0522   25.9079 H   0  0  0  0  0  0
  -22.0598   -2.7606   23.2843 H   0  0  0  0  0  0
  -22.4085  -11.9896   22.4820 H   0  0  0  0  0  0
  -21.1087  -13.1264   22.2610 H   0  0  0  0  0  0
  -24.6451  -15.8394   20.5144 H   0  0  0  0  0  0
  -26.2559  -15.6349   20.0543 H   0  0  0  0  0  0
  -26.7199  -32.5410   23.1070 H   0  0  0  0  0  0
  -25.0076  -33.9699   25.0396 H   0  0  0  0  0  0
  -22.7243  -31.2968   21.3925 H   0  0  0  0  0  0
  -23.3751  -35.9619   23.3306 H   0  0  0  0  0  0
  -24.3579  -36.8905   22.2053 H   0  0  0  0  0  0
  -23.7245  -37.6487   23.6663 H   0  0  0  0  0  0
  -26.1081  -31.5310   20.6051 H   0  0  0  0  0  0
  -26.8512  -30.8232   22.0073 H   0  0  0  0  0  0
  -28.1279  -28.9409   21.1990 H   0  0  0  0  0  0
  -25.9949  -25.8935   19.0181 H   0  0  0  0  0  0
  -23.9793  -27.2941   19.0084 H   0  0  0  0  0  0
  -23.7711  -30.5804   19.4011 H   0  0  0  0  0  0
  -22.7665  -29.2370   19.8543 H   0  0  0  0  0  0
  -25.1297  -36.1922   25.0817 H   0  0  0  0  0  0
  -20.9987  -28.3270   24.1395 H   0  0  0  0  0  0
  -20.5686  -26.2302   23.3611 H   0  0  0  0  0  0
  -21.6648  -26.7436   22.1198 H   0  0  0  0  0  0
  -19.6922  -25.6291   21.1242 H   0  0  0  0  0  0
  -19.6695  -27.3190   20.6743 H   0  0  0  0  0  0
  -17.4206  -26.6670   21.4027 H   0  0  0  0  0  0
  -18.0340  -26.0065   22.9021 H   0  0  0  0  0  0
  -19.7943  -30.7279   24.2244 H   0  0  0  0  0  0
  -17.5019  -31.6262   24.5165 H   0  0  0  0  0  0
  -15.5355  -30.2979   23.7658 H   0  0  0  0  0  0
  -15.8681  -28.0816   22.7068 H   0  0  0  0  0  0
  -24.5910  -30.7060   25.7755 H   0  0  0  0  0  0
  -24.8899  -32.2892   26.4831 H   0  0  0  0  0  0
  -25.8037  -30.8918   27.0222 H   0  0  0  0  0  0
  -26.2937  -29.6735   24.1219 H   0  0  0  0  0  0
  -27.4035  -29.7259   25.4714 H   0  0  0  0  0  0
  -27.8812  -30.4267   23.9439 H   0  0  0  0  0  0
  -27.2675  -33.3621   26.2047 H   0  0  0  0  0  0
  -28.3882  -32.6850   25.0325 H   0  0  0  0  0  0
  -28.0712  -31.8445   26.5421 H   0  0  0  0  0  0
  -28.2597  -38.0093   24.7503 H   0  0  0  0  0  0
  -28.1068  -36.2622   24.6304 H   0  0  0  0  0  0
  -27.2293  -37.1460   25.8870 H   0  0  0  0  0  0
  -20.9396  -29.8757   21.6860 H   0  0  0  0  0  0
  -26.0172  -38.2844   24.1398 H   0  0  0  0  0  0
  -28.9133  -24.4950   18.1795 H   0  0  0  0  0  0
  -27.3874  -22.7222   22.5047 H   0  0  0  0  0  0
  -29.0780  -23.0440   22.9055 H   0  0  0  0  0  0
  -28.4960  -21.3918   22.7969 H   0  0  0  0  0  0
  -28.8279  -22.0666   16.1590 H   0  0  0  0  0  0
  -30.4664  -21.5286   16.5437 H   0  0  0  0  0  0
  -30.1221  -23.2488   16.3805 H   0  0  0  0  0  0
  -32.1967  -17.5435   20.3566 H   0  0  0  0  0  0
  -32.0776  -16.9061   21.9987 H   0  0  0  0  0  0
  -31.7950  -18.6095   21.6924 H   0  0  0  0  0  0
  -28.5338  -25.1177   21.7730 H   0  0  0  0  0  0
  -27.0311  -24.8719   20.9633 H   0  0  0  0  0  0
  -28.4867  -18.2251   19.8817 H   0  0  0  0  0  0
  -30.0557  -18.6385   19.2648 H   0  0  0  0  0  0
  -29.6780  -17.4330   22.0528 H   0  0  0  0  0  0
  -29.1579  -19.8627   21.8444 H   0  0  0  0  0  0
  -28.8666  -15.6191   20.8704 H   0  0  0  0  0  0
  1 25  1  0  0  0
  1 30  2  0  0  0
  1 84  1  0  0  0
  2  3  1  0  0  0
  2 25  1  0  0  0
  2 85  1  0  0  0
  2 86  1  0  0  0
  3  4  1  0  0  0
  3 87  1  0  0  0
  3 88  1  0  0  0
  4  5  1  0  0  0
  4 89  1  0  0  0
  4 90  1  0  0  0
  5  6  1  0  0  0
  5 26  1  0  0  0
  5 91  1  0  0  0
  6 25  1  0  0  0
  6 92  1  0  0  0
  6 93  1  0  0  0
  7  8  2  0  0  0
  7 26  1  0  0  0
  7 29  1  0  0  0
  8  9  1  0  0  0
  8 22  1  0  0  0
  9 10  1  0  0  0
  9 27  2  0  0  0
 10 11  2  0  0  0
 10 15  1  0  0  0
 11 12  1  0  0  0
 11 94  1  0  0  0
 12 13  2  0  0  0
 12 95  1  0  0  0
 13 14  1  0  0  0
 13 31  1  0  0  0
 14 15  2  0  0  0
 14 96  1  0  0  0
 15 97  1  0  0  0
 16 17  2  0  0  0
 16 21  1  0  0  0
 16 31  1  0  0  0
 17 18  1  0  0  0
 17 98  1  0  0  0
 18 19  2  0  0  0
 18 99  1  0  0  0
 19 20  1  0  0  0
 19 24  1  0  0  0
 20 21  2  0  0  0
 20100  1  0  0  0
 21 23  1  0  0  0
 22 28  1  0  0  0
 22 32  2  0  0  0
 26 27  1  0  0  0
 28101  1  0  0  0
 28102  1  0  0  0
 29103  1  0  0  0
 29104  1  0  0  0
 33 34  1  0  0  0
 33 66  1  0  0  0
 33 70  2  0  0  0
 34 36  1  0  0  0
 34 59  1  0  0  0
 34105  1  0  0  0
 35 44  2  0  0  0
 35 45  1  0  0  0
 35 68  1  0  0  0
 36 56  1  0  0  0
 36106  1  0  0  0
 37 39  1  0  0  0
 37 47  1  0  0  0
 37 66  1  0  0  0
 37107  1  0  0  0
 38 43  2  0  0  0
 38 46  1  0  0  0
 38 47  1  0  0  0
 39 64  1  0  0  0
 39 67  2  0  0  0
 40 52  1  0  0  0
 40 53  2  0  0  0
 40 58  1  0  0  0
 41108  1  0  0  0
 41109  1  0  0  0
 41110  1  0  0  0
 41 48  1  0  0  0
 42 43  1  0  0  0
 42 66  1  0  0  0
 42111  1  0  0  0
 42112  1  0  0  0
 43 44  1  0  0  0
 44113  1  0  0  0
 45 46  2  0  0  0
 45114  1  0  0  0
 46115  1  0  0  0
 47116  1  0  0  0
 47117  1  0  0  0
 48 56  1  0  0  0
 48 65  1  0  0  0
 48118  1  0  0  0
 49 50  1  0  0  0
 49 53  1  0  0  0
 49 64  1  0  0  0
 49119  1  0  0  0
 50 51  1  0  0  0
 50120  1  0  0  0
 50121  1  0  0  0
 51 52  1  0  0  0
 51122  1  0  0  0
 51123  1  0  0  0
 52124  1  0  0  0
 52125  1  0  0  0
 53 54  1  0  0  0
 54 55  2  0  0  0
 54126  1  0  0  0
 55 57  1  0  0  0
 55127  1  0  0  0
 56 69  2  0  0  0
 57 58  2  0  0  0
 57128  1  0  0  0
 58129  1  0  0  0
 59 60  1  0  0  0
 59 61  1  0  0  0
 59 62  1  0  0  0
 60130  1  0  0  0
 60131  1  0  0  0
 60132  1  0  0  0
 61133  1  0  0  0
 61134  1  0  0  0
 61135  1  0  0  0
 62136  1  0  0  0
 62137  1  0  0  0
 62138  1  0  0  0
 63 65  1  0  0  0
 63139  1  0  0  0
 63140  1  0  0  0
 63141  1  0  0  0
 64142  1  0  0  0
 65143  1  0  0  0
 68 79  1  0  0  0
 71 72  2  0  0  0
 71 74  1  0  0  0
 71144  1  0  0  0
 72 73  1  0  0  0
 72 79  1  0  0  0
 73 75  2  0  0  0
 73 76  1  0  0  0
 74 77  1  0  0  0
 74 82  2  0  0  0
 75 82  1  0  0  0
 75 83  1  0  0  0
 76145  1  0  0  0
 76146  1  0  0  0
 76147  1  0  0  0
 77148  1  0  0  0
 77149  1  0  0  0
 77150  1  0  0  0
 78151  1  0  0  0
 78152  1  0  0  0
 78153  1  0  0  0
 78 81  1  0  0  0
 79154  1  0  0  0
 79155  1  0  0  0
 80 81  1  0  0  0
 80 83  1  0  0  0
 80156  1  0  0  0
 80157  1  0  0  0
 81 84  1  0  0  0
 81158  1  0  0  0
 83159  1  0  0  0
 84160  1  0  0  0
M  ISO  4   1 100  68 101  79 101  84 100
M  END
> <chiral flag>
0

> <version>
0

> <s_m_source_file>
/data/baiqing/PycharmProjects/Reinvent-master-3.2/result/LINK_invent/BTK/process_docking_weight1_custom_sum_contain_oxygen_bond_distance_aromatic_linkinvent_7_9_3/rearranged_h_0119.sdf

> <i_m_source_file_index>
53

> <r_mmod_Potential_Energy-OPLS-2005>
-154.154571533203

> <r_mmod_Stretch_Energy-OPLS-2005>
117.921394348145

> <r_mmod_Bend_Energy-OPLS-2005>
176.010452270508

> <r_mmod_Torsional_Energy-OPLS-2005>
225.169219970703

> <r_mmod_Improper_Torsional_Energy-OPLS-2005>
4.48447465896606

> <r_mmod_Van_der_Waal_Energy-OPLS-2005>
140.593658447266

> <r_mmod_Electrostatic_Energy-OPLS-2005>
-659.164306640625

> <r_mmod_Solvation_Energy-OPLS-2005>
-239.692947387695

> <b_mmod_Minimization_Converged-OPLS-2005>
0

> <r_mmod_RMS_Derivative-OPLS-2005>
0.922197937965393

$$$$
53
                    3D
 Structure written by MMmdl.
160168  0  0  1  0            999 V2000
  -30.6501  -14.5185   20.4926 C   0  0  0  0  0  0
  -30.4207  -12.3111   19.4616 C   0  0  0  0  0  0
  -29.5054  -12.4851   18.2283 C   0  0  0  0  0  0
  -28.0210  -12.3480   18.6229 C   0  0  0  0  0  0
  -27.6526  -13.2082   19.8622 C   0  0  2  0  0  0
  -28.6866  -13.0239   20.9933 C   0  0  0  0  0  0
  -25.2551  -13.8144   20.5670 C   0  0  0  0  0  0
  -24.1804  -13.0463   20.9161 C   0  0  0  0  0  0
  -24.6347  -11.6894   20.8689 C   0  0  0  0  0  0
  -23.9018  -10.4304   21.0330 C   0  0  0  0  0  0
  -24.3574   -9.4232   21.9120 C   0  0  0  0  0  0
  -23.6285   -8.2233   22.0696 C   0  0  0  0  0  0
  -22.4247   -8.0242   21.3503 C   0  0  0  0  0  0
  -21.9873   -9.0193   20.4599 C   0  0  0  0  0  0
  -22.7158  -10.2110   20.3014 C   0  0  0  0  0  0
  -21.6867   -6.0716   22.5267 C   0  0  0  0  0  0
  -21.4013   -6.5636   23.8200 C   0  0  0  0  0  0
  -21.3674   -5.6781   24.9167 C   0  0  0  0  0  0
  -21.6067   -4.3044   24.7209 C   0  0  0  0  0  0
  -21.8829   -3.8134   23.4332 C   0  0  0  0  0  0
  -21.9212   -4.6954   22.3385 C   0  0  0  0  0  0
  -22.7855  -13.5228   21.1913 C   0  0  0  0  0  0
  -22.1680   -4.2155   21.0961 F   0  0  0  0  0  0
  -21.5636   -3.4510   25.7724 F   0  0  0  0  0  0
  -30.0179  -13.3153   20.4553 N   0  0  0  0  0  0
  -26.2999  -12.9338   20.3307 N   0  0  0  0  0  0
  -25.9274  -11.6508   20.5702 N   0  0  0  0  0  0
  -22.0536  -12.8171   22.0502 N   0  0  0  0  0  0
  -25.4374  -15.1851   20.4032 N   0  0  0  0  0  0
  -31.8310  -14.6538   20.1601 O   0  0  0  0  0  0
  -21.6637   -6.8810   21.4207 O   0  0  0  0  0  0
  -22.3552  -14.5570   20.6855 O   0  0  0  0  0  0
  -24.6057  -31.8682   23.2110 C   0  0  0  0  0  0
  -25.8903  -32.4874   23.8449 C   0  0  1  0  0  0
  -27.3154  -27.5321   20.0222 C   0  0  0  0  0  0
  -25.5843  -33.8679   24.2396 N   0  0  0  0  0  0
  -23.3954  -30.4715   21.5515 C   0  0  2  0  0  0
  -24.8638  -28.9308   20.1490 C   0  0  0  0  0  0
  -22.7352  -29.4575   22.5083 C   0  0  0  0  0  0
  -18.0219  -28.1365   22.8537 C   0  0  0  0  0  0
  -24.1488  -36.7303   23.2637 C   0  0  0  0  0  0
  -25.9177  -30.8492   21.3597 C   0  0  0  0  0  0
  -26.0170  -29.4879   20.7120 C   0  0  0  0  0  0
  -27.2399  -28.7966   20.6411 C   0  0  0  0  0  0
  -26.1340  -26.9602   19.4927 C   0  0  0  0  0  0
  -24.9098  -27.6529   19.5610 C   0  0  0  0  0  0
  -23.6195  -29.7792   20.1814 C   0  0  0  0  0  0
  -25.4133  -36.3135   24.0340 C   0  0  1  0  0  0
  -20.5825  -28.3570   23.1478 C   0  0  2  0  0  0
  -20.6655  -26.9337   22.5586 C   0  0  0  0  0  0
  -19.5710  -26.6411   21.5214 C   0  0  0  0  0  0
  -18.1883  -26.7991   22.1559 C   0  0  0  0  0  0
  -19.1525  -28.8712   23.2985 C   0  0  0  0  0  0
  -18.9583  -30.1373   23.8907 C   0  0  0  0  0  0
  -17.6632  -30.6608   24.0580 C   0  0  0  0  0  0
  -25.9045  -34.9498   23.5186 C   0  0  0  0  0  0
  -16.5446  -29.9181   23.6361 C   0  0  0  0  0  0
  -16.7228  -28.6531   23.0433 C   0  0  0  0  0  0
  -26.4453  -31.6605   25.0701 C   0  0  0  0  0  0
  -25.3736  -31.3636   26.1455 C   0  0  0  0  0  0
  -27.0369  -30.3076   24.6012 C   0  0  0  0  0  0
  -27.6110  -32.4279   25.7408 C   0  0  0  0  0  0
  -27.5610  -37.1815   24.8478 C   0  0  0  0  0  0
  -21.4107  -29.3027   22.3856 N   0  0  0  0  0  0
  -26.4326  -37.3806   23.9438 N   0  0  0  0  0  0
  -24.6559  -31.0788   22.1004 N   0  0  0  0  0  0
  -23.4193  -28.8103   23.3086 O   0  0  0  0  0  0
  -28.5717  -26.9892   19.8842 O   0  0  0  0  0  0
  -26.5575  -34.8925   22.4735 O   0  0  0  0  0  0
  -23.5259  -32.1481   23.7424 O   0  0  0  0  0  0
  -28.9126  -16.2306   21.5574 C   0  0  0  0  0  0
  -29.8119  -16.7634   19.6035 C   0  0  0  0  0  0
  -29.8150  -15.7766   20.5584 C   0  0  0  0  0  0
  -27.2027  -20.5298   20.7809 C   0  0  0  0  0  0
  -28.5675  -24.9603   18.3986 C   0  0  0  0  0  0
  -28.3706  -18.8204   19.1924 C   0  0  0  0  0  0
  -29.2590  -23.5954   18.2728 C   0  0  0  0  0  0
  -28.3472  -21.2724   18.6327 C   0  0  0  0  0  0
  -28.7759  -25.5857   19.8115 C   0  0  0  0  0  0
  -28.3635  -20.2570   19.7972 C   0  0  1  0  0  0
  -28.3399  -17.3850   21.2080 N   0  0  0  0  0  0
  -28.8836  -17.7063   20.0011 N   0  0  0  0  0  0
  -28.5487  -22.6429   19.1356 N   0  3  0  0  0  0
  -31.4648  -12.4053   19.1709 H   0  0  0  0  0  0
  -30.3069  -11.3094   19.8744 H   0  0  0  0  0  0
  -29.7528  -11.7460   17.4634 H   0  0  0  0  0  0
  -29.6745  -13.4630   17.7777 H   0  0  0  0  0  0
  -27.8222  -11.2958   18.8233 H   0  0  0  0  0  0
  -27.3787  -12.6096   17.7814 H   0  0  0  0  0  0
  -27.6803  -14.2473   19.5425 H   0  0  0  0  0  0
  -28.6664  -11.9991   21.3588 H   0  0  0  0  0  0
  -28.4421  -13.6322   21.8586 H   0  0  0  0  0  0
  -25.2704   -9.5787   22.4696 H   0  0  0  0  0  0
  -24.0046   -7.4647   22.7400 H   0  0  0  0  0  0
  -21.0822   -8.8660   19.8888 H   0  0  0  0  0  0
  -22.3536  -10.9629   19.6140 H   0  0  0  0  0  0
  -21.1976   -7.6139   23.9704 H   0  0  0  0  0  0
  -21.1502   -6.0496   25.9065 H   0  0  0  0  0  0
  -22.0600   -2.7604   23.2814 H   0  0  0  0  0  0
  -22.4166  -11.9786   22.4812 H   0  0  0  0  0  0
  -21.1132  -13.1122   22.2732 H   0  0  0  0  0  0
  -24.6843  -15.8495   20.5233 H   0  0  0  0  0  0
  -26.3189  -15.6170   20.1630 H   0  0  0  0  0  0
  -26.6938  -32.5692   23.1225 H   0  0  0  0  0  0
  -25.0064  -33.9868   25.0577 H   0  0  0  0  0  0
  -22.6786  -31.2815   21.3906 H   0  0  0  0  0  0
  -23.3767  -35.9616   23.3319 H   0  0  0  0  0  0
  -24.3576  -36.8872   22.2045 H   0  0  0  0  0  0
  -23.7190  -37.6486   23.6649 H   0  0  0  0  0  0
  -26.0107  -31.6072   20.5789 H   0  0  0  0  0  0
  -26.8118  -30.9301   21.9646 H   0  0  0  0  0  0
  -28.1466  -29.2578   21.0052 H   0  0  0  0  0  0
  -26.1279  -26.0259   18.9699 H   0  0  0  0  0  0
  -24.0240  -27.1957   19.1361 H   0  0  0  0  0  0
  -23.7502  -30.5434   19.4198 H   0  0  0  0  0  0
  -22.7633  -29.1757   19.8749 H   0  0  0  0  0  0
  -25.1315  -36.2058   25.0827 H   0  0  0  0  0  0
  -20.9974  -28.3102   24.1610 H   0  0  0  0  0  0
  -20.5375  -26.2123   23.3663 H   0  0  0  0  0  0
  -21.6607  -26.7437   22.1526 H   0  0  0  0  0  0
  -19.6891  -25.6336   21.1254 H   0  0  0  0  0  0
  -19.6603  -27.3403   20.6850 H   0  0  0  0  0  0
  -17.4306  -26.6727   21.3802 H   0  0  0  0  0  0
  -18.0111  -26.0110   22.8877 H   0  0  0  0  0  0
  -19.8060  -30.7191   24.2188 H   0  0  0  0  0  0
  -17.5291  -31.6311   24.5045 H   0  0  0  0  0  0
  -15.5468  -30.3201   23.7780 H   0  0  0  0  0  0
  -15.8564  -28.0953   22.7221 H   0  0  0  0  0  0
  -24.5880  -30.7033   25.7719 H   0  0  0  0  0  0
  -24.8984  -32.2793   26.4998 H   0  0  0  0  0  0
  -25.8080  -30.8696   27.0162 H   0  0  0  0  0  0
  -26.2938  -29.6659   24.1228 H   0  0  0  0  0  0
  -27.4393  -29.7433   25.4450 H   0  0  0  0  0  0
  -27.8639  -30.4467   23.9026 H   0  0  0  0  0  0
  -27.2808  -33.3559   26.2106 H   0  0  0  0  0  0
  -28.3844  -32.6827   25.0128 H   0  0  0  0  0  0
  -28.0881  -31.8309   26.5202 H   0  0  0  0  0  0
  -28.2664  -38.0055   24.7576 H   0  0  0  0  0  0
  -28.1068  -36.2647   24.6320 H   0  0  0  0  0  0
  -27.2347  -37.1451   25.8852 H   0  0  0  0  0  0
  -20.9262  -29.9067   21.7376 H   0  0  0  0  0  0
  -26.0233  -38.2903   24.1358 H   0  0  0  0  0  0
  -28.6250  -15.7768   22.4947 H   0  0  0  0  0  0
  -30.3375  -16.8376   18.6598 H   0  0  0  0  0  0
  -27.3029  -19.9451   21.6910 H   0  0  0  0  0  0
  -26.2331  -20.3146   20.3388 H   0  0  0  0  0  0
  -27.1739  -21.5730   21.0990 H   0  0  0  0  0  0
  -27.5170  -24.7838   18.1760 H   0  0  0  0  0  0
  -28.9275  -25.6098   17.5929 H   0  0  0  0  0  0
  -27.3581  -18.5718   18.8699 H   0  0  0  0  0  0
  -28.9764  -18.8261   18.2882 H   0  0  0  0  0  0
  -30.3113  -23.6490   18.5602 H   0  0  0  0  0  0
  -29.2215  -23.2600   17.2333 H   0  0  0  0  0  0
  -27.3822  -21.2541   18.1100 H   0  0  0  0  0  0
  -29.1054  -21.0350   17.8875 H   0  0  0  0  0  0
  -29.8302  -25.4240   20.0591 H   0  0  0  0  0  0
  -28.1988  -25.1189   20.6256 H   0  0  0  0  0  0
  -29.3020  -20.3890   20.3404 H   0  0  0  0  0  0
  -27.6143  -23.0119   19.2305 H   0  0  0  0  0  0
  -28.9815  -22.6170   20.0465 H   0  0  0  0  0  0
  1 25  1  0  0  0
  1 30  2  0  0  0
  1 73  1  0  0  0
  2  3  1  0  0  0
  2 25  1  0  0  0
  2 84  1  0  0  0
  2 85  1  0  0  0
  3  4  1  0  0  0
  3 86  1  0  0  0
  3 87  1  0  0  0
  4  5  1  0  0  0
  4 88  1  0  0  0
  4 89  1  0  0  0
  5  6  1  0  0  0
  5 26  1  0  0  0
  5 90  1  0  0  0
  6 25  1  0  0  0
  6 91  1  0  0  0
  6 92  1  0  0  0
  7  8  2  0  0  0
  7 26  1  0  0  0
  7 29  1  0  0  0
  8  9  1  0  0  0
  8 22  1  0  0  0
  9 10  1  0  0  0
  9 27  2  0  0  0
 10 11  2  0  0  0
 10 15  1  0  0  0
 11 12  1  0  0  0
 11 93  1  0  0  0
 12 13  2  0  0  0
 12 94  1  0  0  0
 13 14  1  0  0  0
 13 31  1  0  0  0
 14 15  2  0  0  0
 14 95  1  0  0  0
 15 96  1  0  0  0
 16 17  2  0  0  0
 16 21  1  0  0  0
 16 31  1  0  0  0
 17 18  1  0  0  0
 17 97  1  0  0  0
 18 19  2  0  0  0
 18 98  1  0  0  0
 19 20  1  0  0  0
 19 24  1  0  0  0
 20 21  2  0  0  0
 20 99  1  0  0  0
 21 23  1  0  0  0
 22 28  1  0  0  0
 22 32  2  0  0  0
 26 27  1  0  0  0
 28100  1  0  0  0
 28101  1  0  0  0
 29102  1  0  0  0
 29103  1  0  0  0
 33 34  1  0  0  0
 33 66  1  0  0  0
 33 70  2  0  0  0
 34 36  1  0  0  0
 34 59  1  0  0  0
 34104  1  0  0  0
 35 44  2  0  0  0
 35 45  1  0  0  0
 35 68  1  0  0  0
 36 56  1  0  0  0
 36105  1  0  0  0
 37 39  1  0  0  0
 37 47  1  0  0  0
 37 66  1  0  0  0
 37106  1  0  0  0
 38 43  2  0  0  0
 38 46  1  0  0  0
 38 47  1  0  0  0
 39 64  1  0  0  0
 39 67  2  0  0  0
 40 52  1  0  0  0
 40 53  2  0  0  0
 40 58  1  0  0  0
 41107  1  0  0  0
 41108  1  0  0  0
 41109  1  0  0  0
 41 48  1  0  0  0
 42 43  1  0  0  0
 42 66  1  0  0  0
 42110  1  0  0  0
 42111  1  0  0  0
 43 44  1  0  0  0
 44112  1  0  0  0
 45 46  2  0  0  0
 45113  1  0  0  0
 46114  1  0  0  0
 47115  1  0  0  0
 47116  1  0  0  0
 48 56  1  0  0  0
 48 65  1  0  0  0
 48117  1  0  0  0
 49 50  1  0  0  0
 49 53  1  0  0  0
 49 64  1  0  0  0
 49118  1  0  0  0
 50 51  1  0  0  0
 50119  1  0  0  0
 50120  1  0  0  0
 51 52  1  0  0  0
 51121  1  0  0  0
 51122  1  0  0  0
 52123  1  0  0  0
 52124  1  0  0  0
 53 54  1  0  0  0
 54 55  2  0  0  0
 54125  1  0  0  0
 55 57  1  0  0  0
 55126  1  0  0  0
 56 69  2  0  0  0
 57 58  2  0  0  0
 57127  1  0  0  0
 58128  1  0  0  0
 59 60  1  0  0  0
 59 61  1  0  0  0
 59 62  1  0  0  0
 60129  1  0  0  0
 60130  1  0  0  0
 60131  1  0  0  0
 61132  1  0  0  0
 61133  1  0  0  0
 61134  1  0  0  0
 62135  1  0  0  0
 62136  1  0  0  0
 62137  1  0  0  0
 63 65  1  0  0  0
 63138  1  0  0  0
 63139  1  0  0  0
 63140  1  0  0  0
 64141  1  0  0  0
 65142  1  0  0  0
 68 79  1  0  0  0
 71 73  1  0  0  0
 71 81  2  0  0  0
 71143  1  0  0  0
 72 73  2  0  0  0
 72 82  1  0  0  0
 72144  1  0  0  0
 74145  1  0  0  0
 74146  1  0  0  0
 74147  1  0  0  0
 74 80  1  0  0  0
 75 77  1  0  0  0
 75 79  1  0  0  0
 75148  1  0  0  0
 75149  1  0  0  0
 76 80  1  0  0  0
 76 82  1  0  0  0
 76150  1  0  0  0
 76151  1  0  0  0
 77 83  1  0  0  0
 77152  1  0  0  0
 77153  1  0  0  0
 78 80  1  0  0  0
 78 83  1  0  0  0
 78154  1  0  0  0
 78155  1  0  0  0
 79156  1  0  0  0
 79157  1  0  0  0
 80158  1  0  0  0
 81 82  1  0  0  0
 83159  1  0  0  0
 83160  1  0  0  0
M  CHG  1  83   1
M  ISO  4   1 100  68 101  73 100  79 101
M  END
> <chiral flag>
0

> <version>
0

> <s_m_source_file>
/data/baiqing/PycharmProjects/Reinvent-master-3.2/result/LINK_invent/BTK/process_docking_weight1_custom_sum_contain_oxygen_bond_distance_aromatic_linkinvent_7_9_3/rearranged_h_0119.sdf

> <i_m_source_file_index>
54

> <r_mmod_Potential_Energy-OPLS-2005>
-121.246704101562

> <r_mmod_Stretch_Energy-OPLS-2005>
34.614688873291

> <r_mmod_Bend_Energy-OPLS-2005>
134.637771606445

> <r_mmod_Torsional_Energy-OPLS-2005>
246.521194458008

> <r_mmod_Improper_Torsional_Energy-OPLS-2005>
10.7222337722778

> <r_mmod_Van_der_Waal_Energy-OPLS-2005>
124.638084411621

> <r_mmod_Electrostatic_Energy-OPLS-2005>
-240.678588867188

> <r_mmod_Solvation_Energy-OPLS-2005>
-463.373474121094

> <b_mmod_Minimization_Converged-OPLS-2005>
0

> <r_mmod_RMS_Derivative-OPLS-2005>
14.2913837432861

$$$$
54
                    3D
 Structure written by MMmdl.
164172  0  0  1  0            999 V2000
  -30.5845  -14.8680   20.4347 C   0  0  0  0  0  0
  -30.4317  -12.5295   19.5005 C   0  0  0  0  0  0
  -29.5201  -12.5226   18.2530 C   0  0  0  0  0  0
  -28.0505  -12.3232   18.6686 C   0  0  0  0  0  0
  -27.6365  -13.2451   19.8465 C   0  0  2  0  0  0
  -28.6773  -13.2481   20.9873 C   0  0  0  0  0  0
  -25.2497  -13.8208   20.5704 C   0  0  0  0  0  0
  -24.1804  -13.0432   20.9196 C   0  0  0  0  0  0
  -24.6417  -11.6918   20.8742 C   0  0  0  0  0  0
  -23.9102  -10.4287   21.0400 C   0  0  0  0  0  0
  -24.3647   -9.4201   21.9179 C   0  0  0  0  0  0
  -23.6309   -8.2244   22.0759 C   0  0  0  0  0  0
  -22.4289   -8.0284   21.3545 C   0  0  0  0  0  0
  -21.9929   -9.0268   20.4650 C   0  0  0  0  0  0
  -22.7271  -10.2139   20.3048 C   0  0  0  0  0  0
  -21.6866   -6.0736   22.5276 C   0  0  0  0  0  0
  -21.4025   -6.5639   23.8210 C   0  0  0  0  0  0
  -21.3662   -5.6792   24.9171 C   0  0  0  0  0  0
  -21.6044   -4.3054   24.7223 C   0  0  0  0  0  0
  -21.8818   -3.8146   23.4344 C   0  0  0  0  0  0
  -21.9199   -4.6963   22.3396 C   0  0  0  0  0  0
  -22.7828  -13.5206   21.1872 C   0  0  0  0  0  0
  -22.1665   -4.2152   21.0974 F   0  0  0  0  0  0
  -21.5628   -3.4538   25.7738 F   0  0  0  0  0  0
  -29.9654  -13.6253   20.3942 N   0  0  0  0  0  0
  -26.2930  -12.9441   20.3273 N   0  0  0  0  0  0
  -25.9353  -11.6574   20.5754 N   0  0  0  0  0  0
  -22.0488  -12.8182   22.0425 N   0  0  0  0  0  0
  -25.4144  -15.1935   20.4148 N   0  0  0  0  0  0
  -31.7795  -14.9284   20.1276 O   0  0  0  0  0  0
  -21.6643   -6.8885   21.4242 O   0  0  0  0  0  0
  -22.3500  -14.5510   20.6725 O   0  0  0  0  0  0
  -24.6381  -31.8471   23.1886 C   0  0  0  0  0  0
  -25.9179  -32.4720   23.8255 C   0  0  1  0  0  0
  -27.2245  -27.1668   20.1489 C   0  0  0  0  0  0
  -25.5945  -33.8513   24.2184 N   0  0  0  0  0  0
  -23.4389  -30.4617   21.5357 C   0  0  2  0  0  0
  -24.8884  -28.8847   20.1133 C   0  0  0  0  0  0
  -22.7546  -29.4540   22.4912 C   0  0  0  0  0  0
  -18.0299  -28.1412   22.8474 C   0  0  0  0  0  0
  -24.1488  -36.7249   23.2636 C   0  0  0  0  0  0
  -25.9898  -30.7278   21.3820 C   0  0  0  0  0  0
  -26.0612  -29.3384   20.7283 C   0  0  0  0  0  0
  -27.2258  -28.4936   20.7308 C   0  0  0  0  0  0
  -26.0247  -26.7953   19.5046 C   0  0  0  0  0  0
  -24.8808  -27.6249   19.4883 C   0  0  0  0  0  0
  -23.6640  -29.7836   20.1564 C   0  0  0  0  0  0
  -25.4124  -36.3038   24.0312 C   0  0  1  0  0  0
  -20.5904  -28.3715   23.1275 C   0  0  2  0  0  0
  -20.6772  -26.9423   22.5437 C   0  0  0  0  0  0
  -19.5765  -26.6397   21.5223 C   0  0  0  0  0  0
  -18.1936  -26.7955   22.1610 C   0  0  0  0  0  0
  -19.1551  -28.8881   23.2860 C   0  0  0  0  0  0
  -18.9473  -30.1477   23.8894 C   0  0  0  0  0  0
  -17.6462  -30.6599   24.0570 C   0  0  0  0  0  0
  -25.9074  -34.9416   23.5056 C   0  0  0  0  0  0
  -16.5357  -29.9088   23.6337 C   0  0  0  0  0  0
  -16.7273  -28.6507   23.0352 C   0  0  0  0  0  0
  -26.4511  -31.6581   25.0686 C   0  0  0  0  0  0
  -25.3711  -31.3831   26.1417 C   0  0  0  0  0  0
  -27.0313  -30.2946   24.6251 C   0  0  0  0  0  0
  -27.6081  -32.4307   25.7455 C   0  0  0  0  0  0
  -27.5578  -37.1795   24.8454 C   0  0  0  0  0  0
  -21.4240  -29.3025   22.3655 N   0  0  0  0  0  0
  -26.4294  -37.3743   23.9400 N   0  0  0  0  0  0
  -24.7088  -31.0337   22.0914 N   0  0  0  0  0  0
  -23.4215  -28.8110   23.3052 O   0  0  0  0  0  0
  -28.3422  -26.2723   20.1801 O   0  0  0  0  0  0
  -26.5646  -34.8908   22.4626 O   0  0  0  0  0  0
  -23.5513  -32.1330   23.7146 O   0  0  0  0  0  0
  -28.0532  -23.9108   19.1611 C   0  0  0  0  0  0
  -29.3316  -22.8708   21.3132 C   0  0  0  0  0  0
  -28.3830  -22.4945   19.1860 C   0  0  0  0  0  0
  -29.0879  -21.8981   20.2896 C   0  0  0  0  0  0
  -28.3647  -24.8107   20.2264 C   0  0  0  0  0  0
  -24.8556  -21.1793   15.7544 C   0  0  0  0  0  0
  -27.2499  -20.7551   15.0758 C   0  0  0  0  0  0
  -28.0726  -21.6314   17.9664 C   0  0  0  0  0  0
  -29.8395  -20.4293   20.2563 C   0  0  0  0  0  0
  -26.7294  -21.9491   17.2764 C   0  0  0  0  0  0
  -29.2775  -18.8936   20.5832 C   0  0  0  0  0  0
  -30.2511  -17.5467   20.3665 C   0  0  0  0  0  0
  -26.2757  -20.8811   16.2588 C   0  0  0  0  0  0
  -29.0074  -24.2214   21.2840 N   0  0  0  0  0  0
  -29.8347  -16.0537   20.6024 N   0  0  0  0  0  0
  -31.4743  -12.6498   19.2030 H   0  0  0  0  0  0
  -30.3790  -11.5676   20.0143 H   0  0  0  0  0  0
  -29.8243  -11.7324   17.5650 H   0  0  0  0  0  0
  -29.6287  -13.4626   17.7091 H   0  0  0  0  0  0
  -27.9375  -11.2791   18.9638 H   0  0  0  0  0  0
  -27.3876  -12.4720   17.8153 H   0  0  0  0  0  0
  -27.6119  -14.2543   19.4352 H   0  0  0  0  0  0
  -28.7395  -12.2721   21.4729 H   0  0  0  0  0  0
  -28.3909  -13.9597   21.7636 H   0  0  0  0  0  0
  -25.2796   -9.5673   22.4748 H   0  0  0  0  0  0
  -24.0023   -7.4632   22.7476 H   0  0  0  0  0  0
  -21.0861   -8.8790   19.8953 H   0  0  0  0  0  0
  -22.3735  -10.9678   19.6153 H   0  0  0  0  0  0
  -21.2019   -7.6147   23.9714 H   0  0  0  0  0  0
  -21.1488   -6.0520   25.9075 H   0  0  0  0  0  0
  -22.0598   -2.7609   23.2839 H   0  0  0  0  0  0
  -22.4141  -11.9836   22.4772 H   0  0  0  0  0  0
  -21.1102  -13.1183   22.2655 H   0  0  0  0  0  0
  -24.6411  -15.8402   20.5247 H   0  0  0  0  0  0
  -26.2582  -15.6415   20.0833 H   0  0  0  0  0  0
  -26.7238  -32.5339   23.0980 H   0  0  0  0  0  0
  -25.0093  -33.9622   25.0332 H   0  0  0  0  0  0
  -22.7378  -31.2833   21.3800 H   0  0  0  0  0  0
  -23.3751  -35.9587   23.3317 H   0  0  0  0  0  0
  -24.3551  -36.8853   22.2045 H   0  0  0  0  0  0
  -23.7251  -37.6462   23.6636 H   0  0  0  0  0  0
  -26.1334  -31.4783   20.6041 H   0  0  0  0  0  0
  -26.8650  -30.7840   22.0183 H   0  0  0  0  0  0
  -28.1248  -28.8386   21.2222 H   0  0  0  0  0  0
  -25.9515  -25.8272   19.0295 H   0  0  0  0  0  0
  -23.9818  -27.2736   19.0001 H   0  0  0  0  0  0
  -23.8024  -30.5518   19.3946 H   0  0  0  0  0  0
  -22.7787  -29.2232   19.8500 H   0  0  0  0  0  0
  -25.1321  -36.1874   25.0806 H   0  0  0  0  0  0
  -20.9975  -28.3304   24.1408 H   0  0  0  0  0  0
  -20.5650  -26.2329   23.3657 H   0  0  0  0  0  0
  -21.6645  -26.7422   22.1270 H   0  0  0  0  0  0
  -19.6914  -25.6306   21.1258 H   0  0  0  0  0  0
  -19.6718  -27.3210   20.6758 H   0  0  0  0  0  0
  -17.4226  -26.6725   21.3991 H   0  0  0  0  0  0
  -18.0291  -26.0111   22.9006 H   0  0  0  0  0  0
  -19.7944  -30.7293   24.2275 H   0  0  0  0  0  0
  -17.5014  -31.6282   24.5169 H   0  0  0  0  0  0
  -15.5354  -30.2984   23.7661 H   0  0  0  0  0  0
  -15.8680  -28.0813   22.7080 H   0  0  0  0  0  0
  -24.5989  -30.7001   25.7839 H   0  0  0  0  0  0
  -24.8791  -32.3038   26.4580 H   0  0  0  0  0  0
  -25.8071  -30.9290   27.0329 H   0  0  0  0  0  0
  -26.2892  -29.6734   24.1226 H   0  0  0  0  0  0
  -27.3844  -29.7192   25.4823 H   0  0  0  0  0  0
  -27.8841  -30.4115   23.9563 H   0  0  0  0  0  0
  -27.2708  -33.3647   26.1954 H   0  0  0  0  0  0
  -28.3950  -32.6794   25.0319 H   0  0  0  0  0  0
  -28.0669  -31.8470   26.5450 H   0  0  0  0  0  0
  -28.2633  -38.0054   24.7461 H   0  0  0  0  0  0
  -28.1041  -36.2589   24.6330 H   0  0  0  0  0  0
  -27.2295  -37.1529   25.8858 H   0  0  0  0  0  0
  -20.9474  -29.8711   21.6803 H   0  0  0  0  0  0
  -26.0168  -38.2813   24.1398 H   0  0  0  0  0  0
  -27.6202  -24.3363   18.2666 H   0  0  0  0  0  0
  -29.9072  -22.5794   22.1797 H   0  0  0  0  0  0
  -24.4929  -20.3963   15.0876 H   0  0  0  0  0  0
  -24.8198  -22.1218   15.2074 H   0  0  0  0  0  0
  -24.1474  -21.2521   16.5806 H   0  0  0  0  0  0
  -26.9260  -19.9832   14.3764 H   0  0  0  0  0  0
  -28.2533  -20.4853   15.4042 H   0  0  0  0  0  0
  -27.3247  -21.6928   14.5243 H   0  0  0  0  0  0
  -28.0596  -20.5845   18.2699 H   0  0  0  0  0  0
  -28.9010  -21.7371   17.2659 H   0  0  0  0  0  0
  -30.7106  -20.5624   20.8995 H   0  0  0  0  0  0
  -30.2804  -20.3732   19.2605 H   0  0  0  0  0  0
  -26.7779  -22.9209   16.7844 H   0  0  0  0  0  0
  -25.9640  -22.0328   18.0500 H   0  0  0  0  0  0
  -28.3783  -18.7410   19.9897 H   0  0  0  0  0  0
  -28.9367  -18.8876   21.6200 H   0  0  0  0  0  0
  -31.1539  -17.6998   20.9590 H   0  0  0  0  0  0
  -30.6025  -17.5804   19.3339 H   0  0  0  0  0  0
  -26.2391  -19.9172   16.7690 H   0  0  0  0  0  0
  -28.8641  -15.9034   20.8328 H   0  0  0  0  0  0
  1 25  1  0  0  0
  1 30  2  0  0  0
  1 85  1  0  0  0
  2  3  1  0  0  0
  2 25  1  0  0  0
  2 86  1  0  0  0
  2 87  1  0  0  0
  3  4  1  0  0  0
  3 88  1  0  0  0
  3 89  1  0  0  0
  4  5  1  0  0  0
  4 90  1  0  0  0
  4 91  1  0  0  0
  5  6  1  0  0  0
  5 26  1  0  0  0
  5 92  1  0  0  0
  6 25  1  0  0  0
  6 93  1  0  0  0
  6 94  1  0  0  0
  7  8  2  0  0  0
  7 26  1  0  0  0
  7 29  1  0  0  0
  8  9  1  0  0  0
  8 22  1  0  0  0
  9 10  1  0  0  0
  9 27  2  0  0  0
 10 11  2  0  0  0
 10 15  1  0  0  0
 11 12  1  0  0  0
 11 95  1  0  0  0
 12 13  2  0  0  0
 12 96  1  0  0  0
 13 14  1  0  0  0
 13 31  1  0  0  0
 14 15  2  0  0  0
 14 97  1  0  0  0
 15 98  1  0  0  0
 16 17  2  0  0  0
 16 21  1  0  0  0
 16 31  1  0  0  0
 17 18  1  0  0  0
 17 99  1  0  0  0
 18 19  2  0  0  0
 18100  1  0  0  0
 19 20  1  0  0  0
 19 24  1  0  0  0
 20 21  2  0  0  0
 20101  1  0  0  0
 21 23  1  0  0  0
 22 28  1  0  0  0
 22 32  2  0  0  0
 26 27  1  0  0  0
 28102  1  0  0  0
 28103  1  0  0  0
 29104  1  0  0  0
 29105  1  0  0  0
 33 34  1  0  0  0
 33 66  1  0  0  0
 33 70  2  0  0  0
 34 36  1  0  0  0
 34 59  1  0  0  0
 34106  1  0  0  0
 35 44  2  0  0  0
 35 45  1  0  0  0
 35 68  1  0  0  0
 36 56  1  0  0  0
 36107  1  0  0  0
 37 39  1  0  0  0
 37 47  1  0  0  0
 37 66  1  0  0  0
 37108  1  0  0  0
 38 43  2  0  0  0
 38 46  1  0  0  0
 38 47  1  0  0  0
 39 64  1  0  0  0
 39 67  2  0  0  0
 40 52  1  0  0  0
 40 53  2  0  0  0
 40 58  1  0  0  0
 41109  1  0  0  0
 41110  1  0  0  0
 41111  1  0  0  0
 41 48  1  0  0  0
 42 43  1  0  0  0
 42 66  1  0  0  0
 42112  1  0  0  0
 42113  1  0  0  0
 43 44  1  0  0  0
 44114  1  0  0  0
 45 46  2  0  0  0
 45115  1  0  0  0
 46116  1  0  0  0
 47117  1  0  0  0
 47118  1  0  0  0
 48 56  1  0  0  0
 48 65  1  0  0  0
 48119  1  0  0  0
 49 50  1  0  0  0
 49 53  1  0  0  0
 49 64  1  0  0  0
 49120  1  0  0  0
 50 51  1  0  0  0
 50121  1  0  0  0
 50122  1  0  0  0
 51 52  1  0  0  0
 51123  1  0  0  0
 51124  1  0  0  0
 52125  1  0  0  0
 52126  1  0  0  0
 53 54  1  0  0  0
 54 55  2  0  0  0
 54127  1  0  0  0
 55 57  1  0  0  0
 55128  1  0  0  0
 56 69  2  0  0  0
 57 58  2  0  0  0
 57129  1  0  0  0
 58130  1  0  0  0
 59 60  1  0  0  0
 59 61  1  0  0  0
 59 62  1  0  0  0
 60131  1  0  0  0
 60132  1  0  0  0
 60133  1  0  0  0
 61134  1  0  0  0
 61135  1  0  0  0
 61136  1  0  0  0
 62137  1  0  0  0
 62138  1  0  0  0
 62139  1  0  0  0
 63 65  1  0  0  0
 63140  1  0  0  0
 63141  1  0  0  0
 63142  1  0  0  0
 64143  1  0  0  0
 65144  1  0  0  0
 68 75  1  0  0  0
 71 73  2  0  0  0
 71 75  1  0  0  0
 71145  1  0  0  0
 72 74  2  0  0  0
 72 84  1  0  0  0
 72146  1  0  0  0
 73 74  1  0  0  0
 73 78  1  0  0  0
 74 79  1  0  0  0
 75 84  2  0  0  0
 76147  1  0  0  0
 76148  1  0  0  0
 76149  1  0  0  0
 76 83  1  0  0  0
 77 83  1  0  0  0
 77150  1  0  0  0
 77151  1  0  0  0
 77152  1  0  0  0
 78 80  1  0  0  0
 78153  1  0  0  0
 78154  1  0  0  0
 79 81  1  0  0  0
 79155  1  0  0  0
 79156  1  0  0  0
 80 83  1  0  0  0
 80157  1  0  0  0
 80158  1  0  0  0
 81 82  1  0  0  0
 81159  1  0  0  0
 81160  1  0  0  0
 82 85  1  0  0  0
 82161  1  0  0  0
 82162  1  0  0  0
 83163  1  0  0  0
 85164  1  0  0  0
M  ISO  4   1 100  68 101  75 101  85 100
M  END
> <chiral flag>
0

> <version>
0

> <s_m_source_file>
/data/baiqing/PycharmProjects/Reinvent-master-3.2/result/LINK_invent/BTK/process_docking_weight1_custom_sum_contain_oxygen_bond_distance_aromatic_linkinvent_7_9_3/rearranged_h_0119.sdf

> <i_m_source_file_index>
55

> <r_mmod_Potential_Energy-OPLS-2005>
237.941268920898

> <r_mmod_Stretch_Energy-OPLS-2005>
197.62678527832

> <r_mmod_Bend_Energy-OPLS-2005>
234.559814453125

> <r_mmod_Torsional_Energy-OPLS-2005>
225.100708007812

> <r_mmod_Improper_Torsional_Energy-OPLS-2005>
9.04442501068115

> <r_mmod_Van_der_Waal_Energy-OPLS-2005>
130.314636230469

> <r_mmod_Electrostatic_Energy-OPLS-2005>
-482.726989746094

> <r_mmod_Solvation_Energy-OPLS-2005>
-218.905853271484

> <b_mmod_Minimization_Converged-OPLS-2005>
0

> <r_mmod_RMS_Derivative-OPLS-2005>
2.82866072654724

$$$$
55
                    3D
 Structure written by MMmdl.
158166  0  0  1  0            999 V2000
  -30.5491  -14.9646   20.4102 C   0  0  0  0  0  0
  -30.4359  -12.5954   19.5003 C   0  0  0  0  0  0
  -29.5189  -12.5275   18.2575 C   0  0  0  0  0  0
  -28.0540  -12.3107   18.6782 C   0  0  0  0  0  0
  -27.6274  -13.2503   19.8362 C   0  0  2  0  0  0
  -28.6703  -13.2945   20.9738 C   0  0  0  0  0  0
  -25.2452  -13.8223   20.5711 C   0  0  0  0  0  0
  -24.1777  -13.0441   20.9239 C   0  0  0  0  0  0
  -24.6400  -11.6928   20.8770 C   0  0  0  0  0  0
  -23.9087  -10.4297   21.0418 C   0  0  0  0  0  0
  -24.3634   -9.4208   21.9195 C   0  0  0  0  0  0
  -23.6302   -8.2245   22.0759 C   0  0  0  0  0  0
  -22.4285   -8.0288   21.3548 C   0  0  0  0  0  0
  -21.9925   -9.0264   20.4651 C   0  0  0  0  0  0
  -22.7260  -10.2141   20.3064 C   0  0  0  0  0  0
  -21.6853   -6.0746   22.5279 C   0  0  0  0  0  0
  -21.4015   -6.5649   23.8215 C   0  0  0  0  0  0
  -21.3657   -5.6797   24.9173 C   0  0  0  0  0  0
  -21.6042   -4.3060   24.7223 C   0  0  0  0  0  0
  -21.8818   -3.8155   23.4343 C   0  0  0  0  0  0
  -21.9193   -4.6972   22.3398 C   0  0  0  0  0  0
  -22.7793  -13.5208   21.1884 C   0  0  0  0  0  0
  -22.1661   -4.2160   21.0977 F   0  0  0  0  0  0
  -21.5625   -3.4541   25.7733 F   0  0  0  0  0  0
  -29.9445  -13.7053   20.3704 N   0  0  0  0  0  0
  -26.2876  -12.9461   20.3244 N   0  0  0  0  0  0
  -25.9331  -11.6591   20.5755 N   0  0  0  0  0  0
  -22.0444  -12.8196   22.0441 N   0  0  0  0  0  0
  -25.4101  -15.1952   20.4107 N   0  0  0  0  0  0
  -31.7602  -14.9842   20.1552 O   0  0  0  0  0  0
  -21.6642   -6.8890   21.4243 O   0  0  0  0  0  0
  -22.3476  -14.5513   20.6725 O   0  0  0  0  0  0
  -24.6466  -31.8416   23.1862 C   0  0  0  0  0  0
  -25.9228  -32.4685   23.8259 C   0  0  1  0  0  0
  -27.2110  -27.1103   20.1555 C   0  0  0  0  0  0
  -25.5963  -33.8490   24.2175 N   0  0  0  0  0  0
  -23.4511  -30.4624   21.5320 C   0  0  2  0  0  0
  -24.8994  -28.8866   20.1105 C   0  0  0  0  0  0
  -22.7582  -29.4546   22.4839 C   0  0  0  0  0  0
  -18.0306  -28.1408   22.8475 C   0  0  0  0  0  0
  -24.1494  -36.7251   23.2644 C   0  0  0  0  0  0
  -26.0094  -30.7090   21.3880 C   0  0  0  0  0  0
  -26.0791  -29.3178   20.7296 C   0  0  0  0  0  0
  -27.2366  -28.4468   20.7325 C   0  0  0  0  0  0
  -26.0037  -26.7886   19.4967 C   0  0  0  0  0  0
  -24.8764  -27.6366   19.4771 C   0  0  0  0  0  0
  -23.6783  -29.7925   20.1513 C   0  0  0  0  0  0
  -25.4125  -36.3021   24.0314 C   0  0  1  0  0  0
  -20.5922  -28.3740   23.1229 C   0  0  2  0  0  0
  -20.6799  -26.9441   22.5403 C   0  0  0  0  0  0
  -19.5771  -26.6387   21.5220 C   0  0  0  0  0  0
  -18.1947  -26.7947   22.1623 C   0  0  0  0  0  0
  -19.1566  -28.8892   23.2842 C   0  0  0  0  0  0
  -18.9483  -30.1487   23.8872 C   0  0  0  0  0  0
  -17.6479  -30.6601   24.0570 C   0  0  0  0  0  0
  -25.9075  -34.9401   23.5054 C   0  0  0  0  0  0
  -16.5367  -29.9099   23.6340 C   0  0  0  0  0  0
  -16.7292  -28.6520   23.0356 C   0  0  0  0  0  0
  -26.4537  -31.6559   25.0710 C   0  0  0  0  0  0
  -25.3712  -31.3757   26.1400 C   0  0  0  0  0  0
  -27.0412  -30.2952   24.6312 C   0  0  0  0  0  0
  -27.6064  -32.4331   25.7497 C   0  0  0  0  0  0
  -27.5573  -37.1782   24.8466 C   0  0  0  0  0  0
  -21.4270  -29.3058   22.3592 N   0  0  0  0  0  0
  -26.4283  -37.3740   23.9410 N   0  0  0  0  0  0
  -24.7226  -31.0259   22.0904 N   0  0  0  0  0  0
  -23.4218  -28.8091   23.2995 O   0  0  0  0  0  0
  -28.2541  -26.1055   20.2164 O   0  0  0  0  0  0
  -26.5665  -34.8908   22.4634 O   0  0  0  0  0  0
  -23.5578  -32.1298   23.7064 O   0  0  0  0  0  0
  -30.8294  -20.4582   20.2515 C   0  0  0  0  0  0
  -29.1148  -18.7976   20.4940 C   0  0  0  0  0  0
  -29.4506  -20.2531   20.4276 C   0  0  0  0  0  0
  -31.7235  -19.3676   20.1687 C   0  0  0  0  0  0
  -30.0846  -17.6687   20.4260 C   0  0  0  0  0  0
  -33.2021  -19.6228   19.9633 C   0  0  0  0  0  0
  -26.9601  -20.3611   22.3362 C   0  0  0  0  0  0
  -27.7825  -21.5998   21.9498 C   0  0  0  0  0  0
  -28.9574  -23.2107   20.3085 C   0  0  0  0  0  0
  -27.9330  -24.5678   20.1962 C   0  0  0  0  0  0
  -28.4713  -21.5942   20.5596 C   0  0  1  0  0  0
  -31.3697  -18.0597   20.2572 N   0  0  0  0  0  0
  -29.7737  -16.1638   20.5290 N   0  0  0  0  0  0
  -31.4699  -12.7451   19.1862 H   0  0  0  0  0  0
  -30.4265  -11.6483   20.0425 H   0  0  0  0  0  0
  -29.8400  -11.7259   17.5911 H   0  0  0  0  0  0
  -29.6042  -13.4541   17.6878 H   0  0  0  0  0  0
  -27.9550  -11.2717   18.9946 H   0  0  0  0  0  0
  -27.3885  -12.4329   17.8226 H   0  0  0  0  0  0
  -27.5856  -14.2484   19.3994 H   0  0  0  0  0  0
  -28.7607  -12.3244   21.4650 H   0  0  0  0  0  0
  -28.3679  -14.0053   21.7446 H   0  0  0  0  0  0
  -25.2777   -9.5679   22.4774 H   0  0  0  0  0  0
  -24.0007   -7.4633   22.7481 H   0  0  0  0  0  0
  -21.0855   -8.8793   19.8953 H   0  0  0  0  0  0
  -22.3727  -10.9685   19.6174 H   0  0  0  0  0  0
  -21.2013   -7.6156   23.9721 H   0  0  0  0  0  0
  -21.1475   -6.0527   25.9078 H   0  0  0  0  0  0
  -22.0599   -2.7617   23.2836 H   0  0  0  0  0  0
  -22.4062  -11.9856   22.4821 H   0  0  0  0  0  0
  -21.1065  -13.1221   22.2655 H   0  0  0  0  0  0
  -24.6336  -15.8403   20.5122 H   0  0  0  0  0  0
  -26.2399  -15.6348   20.0352 H   0  0  0  0  0  0
  -26.7294  -32.5286   23.0985 H   0  0  0  0  0  0
  -25.0093  -33.9602   25.0312 H   0  0  0  0  0  0
  -22.7557  -31.2893   21.3753 H   0  0  0  0  0  0
  -23.3761  -35.9577   23.3287 H   0  0  0  0  0  0
  -24.3572  -36.8899   22.2059 H   0  0  0  0  0  0
  -23.7246  -37.6442   23.6693 H   0  0  0  0  0  0
  -26.1676  -31.4620   20.6145 H   0  0  0  0  0  0
  -26.8802  -30.7592   22.0307 H   0  0  0  0  0  0
  -28.1350  -28.7717   21.2378 H   0  0  0  0  0  0
  -25.8886  -25.8385   19.0007 H   0  0  0  0  0  0
  -23.9772  -27.3027   18.9781 H   0  0  0  0  0  0
  -23.8184  -30.5672   19.3962 H   0  0  0  0  0  0
  -22.7930  -29.2371   19.8375 H   0  0  0  0  0  0
  -25.1310  -36.1837   25.0804 H   0  0  0  0  0  0
  -21.0015  -28.3333   24.1352 H   0  0  0  0  0  0
  -20.5710  -26.2349   23.3620 H   0  0  0  0  0  0
  -21.6665  -26.7455   22.1186 H   0  0  0  0  0  0
  -19.6938  -25.6295   21.1267 H   0  0  0  0  0  0
  -19.6714  -27.3187   20.6744 H   0  0  0  0  0  0
  -17.4218  -26.6693   21.4024 H   0  0  0  0  0  0
  -18.0345  -26.0097   22.9028 H   0  0  0  0  0  0
  -19.7958  -30.7313   24.2229 H   0  0  0  0  0  0
  -17.5032  -31.6279   24.5179 H   0  0  0  0  0  0
  -15.5369  -30.3000   23.7684 H   0  0  0  0  0  0
  -15.8687  -28.0838   22.7088 H   0  0  0  0  0  0
  -24.5898  -30.7098   25.7717 H   0  0  0  0  0  0
  -24.8902  -32.2948   26.4760 H   0  0  0  0  0  0
  -25.7986  -30.8970   27.0218 H   0  0  0  0  0  0
  -26.3039  -29.6662   24.1315 H   0  0  0  0  0  0
  -27.4014  -29.7261   25.4892 H   0  0  0  0  0  0
  -27.8946  -30.4180   23.9640 H   0  0  0  0  0  0
  -27.2658  -33.3664   26.1994 H   0  0  0  0  0  0
  -28.3923  -32.6837   25.0356 H   0  0  0  0  0  0
  -28.0684  -31.8505   26.5479 H   0  0  0  0  0  0
  -28.2579  -38.0089   24.7508 H   0  0  0  0  0  0
  -28.1075  -36.2617   24.6290 H   0  0  0  0  0  0
  -27.2288  -37.1422   25.8867 H   0  0  0  0  0  0
  -20.9485  -29.8763   21.6763 H   0  0  0  0  0  0
  -26.0143  -38.2801   24.1417 H   0  0  0  0  0  0
  -31.2122  -21.4671   20.1808 H   0  0  0  0  0  0
  -28.0733  -18.5335   20.6088 H   0  0  0  0  0  0
  -33.4859  -20.6066   20.3366 H   0  0  0  0  0  0
  -33.4484  -19.5778   18.9025 H   0  0  0  0  0  0
  -33.8061  -18.8817   20.4871 H   0  0  0  0  0  0
  -26.3534  -20.5671   23.2185 H   0  0  0  0  0  0
  -27.5964  -19.5149   22.5929 H   0  0  0  0  0  0
  -26.2837  -20.0619   21.5354 H   0  0  0  0  0  0
  -28.5375  -21.7684   22.7185 H   0  0  0  0  0  0
  -27.1107  -22.4547   22.0071 H   0  0  0  0  0  0
  -29.6785  -23.4339   21.0945 H   0  0  0  0  0  0
  -29.5484  -23.2107   19.3931 H   0  0  0  0  0  0
  -27.1819  -24.4493   20.9762 H   0  0  0  0  0  0
  -27.3946  -24.3918   19.2667 H   0  0  0  0  0  0
  -27.6928  -21.4170   19.8167 H   0  0  0  0  0  0
  -28.7987  -15.9693   20.6884 H   0  0  0  0  0  0
  1 25  1  0  0  0
  1 30  2  0  0  0
  1 83  1  0  0  0
  2  3  1  0  0  0
  2 25  1  0  0  0
  2 84  1  0  0  0
  2 85  1  0  0  0
  3  4  1  0  0  0
  3 86  1  0  0  0
  3 87  1  0  0  0
  4  5  1  0  0  0
  4 88  1  0  0  0
  4 89  1  0  0  0
  5  6  1  0  0  0
  5 26  1  0  0  0
  5 90  1  0  0  0
  6 25  1  0  0  0
  6 91  1  0  0  0
  6 92  1  0  0  0
  7  8  2  0  0  0
  7 26  1  0  0  0
  7 29  1  0  0  0
  8  9  1  0  0  0
  8 22  1  0  0  0
  9 10  1  0  0  0
  9 27  2  0  0  0
 10 11  2  0  0  0
 10 15  1  0  0  0
 11 12  1  0  0  0
 11 93  1  0  0  0
 12 13  2  0  0  0
 12 94  1  0  0  0
 13 14  1  0  0  0
 13 31  1  0  0  0
 14 15  2  0  0  0
 14 95  1  0  0  0
 15 96  1  0  0  0
 16 17  2  0  0  0
 16 21  1  0  0  0
 16 31  1  0  0  0
 17 18  1  0  0  0
 17 97  1  0  0  0
 18 19  2  0  0  0
 18 98  1  0  0  0
 19 20  1  0  0  0
 19 24  1  0  0  0
 20 21  2  0  0  0
 20 99  1  0  0  0
 21 23  1  0  0  0
 22 28  1  0  0  0
 22 32  2  0  0  0
 26 27  1  0  0  0
 28100  1  0  0  0
 28101  1  0  0  0
 29102  1  0  0  0
 29103  1  0  0  0
 33 34  1  0  0  0
 33 66  1  0  0  0
 33 70  2  0  0  0
 34 36  1  0  0  0
 34 59  1  0  0  0
 34104  1  0  0  0
 35 44  2  0  0  0
 35 45  1  0  0  0
 35 68  1  0  0  0
 36 56  1  0  0  0
 36105  1  0  0  0
 37 39  1  0  0  0
 37 47  1  0  0  0
 37 66  1  0  0  0
 37106  1  0  0  0
 38 43  2  0  0  0
 38 46  1  0  0  0
 38 47  1  0  0  0
 39 64  1  0  0  0
 39 67  2  0  0  0
 40 52  1  0  0  0
 40 53  2  0  0  0
 40 58  1  0  0  0
 41107  1  0  0  0
 41108  1  0  0  0
 41109  1  0  0  0
 41 48  1  0  0  0
 42 43  1  0  0  0
 42 66  1  0  0  0
 42110  1  0  0  0
 42111  1  0  0  0
 43 44  1  0  0  0
 44112  1  0  0  0
 45 46  2  0  0  0
 45113  1  0  0  0
 46114  1  0  0  0
 47115  1  0  0  0
 47116  1  0  0  0
 48 56  1  0  0  0
 48 65  1  0  0  0
 48117  1  0  0  0
 49 50  1  0  0  0
 49 53  1  0  0  0
 49 64  1  0  0  0
 49118  1  0  0  0
 50 51  1  0  0  0
 50119  1  0  0  0
 50120  1  0  0  0
 51 52  1  0  0  0
 51121  1  0  0  0
 51122  1  0  0  0
 52123  1  0  0  0
 52124  1  0  0  0
 53 54  1  0  0  0
 54 55  2  0  0  0
 54125  1  0  0  0
 55 57  1  0  0  0
 55126  1  0  0  0
 56 69  2  0  0  0
 57 58  2  0  0  0
 57127  1  0  0  0
 58128  1  0  0  0
 59 60  1  0  0  0
 59 61  1  0  0  0
 59 62  1  0  0  0
 60129  1  0  0  0
 60130  1  0  0  0
 60131  1  0  0  0
 61132  1  0  0  0
 61133  1  0  0  0
 61134  1  0  0  0
 62135  1  0  0  0
 62136  1  0  0  0
 62137  1  0  0  0
 63 65  1  0  0  0
 63138  1  0  0  0
 63139  1  0  0  0
 63140  1  0  0  0
 64141  1  0  0  0
 65142  1  0  0  0
 68 80  1  0  0  0
 71 73  2  0  0  0
 71 74  1  0  0  0
 71143  1  0  0  0
 72 73  1  0  0  0
 72 75  2  0  0  0
 72144  1  0  0  0
 73 81  1  0  0  0
 74 76  1  0  0  0
 74 82  2  0  0  0
 75 82  1  0  0  0
 75 83  1  0  0  0
 76145  1  0  0  0
 76146  1  0  0  0
 76147  1  0  0  0
 77 78  1  0  0  0
 77148  1  0  0  0
 77149  1  0  0  0
 77150  1  0  0  0
 78151  1  0  0  0
 78152  1  0  0  0
 78 81  1  0  0  0
 79 80  1  0  0  0
 79 81  1  0  0  0
 79153  1  0  0  0
 79154  1  0  0  0
 80155  1  0  0  0
 80156  1  0  0  0
 81157  1  0  0  0
 83158  1  0  0  0
M  ISO  4   1 100  68 101  80 101  83 100
M  END
> <chiral flag>
0

> <version>
0

> <s_m_source_file>
/data/baiqing/PycharmProjects/Reinvent-master-3.2/result/LINK_invent/BTK/process_docking_weight1_custom_sum_contain_oxygen_bond_distance_aromatic_linkinvent_7_9_3/rearranged_h_0119.sdf

> <i_m_source_file_index>
56

> <r_mmod_Potential_Energy-OPLS-2005>
373.572509765625

> <r_mmod_Stretch_Energy-OPLS-2005>
286.306488037109

> <r_mmod_Bend_Energy-OPLS-2005>
259.464904785156

> <r_mmod_Torsional_Energy-OPLS-2005>
212.142364501953

> <r_mmod_Improper_Torsional_Energy-OPLS-2005>
4.45763969421387

> <r_mmod_Van_der_Waal_Energy-OPLS-2005>
134.995681762695

> <r_mmod_Electrostatic_Energy-OPLS-2005>
-499.611999511719

> <r_mmod_Solvation_Energy-OPLS-2005>
-232.147155761719

> <b_mmod_Minimization_Converged-OPLS-2005>
0

> <r_mmod_RMS_Derivative-OPLS-2005>
1.00579833984375

$$$$
56
                    3D
 Structure written by MMmdl.
166174  0  0  1  0            999 V2000
  -30.7590  -14.4796   20.6086 C   0  0  0  0  0  0
  -30.4123  -12.3210   19.4348 C   0  0  0  0  0  0
  -29.4934  -12.5090   18.2123 C   0  0  0  0  0  0
  -28.0160  -12.3719   18.6257 C   0  0  0  0  0  0
  -27.6615  -13.2210   19.8745 C   0  0  2  0  0  0
  -28.7042  -13.0394   21.0006 C   0  0  0  0  0  0
  -25.2599  -13.8210   20.5694 C   0  0  0  0  0  0
  -24.1853  -13.0460   20.9160 C   0  0  0  0  0  0
  -24.6408  -11.6931   20.8701 C   0  0  0  0  0  0
  -23.9068  -10.4312   21.0367 C   0  0  0  0  0  0
  -24.3625   -9.4223   21.9149 C   0  0  0  0  0  0
  -23.6293   -8.2263   22.0741 C   0  0  0  0  0  0
  -22.4268   -8.0292   21.3544 C   0  0  0  0  0  0
  -21.9905   -9.0256   20.4636 C   0  0  0  0  0  0
  -22.7231  -10.2137   20.3027 C   0  0  0  0  0  0
  -21.6857   -6.0715   22.5250 C   0  0  0  0  0  0
  -21.4021   -6.5622   23.8181 C   0  0  0  0  0  0
  -21.3667   -5.6777   24.9149 C   0  0  0  0  0  0
  -21.6047   -4.3042   24.7202 C   0  0  0  0  0  0
  -21.8824   -3.8131   23.4319 C   0  0  0  0  0  0
  -21.9211   -4.6943   22.3377 C   0  0  0  0  0  0
  -22.7876  -13.5232   21.1801 C   0  0  0  0  0  0
  -22.1677   -4.2140   21.0950 F   0  0  0  0  0  0
  -21.5646   -3.4521   25.7712 F   0  0  0  0  0  0
  -30.0365  -13.3298   20.4461 N   0  0  0  0  0  0
  -26.3042  -12.9402   20.3396 N   0  0  0  0  0  0
  -25.9349  -11.6547   20.5798 N   0  0  0  0  0  0
  -22.0548  -12.8216   22.0371 N   0  0  0  0  0  0
  -25.4322  -15.1938   20.4083 N   0  0  0  0  0  0
  -31.8543  -14.6397   20.0680 O   0  0  0  0  0  0
  -21.6656   -6.8862   21.4214 O   0  0  0  0  0  0
  -22.3522  -14.5524   20.6636 O   0  0  0  0  0  0
  -24.6188  -31.8670   23.2094 C   0  0  0  0  0  0
  -25.9058  -32.4824   23.8403 C   0  0  1  0  0  0
  -27.2185  -27.3895   20.0934 C   0  0  0  0  0  0
  -25.5893  -33.8620   24.2324 N   0  0  0  0  0  0
  -23.4082  -30.4958   21.5491 C   0  0  2  0  0  0
  -24.8519  -28.9624   20.1114 C   0  0  0  0  0  0
  -22.7435  -29.4687   22.4956 C   0  0  0  0  0  0
  -18.0286  -28.1403   22.8477 C   0  0  0  0  0  0
  -24.1481  -36.7317   23.2638 C   0  0  0  0  0  0
  -25.9457  -30.8169   21.3747 C   0  0  0  0  0  0
  -26.0172  -29.4516   20.7138 C   0  0  0  0  0  0
  -27.2041  -28.6712   20.7038 C   0  0  0  0  0  0
  -26.0315  -26.9427   19.4658 C   0  0  0  0  0  0
  -24.8556  -27.7094   19.4836 C   0  0  0  0  0  0
  -23.6190  -29.8356   20.1627 C   0  0  0  0  0  0
  -25.4096  -36.3098   24.0339 C   0  0  1  0  0  0
  -20.5880  -28.3698   23.1302 C   0  0  2  0  0  0
  -20.6784  -26.9436   22.5407 C   0  0  0  0  0  0
  -19.5765  -26.6404   21.5210 C   0  0  0  0  0  0
  -18.1941  -26.7948   22.1623 C   0  0  0  0  0  0
  -19.1530  -28.8864   23.2892 C   0  0  0  0  0  0
  -18.9467  -30.1455   23.8919 C   0  0  0  0  0  0
  -17.6468  -30.6605   24.0561 C   0  0  0  0  0  0
  -25.9022  -34.9472   23.5128 C   0  0  0  0  0  0
  -16.5361  -29.9111   23.6316 C   0  0  0  0  0  0
  -16.7269  -28.6529   23.0339 C   0  0  0  0  0  0
  -26.4472  -31.6609   25.0749 C   0  0  0  0  0  0
  -25.3730  -31.3754   26.1506 C   0  0  0  0  0  0
  -27.0281  -30.3023   24.6186 C   0  0  0  0  0  0
  -27.6016  -32.4337   25.7534 C   0  0  0  0  0  0
  -27.5577  -37.1818   24.8460 C   0  0  0  0  0  0
  -21.4157  -29.3065   22.3702 N   0  0  0  0  0  0
  -26.4280  -37.3788   23.9420 N   0  0  0  0  0  0
  -24.6754  -31.0743   22.1023 N   0  0  0  0  0  0
  -23.4183  -28.8214   23.3009 O   0  0  0  0  0  0
  -28.3569  -26.5901   20.1345 O   0  0  0  0  0  0
  -26.5594  -34.8930   22.4693 O   0  0  0  0  0  0
  -23.5354  -32.1436   23.7465 O   0  0  0  0  0  0
  -28.8847  -18.2104   20.8837 C   0  0  0  0  0  0
  -28.6818  -19.5960   20.6299 C   0  0  0  0  0  0
  -30.1622  -18.0306   21.3312 C   0  0  0  0  0  0
  -29.8454  -20.2707   20.8848 C   0  0  0  0  0  0
  -33.5229  -20.5149   23.7954 C   0  0  0  0  0  0
  -31.1968  -21.8554   19.4849 C   0  0  0  0  0  0
  -30.8826  -16.7399   21.7160 C   0  0  0  0  0  0
  -32.2994  -20.6887   22.8868 C   0  0  0  0  0  0
  -29.2943  -24.2408   20.4458 C   0  0  0  0  0  0
  -28.9741  -22.7038   20.3531 C   0  0  0  0  0  0
  -32.1364  -19.5527   21.8549 C   0  0  0  0  0  0
  -28.1601  -25.1645   19.9248 C   0  0  0  0  0  0
  -30.1799  -21.7460   20.6360 C   0  0  1  0  0  0
  -30.7541  -19.3111   21.3928 N   0  0  0  0  0  0
  -30.2095  -15.4690   21.3469 N   0  0  0  0  0  0
  -31.4583  -12.3901   19.1326 H   0  0  0  0  0  0
  -30.2896  -11.3160   19.8435 H   0  0  0  0  0  0
  -29.7310  -11.7717   17.4447 H   0  0  0  0  0  0
  -29.6649  -13.4895   17.7679 H   0  0  0  0  0  0
  -27.8275  -11.3169   18.8273 H   0  0  0  0  0  0
  -27.3658  -12.6439   17.7940 H   0  0  0  0  0  0
  -27.6962  -14.2644   19.5584 H   0  0  0  0  0  0
  -28.6790  -12.0176   21.3834 H   0  0  0  0  0  0
  -28.4618  -13.6747   21.8527 H   0  0  0  0  0  0
  -25.2781   -9.5720   22.4688 H   0  0  0  0  0  0
  -24.0014   -7.4667   22.7452 H   0  0  0  0  0  0
  -21.0845   -8.8751   19.8937 H   0  0  0  0  0  0
  -22.3680  -10.9656   19.6128 H   0  0  0  0  0  0
  -21.1995   -7.6128   23.9677 H   0  0  0  0  0  0
  -21.1499   -6.0508   25.9051 H   0  0  0  0  0  0
  -22.0600   -2.7585   23.2814 H   0  0  0  0  0  0
  -22.4205  -11.9914   22.4806 H   0  0  0  0  0  0
  -21.1155  -13.1211   22.2551 H   0  0  0  0  0  0
  -24.6707  -15.8540   20.5202 H   0  0  0  0  0  0
  -26.2937  -15.6306   20.1021 H   0  0  0  0  0  0
  -26.7132  -32.5501   23.1159 H   0  0  0  0  0  0
  -25.0018  -33.9790   25.0454 H   0  0  0  0  0  0
  -22.6964  -31.3128   21.4102 H   0  0  0  0  0  0
  -23.3727  -35.9668   23.3297 H   0  0  0  0  0  0
  -24.3565  -36.8946   22.2053 H   0  0  0  0  0  0
  -23.7267  -37.6540   23.6648 H   0  0  0  0  0  0
  -26.0729  -31.5848   20.6110 H   0  0  0  0  0  0
  -26.8270  -30.8611   22.0030 H   0  0  0  0  0  0
  -28.0965  -29.0397   21.1902 H   0  0  0  0  0  0
  -25.9821  -25.9947   18.9529 H   0  0  0  0  0  0
  -23.9633  -27.3345   19.0035 H   0  0  0  0  0  0
  -23.7364  -30.6123   19.4065 H   0  0  0  0  0  0
  -22.7415  -29.2612   19.8595 H   0  0  0  0  0  0
  -25.1278  -36.1955   25.0836 H   0  0  0  0  0  0
  -20.9947  -28.3271   24.1435 H   0  0  0  0  0  0
  -20.5713  -26.2311   23.3601 H   0  0  0  0  0  0
  -21.6661  -26.7509   22.1194 H   0  0  0  0  0  0
  -19.6930  -25.6311   21.1260 H   0  0  0  0  0  0
  -19.6708  -27.3196   20.6730 H   0  0  0  0  0  0
  -17.4214  -26.6665   21.4028 H   0  0  0  0  0  0
  -18.0348  -26.0107   22.9038 H   0  0  0  0  0  0
  -19.7947  -30.7244   24.2313 H   0  0  0  0  0  0
  -17.5047  -31.6286   24.5162 H   0  0  0  0  0  0
  -15.5372  -30.3030   23.7648 H   0  0  0  0  0  0
  -15.8663  -28.0861   22.7044 H   0  0  0  0  0  0
  -24.5852  -30.7135   25.7876 H   0  0  0  0  0  0
  -24.8976  -32.2939   26.4973 H   0  0  0  0  0  0
  -25.8078  -30.8906   27.0262 H   0  0  0  0  0  0
  -26.2848  -29.6834   24.1151 H   0  0  0  0  0  0
  -27.3903  -29.7237   25.4692 H   0  0  0  0  0  0
  -27.8746  -30.4294   23.9445 H   0  0  0  0  0  0
  -27.2590  -33.3609   26.2140 H   0  0  0  0  0  0
  -28.3815  -32.6958   25.0376 H   0  0  0  0  0  0
  -28.0673  -31.8447   26.5446 H   0  0  0  0  0  0
  -28.2583  -38.0122   24.7484 H   0  0  0  0  0  0
  -28.1090  -36.2651   24.6288 H   0  0  0  0  0  0
  -27.2303  -37.1481   25.8867 H   0  0  0  0  0  0
  -20.9308  -29.8796   21.6940 H   0  0  0  0  0  0
  -26.0156  -38.2872   24.1405 H   0  0  0  0  0  0
  -28.1684  -17.4137   20.7424 H   0  0  0  0  0  0
  -27.7717  -20.0448   20.2547 H   0  0  0  0  0  0
  -33.5876  -21.3358   24.5096 H   0  0  0  0  0  0
  -34.4501  -20.5036   23.2197 H   0  0  0  0  0  0
  -33.4661  -19.5853   24.3628 H   0  0  0  0  0  0
  -32.1188  -21.3223   19.6952 H   0  0  0  0  0  0
  -31.4814  -22.8826   19.2700 H   0  0  0  0  0  0
  -30.7839  -21.4294   18.5701 H   0  0  0  0  0  0
  -31.8929  -16.7620   21.3034 H   0  0  0  0  0  0
  -31.0256  -16.7228   22.7967 H   0  0  0  0  0  0
  -32.4290  -21.6403   22.3754 H   0  0  0  0  0  0
  -31.4014  -20.7682   23.5025 H   0  0  0  0  0  0
  -30.1976  -24.4823   19.8890 H   0  0  0  0  0  0
  -29.5111  -24.4859   21.4857 H   0  0  0  0  0  0
  -28.5505  -22.4665   19.3774 H   0  0  0  0  0  0
  -28.1855  -22.4975   21.0776 H   0  0  0  0  0  0
  -32.5186  -18.6458   22.3216 H   0  0  0  0  0  0
  -32.7856  -19.7181   20.9958 H   0  0  0  0  0  0
  -27.2429  -24.8373   20.4174 H   0  0  0  0  0  0
  -28.0308  -24.9854   18.8551 H   0  0  0  0  0  0
  -30.6164  -22.1521   21.5415 H   0  0  0  0  0  0
  -29.3032  -15.2953   21.7523 H   0  0  0  0  0  0
  1 25  1  0  0  0
  1 30  2  0  0  0
  1 85  1  0  0  0
  2  3  1  0  0  0
  2 25  1  0  0  0
  2 86  1  0  0  0
  2 87  1  0  0  0
  3  4  1  0  0  0
  3 88  1  0  0  0
  3 89  1  0  0  0
  4  5  1  0  0  0
  4 90  1  0  0  0
  4 91  1  0  0  0
  5  6  1  0  0  0
  5 26  1  0  0  0
  5 92  1  0  0  0
  6 25  1  0  0  0
  6 93  1  0  0  0
  6 94  1  0  0  0
  7  8  2  0  0  0
  7 26  1  0  0  0
  7 29  1  0  0  0
  8  9  1  0  0  0
  8 22  1  0  0  0
  9 10  1  0  0  0
  9 27  2  0  0  0
 10 11  2  0  0  0
 10 15  1  0  0  0
 11 12  1  0  0  0
 11 95  1  0  0  0
 12 13  2  0  0  0
 12 96  1  0  0  0
 13 14  1  0  0  0
 13 31  1  0  0  0
 14 15  2  0  0  0
 14 97  1  0  0  0
 15 98  1  0  0  0
 16 17  2  0  0  0
 16 21  1  0  0  0
 16 31  1  0  0  0
 17 18  1  0  0  0
 17 99  1  0  0  0
 18 19  2  0  0  0
 18100  1  0  0  0
 19 20  1  0  0  0
 19 24  1  0  0  0
 20 21  2  0  0  0
 20101  1  0  0  0
 21 23  1  0  0  0
 22 28  1  0  0  0
 22 32  2  0  0  0
 26 27  1  0  0  0
 28102  1  0  0  0
 28103  1  0  0  0
 29104  1  0  0  0
 29105  1  0  0  0
 33 34  1  0  0  0
 33 66  1  0  0  0
 33 70  2  0  0  0
 34 36  1  0  0  0
 34 59  1  0  0  0
 34106  1  0  0  0
 35 44  2  0  0  0
 35 45  1  0  0  0
 35 68  1  0  0  0
 36 56  1  0  0  0
 36107  1  0  0  0
 37 39  1  0  0  0
 37 47  1  0  0  0
 37 66  1  0  0  0
 37108  1  0  0  0
 38 43  2  0  0  0
 38 46  1  0  0  0
 38 47  1  0  0  0
 39 64  1  0  0  0
 39 67  2  0  0  0
 40 52  1  0  0  0
 40 53  2  0  0  0
 40 58  1  0  0  0
 41109  1  0  0  0
 41110  1  0  0  0
 41111  1  0  0  0
 41 48  1  0  0  0
 42 43  1  0  0  0
 42 66  1  0  0  0
 42112  1  0  0  0
 42113  1  0  0  0
 43 44  1  0  0  0
 44114  1  0  0  0
 45 46  2  0  0  0
 45115  1  0  0  0
 46116  1  0  0  0
 47117  1  0  0  0
 47118  1  0  0  0
 48 56  1  0  0  0
 48 65  1  0  0  0
 48119  1  0  0  0
 49 50  1  0  0  0
 49 53  1  0  0  0
 49 64  1  0  0  0
 49120  1  0  0  0
 50 51  1  0  0  0
 50121  1  0  0  0
 50122  1  0  0  0
 51 52  1  0  0  0
 51123  1  0  0  0
 51124  1  0  0  0
 52125  1  0  0  0
 52126  1  0  0  0
 53 54  1  0  0  0
 54 55  2  0  0  0
 54127  1  0  0  0
 55 57  1  0  0  0
 55128  1  0  0  0
 56 69  2  0  0  0
 57 58  2  0  0  0
 57129  1  0  0  0
 58130  1  0  0  0
 59 60  1  0  0  0
 59 61  1  0  0  0
 59 62  1  0  0  0
 60131  1  0  0  0
 60132  1  0  0  0
 60133  1  0  0  0
 61134  1  0  0  0
 61135  1  0  0  0
 61136  1  0  0  0
 62137  1  0  0  0
 62138  1  0  0  0
 62139  1  0  0  0
 63 65  1  0  0  0
 63140  1  0  0  0
 63141  1  0  0  0
 63142  1  0  0  0
 64143  1  0  0  0
 65144  1  0  0  0
 68 82  1  0  0  0
 71 72  1  0  0  0
 71 73  2  0  0  0
 71145  1  0  0  0
 72 74  2  0  0  0
 72146  1  0  0  0
 73 77  1  0  0  0
 73 84  1  0  0  0
 74 83  1  0  0  0
 74 84  1  0  0  0
 75 78  1  0  0  0
 75147  1  0  0  0
 75148  1  0  0  0
 75149  1  0  0  0
 76150  1  0  0  0
 76151  1  0  0  0
 76152  1  0  0  0
 76 83  1  0  0  0
 77 85  1  0  0  0
 77153  1  0  0  0
 77154  1  0  0  0
 78 81  1  0  0  0
 78155  1  0  0  0
 78156  1  0  0  0
 79 80  1  0  0  0
 79 82  1  0  0  0
 79157  1  0  0  0
 79158  1  0  0  0
 80 83  1  0  0  0
 80159  1  0  0  0
 80160  1  0  0  0
 81 84  1  0  0  0
 81161  1  0  0  0
 81162  1  0  0  0
 82163  1  0  0  0
 82164  1  0  0  0
 83165  1  0  0  0
 85166  1  0  0  0
M  ISO  4   1 100  68 101  82 101  85 100
M  END
> <chiral flag>
0

> <version>
0

> <s_m_source_file>
/data/baiqing/PycharmProjects/Reinvent-master-3.2/result/LINK_invent/BTK/process_docking_weight1_custom_sum_contain_oxygen_bond_distance_aromatic_linkinvent_7_9_3/rearranged_h_0119.sdf

> <i_m_source_file_index>
57

> <r_mmod_Potential_Energy-OPLS-2005>
-98.2489395141602

> <r_mmod_Stretch_Energy-OPLS-2005>
52.3606986999512

> <r_mmod_Bend_Energy-OPLS-2005>
109.97526550293

> <r_mmod_Torsional_Energy-OPLS-2005>
211.671859741211

> <r_mmod_Improper_Torsional_Energy-OPLS-2005>
2.04932141304016

> <r_mmod_Van_der_Waal_Energy-OPLS-2005>
141.477142333984

> <r_mmod_Electrostatic_Energy-OPLS-2005>
-433.259552001953

> <r_mmod_Solvation_Energy-OPLS-2005>
-202.042663574219

> <b_mmod_Minimization_Converged-OPLS-2005>
0

> <r_mmod_RMS_Derivative-OPLS-2005>
3.46140336990356

$$$$
57
                    3D
 Structure written by MMmdl.
163172  0  0  1  0            999 V2000
  -30.6910  -14.6986   20.4890 C   0  0  0  0  0  0
  -30.4305  -12.4469   19.4411 C   0  0  0  0  0  0
  -29.4917  -12.4843   18.2164 C   0  0  0  0  0  0
  -28.0287  -12.2619   18.6481 C   0  0  0  0  0  0
  -27.6330  -13.1612   19.8418 C   0  0  2  0  0  0
  -28.7024  -13.1120   20.9697 C   0  0  0  0  0  0
  -25.2517  -13.7975   20.5647 C   0  0  0  0  0  0
  -24.1786  -13.0329   20.9275 C   0  0  0  0  0  0
  -24.6309  -11.6793   20.8835 C   0  0  0  0  0  0
  -23.8972  -10.4226   21.0476 C   0  0  0  0  0  0
  -24.3556   -9.4150   21.9233 C   0  0  0  0  0  0
  -23.6249   -8.2178   22.0766 C   0  0  0  0  0  0
  -22.4235   -8.0233   21.3546 C   0  0  0  0  0  0
  -21.9862   -9.0205   20.4654 C   0  0  0  0  0  0
  -22.7170  -10.2092   20.3094 C   0  0  0  0  0  0
  -21.6827   -6.0712   22.5280 C   0  0  0  0  0  0
  -21.3991   -6.5623   23.8212 C   0  0  0  0  0  0
  -21.3659   -5.6783   24.9181 C   0  0  0  0  0  0
  -21.6046   -4.3046   24.7234 C   0  0  0  0  0  0
  -21.8822   -3.8134   23.4356 C   0  0  0  0  0  0
  -21.9183   -4.6944   22.3407 C   0  0  0  0  0  0
  -22.7833  -13.5194   21.1901 C   0  0  0  0  0  0
  -22.1653   -4.2133   21.0984 F   0  0  0  0  0  0
  -21.5644   -3.4533   25.7750 F   0  0  0  0  0  0
  -29.9882  -13.5110   20.3742 N   0  0  0  0  0  0
  -26.2877  -12.9037   20.3289 N   0  0  0  0  0  0
  -25.9209  -11.6272   20.5844 N   0  0  0  0  0  0
  -22.0429  -12.8230   22.0444 N   0  0  0  0  0  0
  -25.4134  -15.1670   20.3805 N   0  0  0  0  0  0
  -31.8957  -14.6955   20.2238 O   0  0  0  0  0  0
  -21.6601   -6.8839   21.4236 O   0  0  0  0  0  0
  -22.3581  -14.5518   20.6719 O   0  0  0  0  0  0
  -24.6247  -31.8631   23.2074 C   0  0  0  0  0  0
  -25.9106  -32.4800   23.8387 C   0  0  1  0  0  0
  -27.2282  -27.3396   20.1040 C   0  0  0  0  0  0
  -25.5934  -33.8599   24.2307 N   0  0  0  0  0  0
  -23.4176  -30.4901   21.5501 C   0  0  2  0  0  0
  -24.8649  -28.9584   20.1097 C   0  0  0  0  0  0
  -22.7468  -29.4639   22.4946 C   0  0  0  0  0  0
  -18.0287  -28.1383   22.8482 C   0  0  0  0  0  0
  -24.1491  -36.7298   23.2637 C   0  0  0  0  0  0
  -25.9601  -30.7981   21.3808 C   0  0  0  0  0  0
  -26.0349  -29.4302   20.7181 C   0  0  0  0  0  0
  -27.2175  -28.6319   20.7113 C   0  0  0  0  0  0
  -26.0303  -26.9323   19.4595 C   0  0  0  0  0  0
  -24.8641  -27.7129   19.4727 C   0  0  0  0  0  0
  -23.6317  -29.8339   20.1629 C   0  0  0  0  0  0
  -25.4115  -36.3093   24.0330 C   0  0  1  0  0  0
  -20.5886  -28.3686   23.1282 C   0  0  2  0  0  0
  -20.6780  -26.9412   22.5405 C   0  0  0  0  0  0
  -19.5756  -26.6384   21.5207 C   0  0  0  0  0  0
  -18.1933  -26.7925   22.1619 C   0  0  0  0  0  0
  -19.1539  -28.8852   23.2878 C   0  0  0  0  0  0
  -18.9461  -30.1456   23.8894 C   0  0  0  0  0  0
  -17.6462  -30.6587   24.0561 C   0  0  0  0  0  0
  -25.9049  -34.9462   23.5112 C   0  0  0  0  0  0
  -16.5350  -29.9082   23.6335 C   0  0  0  0  0  0
  -16.7272  -28.6503   23.0350 C   0  0  0  0  0  0
  -26.4497  -31.6601   25.0747 C   0  0  0  0  0  0
  -25.3733  -31.3734   26.1475 C   0  0  0  0  0  0
  -27.0342  -30.3024   24.6201 C   0  0  0  0  0  0
  -27.6058  -32.4334   25.7515 C   0  0  0  0  0  0
  -27.5581  -37.1806   24.8462 C   0  0  0  0  0  0
  -21.4183  -29.3045   22.3682 N   0  0  0  0  0  0
  -26.4294  -37.3784   23.9405 N   0  0  0  0  0  0
  -24.6860  -31.0654   22.1027 N   0  0  0  0  0  0
  -23.4199  -28.8165   23.3008 O   0  0  0  0  0  0
  -28.3407  -26.4770   20.1687 O   0  0  0  0  0  0
  -26.5605  -34.8920   22.4670 O   0  0  0  0  0  0
  -23.5412  -32.1428   23.7404 O   0  0  0  0  0  0
  -28.9967  -23.1823   21.4029 C   0  0  0  0  0  0
  -29.7880  -23.2874   19.1298 C   0  0  0  0  0  0
  -29.6316  -21.9153   21.5679 C   0  0  0  0  0  0
  -30.4184  -22.0242   19.2930 C   0  0  0  0  0  0
  -29.0398  -23.8885   20.1715 C   0  0  0  0  0  0
  -30.3350  -21.2893   20.5045 C   0  0  0  0  0  0
  -28.6505  -16.1845   20.3826 C   0  0  0  0  0  0
  -30.9129  -17.1964   20.8169 C   0  0  0  0  0  0
  -28.0668  -17.5947   20.5732 C   0  0  0  0  0  0
  -30.2028  -18.6211   20.9562 C   0  0  1  0  0  0
  -32.2267  -20.0472   21.6511 C   0  0  0  0  0  0
  -28.0595  -25.0636   19.8619 C   0  0  0  0  0  0
  -31.0733  -19.9097   20.6449 C   0  0  2  0  0  0
  -30.0713  -15.9351   20.7087 N   0  0  0  0  0  0
  -28.9929  -18.6372   20.1344 N   0  3  0  0  0  0
  -31.4635  -12.5726   19.1129 H   0  0  0  0  0  0
  -30.3964  -11.4695   19.9252 H   0  0  0  0  0  0
  -29.7858  -11.7236   17.4925 H   0  0  0  0  0  0
  -29.5848  -13.4455   17.7077 H   0  0  0  0  0  0
  -27.9173  -11.2128   18.9252 H   0  0  0  0  0  0
  -27.3554  -12.4264   17.8061 H   0  0  0  0  0  0
  -27.5841  -14.1357   19.3843 H   0  0  0  0  0  0
  -28.7727  -12.0988   21.3685 H   0  0  0  0  0  0
  -28.4470  -13.7235   21.8341 H   0  0  0  0  0  0
  -25.2701   -9.5629   22.4816 H   0  0  0  0  0  0
  -23.9967   -7.4554   22.7466 H   0  0  0  0  0  0
  -21.0805   -8.8710   19.8946 H   0  0  0  0  0  0
  -22.3631  -10.9643   19.6212 H   0  0  0  0  0  0
  -21.1962   -7.6129   23.9711 H   0  0  0  0  0  0
  -21.1486   -6.0514   25.9084 H   0  0  0  0  0  0
  -22.0604   -2.7595   23.2853 H   0  0  0  0  0  0
  -22.3995  -11.9881   22.4850 H   0  0  0  0  0  0
  -21.1058  -13.1301   22.2626 H   0  0  0  0  0  0
  -24.5978  -15.7704   20.4030 H   0  0  0  0  0  0
  -26.1551  -15.5320   19.8014 H   0  0  0  0  0  0
  -26.7174  -32.5475   23.1138 H   0  0  0  0  0  0
  -25.0101  -33.9758   25.0465 H   0  0  0  0  0  0
  -22.7103  -31.3107   21.4122 H   0  0  0  0  0  0
  -23.3753  -35.9630   23.3302 H   0  0  0  0  0  0
  -24.3582  -36.8913   22.2050 H   0  0  0  0  0  0
  -23.7244  -37.6503   23.6655 H   0  0  0  0  0  0
  -26.0945  -31.5660   20.6175 H   0  0  0  0  0  0
  -26.8391  -30.8409   22.0122 H   0  0  0  0  0  0
  -28.1105  -28.9886   21.2055 H   0  0  0  0  0  0
  -25.9440  -25.9909   18.9397 H   0  0  0  0  0  0
  -23.9707  -27.3477   18.9850 H   0  0  0  0  0  0
  -23.7475  -30.6152   19.4107 H   0  0  0  0  0  0
  -22.7526  -29.2626   19.8592 H   0  0  0  0  0  0
  -25.1294  -36.1951   25.0823 H   0  0  0  0  0  0
  -20.9976  -28.3259   24.1403 H   0  0  0  0  0  0
  -20.5687  -26.2292   23.3603 H   0  0  0  0  0  0
  -21.6648  -26.7452   22.1192 H   0  0  0  0  0  0
  -19.6919  -25.6292   21.1241 H   0  0  0  0  0  0
  -19.6697  -27.3193   20.6735 H   0  0  0  0  0  0
  -17.4203  -26.6670   21.4020 H   0  0  0  0  0  0
  -18.0339  -26.0070   22.9021 H   0  0  0  0  0  0
  -19.7938  -30.7273   24.2261 H   0  0  0  0  0  0
  -17.5016  -31.6268   24.5157 H   0  0  0  0  0  0
  -15.5350  -30.2980   23.7669 H   0  0  0  0  0  0
  -15.8670  -28.0821   22.7064 H   0  0  0  0  0  0
  -24.5893  -30.7105   25.7795 H   0  0  0  0  0  0
  -24.8946  -32.2903   26.4922 H   0  0  0  0  0  0
  -25.8055  -30.8885   27.0237 H   0  0  0  0  0  0
  -26.2924  -29.6773   24.1215 H   0  0  0  0  0  0
  -27.4030  -29.7278   25.4709 H   0  0  0  0  0  0
  -27.8798  -30.4307   23.9439 H   0  0  0  0  0  0
  -27.2666  -33.3625   26.2108 H   0  0  0  0  0  0
  -28.3861  -32.6911   25.0340 H   0  0  0  0  0  0
  -28.0739  -31.8454   26.5421 H   0  0  0  0  0  0
  -28.2596  -38.0106   24.7513 H   0  0  0  0  0  0
  -28.1082  -36.2636   24.6285 H   0  0  0  0  0  0
  -27.2298  -37.1448   25.8865 H   0  0  0  0  0  0
  -20.9355  -29.8775   21.6902 H   0  0  0  0  0  0
  -26.0177  -38.2860   24.1407 H   0  0  0  0  0  0
  -28.4140  -23.5850   22.2199 H   0  0  0  0  0  0
  -29.8282  -23.7668   18.1613 H   0  0  0  0  0  0
  -29.5568  -21.4169   22.5246 H   0  0  0  0  0  0
  -30.9609  -21.6105   18.4538 H   0  0  0  0  0  0
  -28.5361  -15.9482   19.3250 H   0  0  0  0  0  0
  -28.0038  -15.5569   20.9806 H   0  0  0  0  0  0
  -31.6051  -17.0694   21.6508 H   0  0  0  0  0  0
  -31.5415  -17.2362   19.9255 H   0  0  0  0  0  0
  -27.8054  -17.7535   21.6210 H   0  0  0  0  0  0
  -27.1338  -17.6879   20.0153 H   0  0  0  0  0  0
  -29.8703  -18.7203   21.9912 H   0  0  0  0  0  0
  -32.8805  -20.8774   21.3834 H   0  0  0  0  0  0
  -32.8432  -19.1487   21.6812 H   0  0  0  0  0  0
  -31.8578  -20.2294   22.6609 H   0  0  0  0  0  0
  -27.1403  -24.7737   20.3746 H   0  0  0  0  0  0
  -27.8539  -24.9971   18.7923 H   0  0  0  0  0  0
  -31.5400  -19.7261   19.6758 H   0  0  0  0  0  0
  -28.5477  -19.5362   20.2356 H   0  0  0  0  0  0
  -29.2253  -18.5163   19.1620 H   0  0  0  0  0  0
  1 25  1  0  0  0
  1 30  2  0  0  0
  1 84  1  0  0  0
  2  3  1  0  0  0
  2 25  1  0  0  0
  2 86  1  0  0  0
  2 87  1  0  0  0
  3  4  1  0  0  0
  3 88  1  0  0  0
  3 89  1  0  0  0
  4  5  1  0  0  0
  4 90  1  0  0  0
  4 91  1  0  0  0
  5  6  1  0  0  0
  5 26  1  0  0  0
  5 92  1  0  0  0
  6 25  1  0  0  0
  6 93  1  0  0  0
  6 94  1  0  0  0
  7  8  2  0  0  0
  7 26  1  0  0  0
  7 29  1  0  0  0
  8  9  1  0  0  0
  8 22  1  0  0  0
  9 10  1  0  0  0
  9 27  2  0  0  0
 10 11  2  0  0  0
 10 15  1  0  0  0
 11 12  1  0  0  0
 11 95  1  0  0  0
 12 13  2  0  0  0
 12 96  1  0  0  0
 13 14  1  0  0  0
 13 31  1  0  0  0
 14 15  2  0  0  0
 14 97  1  0  0  0
 15 98  1  0  0  0
 16 17  2  0  0  0
 16 21  1  0  0  0
 16 31  1  0  0  0
 17 18  1  0  0  0
 17 99  1  0  0  0
 18 19  2  0  0  0
 18100  1  0  0  0
 19 20  1  0  0  0
 19 24  1  0  0  0
 20 21  2  0  0  0
 20101  1  0  0  0
 21 23  1  0  0  0
 22 28  1  0  0  0
 22 32  2  0  0  0
 26 27  1  0  0  0
 28102  1  0  0  0
 28103  1  0  0  0
 29104  1  0  0  0
 29105  1  0  0  0
 33 34  1  0  0  0
 33 66  1  0  0  0
 33 70  2  0  0  0
 34 36  1  0  0  0
 34 59  1  0  0  0
 34106  1  0  0  0
 35 44  2  0  0  0
 35 45  1  0  0  0
 35 68  1  0  0  0
 36 56  1  0  0  0
 36107  1  0  0  0
 37 39  1  0  0  0
 37 47  1  0  0  0
 37 66  1  0  0  0
 37108  1  0  0  0
 38 43  2  0  0  0
 38 46  1  0  0  0
 38 47  1  0  0  0
 39 64  1  0  0  0
 39 67  2  0  0  0
 40 52  1  0  0  0
 40 53  2  0  0  0
 40 58  1  0  0  0
 41109  1  0  0  0
 41110  1  0  0  0
 41111  1  0  0  0
 41 48  1  0  0  0
 42 43  1  0  0  0
 42 66  1  0  0  0
 42112  1  0  0  0
 42113  1  0  0  0
 43 44  1  0  0  0
 44114  1  0  0  0
 45 46  2  0  0  0
 45115  1  0  0  0
 46116  1  0  0  0
 47117  1  0  0  0
 47118  1  0  0  0
 48 56  1  0  0  0
 48 65  1  0  0  0
 48119  1  0  0  0
 49 50  1  0  0  0
 49 53  1  0  0  0
 49 64  1  0  0  0
 49120  1  0  0  0
 50 51  1  0  0  0
 50121  1  0  0  0
 50122  1  0  0  0
 51 52  1  0  0  0
 51123  1  0  0  0
 51124  1  0  0  0
 52125  1  0  0  0
 52126  1  0  0  0
 53 54  1  0  0  0
 54 55  2  0  0  0
 54127  1  0  0  0
 55 57  1  0  0  0
 55128  1  0  0  0
 56 69  2  0  0  0
 57 58  2  0  0  0
 57129  1  0  0  0
 58130  1  0  0  0
 59 60  1  0  0  0
 59 61  1  0  0  0
 59 62  1  0  0  0
 60131  1  0  0  0
 60132  1  0  0  0
 60133  1  0  0  0
 61134  1  0  0  0
 61135  1  0  0  0
 61136  1  0  0  0
 62137  1  0  0  0
 62138  1  0  0  0
 62139  1  0  0  0
 63 65  1  0  0  0
 63140  1  0  0  0
 63141  1  0  0  0
 63142  1  0  0  0
 64143  1  0  0  0
 65144  1  0  0  0
 68 82  1  0  0  0
 71 73  2  0  0  0
 71 75  1  0  0  0
 71145  1  0  0  0
 72 74  1  0  0  0
 72 75  2  0  0  0
 72146  1  0  0  0
 73 76  1  0  0  0
 73147  1  0  0  0
 74 76  2  0  0  0
 74148  1  0  0  0
 75 82  1  0  0  0
 76 83  1  0  0  0
 77 79  1  0  0  0
 77 84  1  0  0  0
 77149  1  0  0  0
 77150  1  0  0  0
 78 84  1  0  0  0
 78151  1  0  0  0
 78152  1  0  0  0
 78 80  1  0  0  0
 79 85  1  0  0  0
 79153  1  0  0  0
 79154  1  0  0  0
 80 83  1  0  0  0
 80 85  1  0  0  0
 80155  1  0  0  0
 81156  1  0  0  0
 81157  1  0  0  0
 81158  1  0  0  0
 81 83  1  0  0  0
 82159  1  0  0  0
 82160  1  0  0  0
 83161  1  0  0  0
 85162  1  0  0  0
 85163  1  0  0  0
M  CHG  1  85   1
M  ISO  4   1 100  68 101  82 101  84 100
M  END
> <chiral flag>
0

> <version>
0

> <s_m_source_file>
/data/baiqing/PycharmProjects/Reinvent-master-3.2/result/LINK_invent/BTK/process_docking_weight1_custom_sum_contain_oxygen_bond_distance_aromatic_linkinvent_7_9_3/rearranged_h_0119.sdf

> <i_m_source_file_index>
58

> <r_mmod_Potential_Energy-OPLS-2005>
167.100769042969

> <r_mmod_Stretch_Energy-OPLS-2005>
86.1968688964844

> <r_mmod_Bend_Energy-OPLS-2005>
164.177185058594

> <r_mmod_Torsional_Energy-OPLS-2005>
388.870422363281

> <r_mmod_Improper_Torsional_Energy-OPLS-2005>
9.43166065216064

> <r_mmod_Van_der_Waal_Energy-OPLS-2005>
173.368255615234

> <r_mmod_Electrostatic_Energy-OPLS-2005>
-256.370208740234

> <r_mmod_Solvation_Energy-OPLS-2005>
-461.631408691406

> <b_mmod_Minimization_Converged-OPLS-2005>
0

> <r_mmod_RMS_Derivative-OPLS-2005>
0.804775059223175

$$$$
58
                    3D
 Structure written by MMmdl.
169178  0  0  1  0            999 V2000
  -30.7394  -14.3310   20.6985 C   0  0  0  0  0  0
  -30.4233  -12.2754   19.3767 C   0  0  0  0  0  0
  -29.4831  -12.5311   18.1829 C   0  0  0  0  0  0
  -28.0057  -12.3887   18.5985 C   0  0  0  0  0  0
  -27.6700  -13.1914   19.8826 C   0  0  2  0  0  0
  -28.7030  -12.8830   20.9873 C   0  0  0  0  0  0
  -25.2628  -13.8136   20.5651 C   0  0  0  0  0  0
  -24.1856  -13.0433   20.9143 C   0  0  0  0  0  0
  -24.6384  -11.6890   20.8710 C   0  0  0  0  0  0
  -23.9044  -10.4288   21.0396 C   0  0  0  0  0  0
  -24.3606   -9.4207   21.9175 C   0  0  0  0  0  0
  -23.6287   -8.2242   22.0751 C   0  0  0  0  0  0
  -22.4272   -8.0277   21.3544 C   0  0  0  0  0  0
  -21.9897   -9.0243   20.4645 C   0  0  0  0  0  0
  -22.7217  -10.2125   20.3045 C   0  0  0  0  0  0
  -21.6851   -6.0731   22.5279 C   0  0  0  0  0  0
  -21.4014   -6.5637   23.8209 C   0  0  0  0  0  0
  -21.3658   -5.6791   24.9173 C   0  0  0  0  0  0
  -21.6042   -4.3053   24.7223 C   0  0  0  0  0  0
  -21.8821   -3.8148   23.4346 C   0  0  0  0  0  0
  -21.9193   -4.6962   22.3406 C   0  0  0  0  0  0
  -22.7881  -13.5244   21.1812 C   0  0  0  0  0  0
  -22.1662   -4.2148   21.0984 F   0  0  0  0  0  0
  -21.5626   -3.4537   25.7732 F   0  0  0  0  0  0
  -30.0494  -13.1894   20.4630 N   0  0  0  0  0  0
  -26.3054  -12.9275   20.3366 N   0  0  0  0  0  0
  -25.9304  -11.6446   20.5731 N   0  0  0  0  0  0
  -22.0521  -12.8244   22.0375 N   0  0  0  0  0  0
  -25.4381  -15.1848   20.4072 N   0  0  0  0  0  0
  -31.7552  -14.6629   20.0759 O   0  0  0  0  0  0
  -21.6638   -6.8875   21.4244 O   0  0  0  0  0  0
  -22.3571  -14.5552   20.6665 O   0  0  0  0  0  0
  -24.6031  -31.8729   23.2123 C   0  0  0  0  0  0
  -25.8954  -32.4855   23.8403 C   0  0  1  0  0  0
  -27.2762  -27.5090   20.1038 C   0  0  0  0  0  0
  -25.5821  -33.8641   24.2346 N   0  0  0  0  0  0
  -23.3873  -30.4935   21.5492 C   0  0  2  0  0  0
  -24.8409  -28.9605   20.1163 C   0  0  0  0  0  0
  -22.7343  -29.4692   22.5014 C   0  0  0  0  0  0
  -18.0261  -28.1381   22.8508 C   0  0  0  0  0  0
  -24.1470  -36.7344   23.2640 C   0  0  0  0  0  0
  -25.8998  -30.8693   21.3436 C   0  0  0  0  0  0
  -25.9860  -29.5035   20.7048 C   0  0  0  0  0  0
  -27.1942  -28.7929   20.6965 C   0  0  0  0  0  0
  -26.1102  -26.9665   19.5185 C   0  0  0  0  0  0
  -24.8951  -27.6866   19.5197 C   0  0  0  0  0  0
  -23.5929  -29.8130   20.1656 C   0  0  0  0  0  0
  -25.4083  -36.3126   24.0347 C   0  0  1  0  0  0
  -20.5838  -28.3649   23.1358 C   0  0  2  0  0  0
  -20.6753  -26.9399   22.5431 C   0  0  0  0  0  0
  -19.5728  -26.6408   21.5218 C   0  0  0  0  0  0
  -18.1907  -26.7934   22.1633 C   0  0  0  0  0  0
  -19.1508  -28.8830   23.2941 C   0  0  0  0  0  0
  -18.9442  -30.1441   23.8943 C   0  0  0  0  0  0
  -17.6447  -30.6590   24.0583 C   0  0  0  0  0  0
  -25.9000  -34.9491   23.5157 C   0  0  0  0  0  0
  -16.5337  -29.9104   23.6318 C   0  0  0  0  0  0
  -16.7258  -28.6521   23.0340 C   0  0  0  0  0  0
  -26.4425  -31.6608   25.0693 C   0  0  0  0  0  0
  -25.3728  -31.3693   26.1471 C   0  0  0  0  0  0
  -27.0243  -30.3068   24.5990 C   0  0  0  0  0  0
  -27.6022  -32.4311   25.7440 C   0  0  0  0  0  0
  -27.5574  -37.1830   24.8470 C   0  0  0  0  0  0
  -21.4081  -29.3030   22.3769 N   0  0  0  0  0  0
  -26.4286  -37.3794   23.9405 N   0  0  0  0  0  0
  -24.6489  -31.0902   22.0971 N   0  0  0  0  0  0
  -23.4163  -28.8256   23.3036 O   0  0  0  0  0  0
  -28.4438  -26.7718   20.0634 O   0  0  0  0  0  0
  -26.5585  -34.8942   22.4730 O   0  0  0  0  0  0
  -23.5254  -32.1438   23.7585 O   0  0  0  0  0  0
  -30.7585  -21.5050   24.1101 C   0  0  0  0  0  0
  -31.7723  -20.8884   21.9781 C   0  0  0  0  0  0
  -31.0506  -22.8591   23.8499 C   0  0  0  0  0  0
  -32.0588  -22.2351   21.7166 C   0  0  0  0  0  0
  -31.0912  -20.5177   23.1581 C   0  0  0  0  0  0
  -31.6722  -23.2244   22.6375 C   0  0  0  0  0  0
  -31.8408  -18.0995   23.3299 C   0  0  0  0  0  0
  -29.5867  -18.7622   22.2357 C   0  0  0  0  0  0
  -31.4187  -16.6290   23.1885 C   0  0  0  0  0  0
  -29.2416  -17.2770   22.1393 C   0  0  0  0  0  0
  -30.6371  -19.0777   23.3311 C   0  0  2  0  0  0
  -30.5325  -16.4732   21.9456 C   0  0  2  0  0  0
  -31.8450  -24.6755   22.2587 C   0  0  0  0  0  0
  -30.5604  -25.2091   21.6051 C   0  0  0  0  0  0
  -30.8042  -26.4489   20.7366 C   0  0  0  0  0  0
  -29.5897  -27.3732   20.6770 C   0  0  0  0  0  0
  -30.2125  -15.0864   21.6681 N   0  0  0  0  0  0
  -31.4643  -12.3971   19.0702 H   0  0  0  0  0  0
  -30.3357  -11.2426   19.7175 H   0  0  0  0  0  0
  -29.7112  -11.8404   17.3699 H   0  0  0  0  0  0
  -29.6564  -13.5339   17.7888 H   0  0  0  0  0  0
  -27.8034  -11.3290   18.7600 H   0  0  0  0  0  0
  -27.3547  -12.7001   17.7807 H   0  0  0  0  0  0
  -27.7434  -14.2513   19.6373 H   0  0  0  0  0  0
  -28.6608  -11.8253   21.2514 H   0  0  0  0  0  0
  -28.4442  -13.4082   21.9067 H   0  0  0  0  0  0
  -25.2757   -9.5681   22.4736 H   0  0  0  0  0  0
  -23.9995   -7.4637   22.7470 H   0  0  0  0  0  0
  -21.0826   -8.8764   19.8954 H   0  0  0  0  0  0
  -22.3684  -10.9660   19.6147 H   0  0  0  0  0  0
  -21.2011   -7.6141   23.9712 H   0  0  0  0  0  0
  -21.1474   -6.0519   25.9071 H   0  0  0  0  0  0
  -22.0603   -2.7609   23.2846 H   0  0  0  0  0  0
  -22.4140  -11.9906   22.4764 H   0  0  0  0  0  0
  -21.1138  -13.1276   22.2574 H   0  0  0  0  0  0
  -24.6770  -15.8453   20.5186 H   0  0  0  0  0  0
  -26.3020  -15.6213   20.1111 H   0  0  0  0  0  0
  -26.7031  -32.5627   23.1194 H   0  0  0  0  0  0
  -24.9914  -33.9801   25.0449 H   0  0  0  0  0  0
  -22.6722  -31.3067   21.4082 H   0  0  0  0  0  0
  -23.3705  -35.9712   23.3343 H   0  0  0  0  0  0
  -24.3562  -36.8908   22.2048 H   0  0  0  0  0  0
  -23.7261  -37.6578   23.6629 H   0  0  0  0  0  0
  -25.9819  -31.6311   20.5670 H   0  0  0  0  0  0
  -26.7972  -30.9454   21.9458 H   0  0  0  0  0  0
  -28.0489  -29.2748   21.1460 H   0  0  0  0  0  0
  -26.1502  -25.9904   19.0576 H   0  0  0  0  0  0
  -24.0138  -27.2595   19.0607 H   0  0  0  0  0  0
  -23.6882  -30.5818   19.3976 H   0  0  0  0  0  0
  -22.7234  -29.2186   19.8817 H   0  0  0  0  0  0
  -25.1267  -36.1992   25.0843 H   0  0  0  0  0  0
  -20.9945  -28.3207   24.1472 H   0  0  0  0  0  0
  -20.5644  -26.2256   23.3603 H   0  0  0  0  0  0
  -21.6628  -26.7451   22.1230 H   0  0  0  0  0  0
  -19.6885  -25.6334   21.1217 H   0  0  0  0  0  0
  -19.6671  -27.3249   20.6769 H   0  0  0  0  0  0
  -17.4186  -26.6700   21.4028 H   0  0  0  0  0  0
  -18.0315  -26.0061   22.9013 H   0  0  0  0  0  0
  -19.7916  -30.7251   24.2329 H   0  0  0  0  0  0
  -17.5005  -31.6265   24.5199 H   0  0  0  0  0  0
  -15.5346  -30.3033   23.7602 H   0  0  0  0  0  0
  -15.8658  -28.0868   22.7006 H   0  0  0  0  0  0
  -24.5887  -30.7042   25.7829 H   0  0  0  0  0  0
  -24.8937  -32.2846   26.4962 H   0  0  0  0  0  0
  -25.8123  -30.8846   27.0195 H   0  0  0  0  0  0
  -26.2768  -29.6849   24.1046 H   0  0  0  0  0  0
  -27.4051  -29.7267   25.4404 H   0  0  0  0  0  0
  -27.8576  -30.4422   23.9089 H   0  0  0  0  0  0
  -27.2648  -33.3586   26.2077 H   0  0  0  0  0  0
  -28.3790  -32.6904   25.0237 H   0  0  0  0  0  0
  -28.0728  -31.8387   26.5299 H   0  0  0  0  0  0
  -28.2623  -38.0093   24.7466 H   0  0  0  0  0  0
  -28.1032  -36.2629   24.6346 H   0  0  0  0  0  0
  -27.2305  -37.1542   25.8877 H   0  0  0  0  0  0
  -20.9216  -29.8747   21.7008 H   0  0  0  0  0  0
  -26.0185  -38.2884   24.1360 H   0  0  0  0  0  0
  -30.2365  -21.2366   25.0181 H   0  0  0  0  0  0
  -32.0286  -20.1476   21.2336 H   0  0  0  0  0  0
  -30.7532  -23.6185   24.5604 H   0  0  0  0  0  0
  -32.5296  -22.5087   20.7825 H   0  0  0  0  0  0
  -32.5132  -18.3258   22.5029 H   0  0  0  0  0  0
  -32.4306  -18.2358   24.2372 H   0  0  0  0  0  0
  -28.6828  -19.3485   22.4053 H   0  0  0  0  0  0
  -29.9572  -19.0687   21.2574 H   0  0  0  0  0  0
  -30.8856  -16.3017   24.0825 H   0  0  0  0  0  0
  -32.3057  -16.0001   23.1062 H   0  0  0  0  0  0
  -28.5621  -17.1219   21.2997 H   0  0  0  0  0  0
  -28.7098  -16.9548   23.0360 H   0  0  0  0  0  0
  -30.1416  -18.9812   24.2990 H   0  0  0  0  0  0
  -31.0638  -16.8856   21.0836 H   0  0  0  0  0  0
  -32.6863  -24.7596   21.5696 H   0  0  0  0  0  0
  -32.1050  -25.2651   23.1393 H   0  0  0  0  0  0
  -29.8232  -25.4058   22.3849 H   0  0  0  0  0  0
  -30.1183  -24.4431   20.9655 H   0  0  0  0  0  0
  -31.1161  -26.1579   19.7329 H   0  0  0  0  0  0
  -31.6309  -27.0226   21.1591 H   0  0  0  0  0  0
  -29.8668  -28.2762   20.1296 H   0  0  0  0  0  0
  -29.3626  -27.6655   21.7038 H   0  0  0  0  0  0
  -29.4086  -14.6968   22.1376 H   0  0  0  0  0  0
  1 25  1  0  0  0
  1 30  2  0  0  0
  1 87  1  0  0  0
  2  3  1  0  0  0
  2 25  1  0  0  0
  2 88  1  0  0  0
  2 89  1  0  0  0
  3  4  1  0  0  0
  3 90  1  0  0  0
  3 91  1  0  0  0
  4  5  1  0  0  0
  4 92  1  0  0  0
  4 93  1  0  0  0
  5  6  1  0  0  0
  5 26  1  0  0  0
  5 94  1  0  0  0
  6 25  1  0  0  0
  6 95  1  0  0  0
  6 96  1  0  0  0
  7  8  2  0  0  0
  7 26  1  0  0  0
  7 29  1  0  0  0
  8  9  1  0  0  0
  8 22  1  0  0  0
  9 10  1  0  0  0
  9 27  2  0  0  0
 10 11  2  0  0  0
 10 15  1  0  0  0
 11 12  1  0  0  0
 11 97  1  0  0  0
 12 13  2  0  0  0
 12 98  1  0  0  0
 13 14  1  0  0  0
 13 31  1  0  0  0
 14 15  2  0  0  0
 14 99  1  0  0  0
 15100  1  0  0  0
 16 17  2  0  0  0
 16 21  1  0  0  0
 16 31  1  0  0  0
 17 18  1  0  0  0
 17101  1  0  0  0
 18 19  2  0  0  0
 18102  1  0  0  0
 19 20  1  0  0  0
 19 24  1  0  0  0
 20 21  2  0  0  0
 20103  1  0  0  0
 21 23  1  0  0  0
 22 28  1  0  0  0
 22 32  2  0  0  0
 26 27  1  0  0  0
 28104  1  0  0  0
 28105  1  0  0  0
 29106  1  0  0  0
 29107  1  0  0  0
 33 34  1  0  0  0
 33 66  1  0  0  0
 33 70  2  0  0  0
 34 36  1  0  0  0
 34 59  1  0  0  0
 34108  1  0  0  0
 35 44  2  0  0  0
 35 45  1  0  0  0
 35 68  1  0  0  0
 36 56  1  0  0  0
 36109  1  0  0  0
 37 39  1  0  0  0
 37 47  1  0  0  0
 37 66  1  0  0  0
 37110  1  0  0  0
 38 43  2  0  0  0
 38 46  1  0  0  0
 38 47  1  0  0  0
 39 64  1  0  0  0
 39 67  2  0  0  0
 40 52  1  0  0  0
 40 53  2  0  0  0
 40 58  1  0  0  0
 41111  1  0  0  0
 41112  1  0  0  0
 41113  1  0  0  0
 41 48  1  0  0  0
 42 43  1  0  0  0
 42 66  1  0  0  0
 42114  1  0  0  0
 42115  1  0  0  0
 43 44  1  0  0  0
 44116  1  0  0  0
 45 46  2  0  0  0
 45117  1  0  0  0
 46118  1  0  0  0
 47119  1  0  0  0
 47120  1  0  0  0
 48 56  1  0  0  0
 48 65  1  0  0  0
 48121  1  0  0  0
 49 50  1  0  0  0
 49 53  1  0  0  0
 49 64  1  0  0  0
 49122  1  0  0  0
 50 51  1  0  0  0
 50123  1  0  0  0
 50124  1  0  0  0
 51 52  1  0  0  0
 51125  1  0  0  0
 51126  1  0  0  0
 52127  1  0  0  0
 52128  1  0  0  0
 53 54  1  0  0  0
 54 55  2  0  0  0
 54129  1  0  0  0
 55 57  1  0  0  0
 55130  1  0  0  0
 56 69  2  0  0  0
 57 58  2  0  0  0
 57131  1  0  0  0
 58132  1  0  0  0
 59 60  1  0  0  0
 59 61  1  0  0  0
 59 62  1  0  0  0
 60133  1  0  0  0
 60134  1  0  0  0
 60135  1  0  0  0
 61136  1  0  0  0
 61137  1  0  0  0
 61138  1  0  0  0
 62139  1  0  0  0
 62140  1  0  0  0
 62141  1  0  0  0
 63 65  1  0  0  0
 63142  1  0  0  0
 63143  1  0  0  0
 63144  1  0  0  0
 64145  1  0  0  0
 65146  1  0  0  0
 68 86  1  0  0  0
 71 73  2  0  0  0
 71 75  1  0  0  0
 71147  1  0  0  0
 72 74  1  0  0  0
 72 75  2  0  0  0
 72148  1  0  0  0
 73 76  1  0  0  0
 73149  1  0  0  0
 74 76  2  0  0  0
 74150  1  0  0  0
 75 81  1  0  0  0
 76 83  1  0  0  0
 77 79  1  0  0  0
 77 81  1  0  0  0
 77151  1  0  0  0
 77152  1  0  0  0
 78 80  1  0  0  0
 78 81  1  0  0  0
 78153  1  0  0  0
 78154  1  0  0  0
 79 82  1  0  0  0
 79155  1  0  0  0
 79156  1  0  0  0
 80 82  1  0  0  0
 80157  1  0  0  0
 80158  1  0  0  0
 81159  1  0  0  0
 82 87  1  0  0  0
 82160  1  0  0  0
 83 84  1  0  0  0
 83161  1  0  0  0
 83162  1  0  0  0
 84 85  1  0  0  0
 84163  1  0  0  0
 84164  1  0  0  0
 85 86  1  0  0  0
 85165  1  0  0  0
 85166  1  0  0  0
 86167  1  0  0  0
 86168  1  0  0  0
 87169  1  0  0  0
M  ISO  4   1 100  68 101  86 101  87 100
M  END
> <chiral flag>
0

> <version>
0

> <s_m_source_file>
/data/baiqing/PycharmProjects/Reinvent-master-3.2/result/LINK_invent/BTK/process_docking_weight1_custom_sum_contain_oxygen_bond_distance_aromatic_linkinvent_7_9_3/rearranged_h_0119.sdf

> <i_m_source_file_index>
59

> <r_mmod_Potential_Energy-OPLS-2005>
-59.1704750061035

> <r_mmod_Stretch_Energy-OPLS-2005>
31.6369781494141

> <r_mmod_Bend_Energy-OPLS-2005>
94.0706481933594

> <r_mmod_Torsional_Energy-OPLS-2005>
219.618942260742

> <r_mmod_Improper_Torsional_Energy-OPLS-2005>
2.65808248519897

> <r_mmod_Van_der_Waal_Energy-OPLS-2005>
170.639862060547

> <r_mmod_Electrostatic_Energy-OPLS-2005>
-384.954040527344

> <r_mmod_Solvation_Energy-OPLS-2005>
-199.56494140625

> <b_mmod_Minimization_Converged-OPLS-2005>
0

> <r_mmod_RMS_Derivative-OPLS-2005>
1.59491467475891

$$$$
59
                    3D
 Structure written by MMmdl.
172180  0  0  1  0            999 V2000
  -30.6872  -14.6046   20.4914 C   0  0  0  0  0  0
  -30.4134  -12.3735   19.4542 C   0  0  0  0  0  0
  -29.4958  -12.4936   18.2208 C   0  0  0  0  0  0
  -28.0205  -12.3427   18.6365 C   0  0  0  0  0  0
  -27.6457  -13.2284   19.8563 C   0  0  2  0  0  0
  -28.6908  -13.1206   20.9888 C   0  0  0  0  0  0
  -25.2528  -13.8210   20.5712 C   0  0  0  0  0  0
  -24.1808  -13.0454   20.9201 C   0  0  0  0  0  0
  -24.6393  -11.6930   20.8749 C   0  0  0  0  0  0
  -23.9075  -10.4301   21.0408 C   0  0  0  0  0  0
  -24.3626   -9.4213   21.9185 C   0  0  0  0  0  0
  -23.6297   -8.2250   22.0758 C   0  0  0  0  0  0
  -22.4281   -8.0288   21.3547 C   0  0  0  0  0  0
  -21.9919   -9.0260   20.4647 C   0  0  0  0  0  0
  -22.7248  -10.2138   20.3056 C   0  0  0  0  0  0
  -21.6855   -6.0744   22.5275 C   0  0  0  0  0  0
  -21.4009   -6.5643   23.8210 C   0  0  0  0  0  0
  -21.3658   -5.6793   24.9170 C   0  0  0  0  0  0
  -21.6045   -4.3056   24.7216 C   0  0  0  0  0  0
  -21.8821   -3.8153   23.4336 C   0  0  0  0  0  0
  -21.9193   -4.6972   22.3395 C   0  0  0  0  0  0
  -22.7826  -13.5229   21.1859 C   0  0  0  0  0  0
  -22.1664   -4.2161   21.0972 F   0  0  0  0  0  0
  -21.5630   -3.4537   25.7728 F   0  0  0  0  0  0
  -30.0045  -13.4228   20.4091 N   0  0  0  0  0  0
  -26.2960  -12.9411   20.3321 N   0  0  0  0  0  0
  -25.9324  -11.6554   20.5774 N   0  0  0  0  0  0
  -22.0477  -12.8214   22.0414 N   0  0  0  0  0  0
  -25.4214  -15.1940   20.4150 N   0  0  0  0  0  0
  -31.8670  -14.6773   20.1407 O   0  0  0  0  0  0
  -21.6642   -6.8889   21.4241 O   0  0  0  0  0  0
  -22.3508  -14.5537   20.6716 O   0  0  0  0  0  0
  -24.6234  -31.8619   23.2065 C   0  0  0  0  0  0
  -25.9097  -32.4789   23.8370 C   0  0  1  0  0  0
  -27.2163  -27.3492   20.1126 C   0  0  0  0  0  0
  -25.5930  -33.8590   24.2305 N   0  0  0  0  0  0
  -23.4152  -30.4864   21.5487 C   0  0  2  0  0  0
  -24.8608  -28.9482   20.1083 C   0  0  0  0  0  0
  -22.7466  -29.4626   22.4960 C   0  0  0  0  0  0
  -18.0283  -28.1364   22.8475 C   0  0  0  0  0  0
  -24.1487  -36.7281   23.2643 C   0  0  0  0  0  0
  -25.9532  -30.8009   21.3738 C   0  0  0  0  0  0
  -26.0284  -29.4329   20.7130 C   0  0  0  0  0  0
  -27.2138  -28.6445   20.7055 C   0  0  0  0  0  0
  -26.0355  -26.9133   19.4755 C   0  0  0  0  0  0
  -24.8649  -27.6929   19.4800 C   0  0  0  0  0  0
  -23.6273  -29.8239   20.1623 C   0  0  0  0  0  0
  -25.4110  -36.3092   24.0340 C   0  0  1  0  0  0
  -20.5886  -28.3660   23.1293 C   0  0  2  0  0  0
  -20.6775  -26.9386   22.5414 C   0  0  0  0  0  0
  -19.5755  -26.6364   21.5212 C   0  0  0  0  0  0
  -18.1925  -26.7908   22.1606 C   0  0  0  0  0  0
  -19.1536  -28.8824   23.2879 C   0  0  0  0  0  0
  -18.9464  -30.1422   23.8899 C   0  0  0  0  0  0
  -17.6465  -30.6570   24.0555 C   0  0  0  0  0  0
  -25.9044  -34.9460   23.5117 C   0  0  0  0  0  0
  -16.5353  -29.9065   23.6335 C   0  0  0  0  0  0
  -16.7269  -28.6486   23.0349 C   0  0  0  0  0  0
  -26.4492  -31.6596   25.0730 C   0  0  0  0  0  0
  -25.3725  -31.3710   26.1456 C   0  0  0  0  0  0
  -27.0339  -30.3034   24.6143 C   0  0  0  0  0  0
  -27.6064  -32.4318   25.7493 C   0  0  0  0  0  0
  -27.5581  -37.1783   24.8463 C   0  0  0  0  0  0
  -21.4185  -29.3026   22.3696 N   0  0  0  0  0  0
  -26.4284  -37.3789   23.9424 N   0  0  0  0  0  0
  -24.6829  -31.0650   22.0998 N   0  0  0  0  0  0
  -23.4203  -28.8179   23.3038 O   0  0  0  0  0  0
  -28.3124  -26.4886   20.1492 O   0  0  0  0  0  0
  -26.5607  -34.8929   22.4680 O   0  0  0  0  0  0
  -23.5407  -32.1392   23.7416 O   0  0  0  0  0  0
  -28.3572  -20.1776   19.7509 C   0  0  0  0  0  0
  -28.8372  -21.1217   20.7094 C   0  0  0  0  0  0
  -28.8634  -18.8313   19.7475 C   0  0  0  0  0  0
  -29.8265  -20.6325   21.6023 C   0  0  0  0  0  0
  -29.8495  -18.4498   20.6984 C   0  0  0  0  0  0
  -30.4250  -21.5188   22.6805 C   0  0  0  0  0  0
  -23.5057  -19.7178   18.3804 C   0  0  0  0  0  0
  -24.4952  -22.0151   18.0222 C   0  0  0  0  0  0
  -27.2967  -20.5953   18.7320 C   0  0  0  0  0  0
  -28.1859  -22.5420   20.9199 C   0  0  0  0  0  0
  -30.6453  -17.1008   20.6739 C   0  0  0  0  0  0
  -25.8738  -20.1884   19.1563 C   0  0  0  0  0  0
  -28.7071  -23.8503   20.1918 C   0  0  0  0  0  0
  -28.0549  -25.1767   20.7678 C   0  0  0  0  0  0
  -24.7933  -20.5087   18.1023 C   0  0  0  0  0  0
  -30.3036  -19.3597   21.5918 N   0  0  0  0  0  0
  -28.4148  -17.8983   18.8057 N   0  0  0  0  0  0
  -29.9989  -15.7513   20.7637 N   0  0  0  0  0  0
  -31.4595  -12.4592   19.1543 H   0  0  0  0  0  0
  -30.3156  -11.3877   19.9119 H   0  0  0  0  0  0
  -29.7542  -11.7332   17.4827 H   0  0  0  0  0  0
  -29.6470  -13.4587   17.7338 H   0  0  0  0  0  0
  -27.8562  -11.2922   18.8800 H   0  0  0  0  0  0
  -27.3638  -12.5647   17.7939 H   0  0  0  0  0  0
  -27.6547  -14.2588   19.4997 H   0  0  0  0  0  0
  -28.6929  -12.1198   21.4225 H   0  0  0  0  0  0
  -28.4500  -13.8060   21.8033 H   0  0  0  0  0  0
  -25.2772   -9.5688   22.4757 H   0  0  0  0  0  0
  -24.0006   -7.4642   22.7480 H   0  0  0  0  0  0
  -21.0853   -8.8777   19.8949 H   0  0  0  0  0  0
  -22.3711  -10.9676   19.6165 H   0  0  0  0  0  0
  -21.1999   -7.6150   23.9716 H   0  0  0  0  0  0
  -21.1478   -6.0521   25.9073 H   0  0  0  0  0  0
  -22.0603   -2.7617   23.2826 H   0  0  0  0  0  0
  -22.4088  -11.9853   22.4766 H   0  0  0  0  0  0
  -21.1108  -13.1244   22.2651 H   0  0  0  0  0  0
  -24.6518  -15.8446   20.5247 H   0  0  0  0  0  0
  -26.2704  -15.6413   20.0899 H   0  0  0  0  0  0
  -26.7159  -32.5464   23.1115 H   0  0  0  0  0  0
  -25.0113  -33.9753   25.0469 H   0  0  0  0  0  0
  -22.7079  -31.3069   21.4104 H   0  0  0  0  0  0
  -23.3780  -35.9586   23.3287 H   0  0  0  0  0  0
  -24.3582  -36.8908   22.2063 H   0  0  0  0  0  0
  -23.7200  -37.6461   23.6662 H   0  0  0  0  0  0
  -26.0824  -31.5685   20.6102 H   0  0  0  0  0  0
  -26.8350  -30.8452   22.0013 H   0  0  0  0  0  0
  -28.1107  -29.0070   21.1882 H   0  0  0  0  0  0
  -26.0100  -25.9475   18.9894 H   0  0  0  0  0  0
  -23.9712  -27.3176   19.0015 H   0  0  0  0  0  0
  -23.7431  -30.6034   19.4081 H   0  0  0  0  0  0
  -22.7470  -29.2536   19.8601 H   0  0  0  0  0  0
  -25.1285  -36.1950   25.0830 H   0  0  0  0  0  0
  -20.9949  -28.3219   24.1423 H   0  0  0  0  0  0
  -20.5668  -26.2267   23.3608 H   0  0  0  0  0  0
  -21.6640  -26.7413   22.1204 H   0  0  0  0  0  0
  -19.6926  -25.6285   21.1224 H   0  0  0  0  0  0
  -19.6709  -27.3187   20.6760 H   0  0  0  0  0  0
  -17.4206  -26.6673   21.3993 H   0  0  0  0  0  0
  -18.0305  -26.0039   22.8988 H   0  0  0  0  0  0
  -19.7947  -30.7224   24.2274 H   0  0  0  0  0  0
  -17.5033  -31.6262   24.5132 H   0  0  0  0  0  0
  -15.5355  -30.2967   23.7670 H   0  0  0  0  0  0
  -15.8671  -28.0804   22.7073 H   0  0  0  0  0  0
  -24.5938  -30.7014   25.7775 H   0  0  0  0  0  0
  -24.8869  -32.2863   26.4850 H   0  0  0  0  0  0
  -25.8051  -30.8917   27.0247 H   0  0  0  0  0  0
  -26.2897  -29.6785   24.1187 H   0  0  0  0  0  0
  -27.4101  -29.7282   25.4612 H   0  0  0  0  0  0
  -27.8739  -30.4367   23.9321 H   0  0  0  0  0  0
  -27.2699  -33.3634   26.2057 H   0  0  0  0  0  0
  -28.3878  -32.6840   25.0307 H   0  0  0  0  0  0
  -28.0727  -31.8441   26.5411 H   0  0  0  0  0  0
  -28.2570  -38.0110   24.7551 H   0  0  0  0  0  0
  -28.1103  -36.2639   24.6230 H   0  0  0  0  0  0
  -27.2306  -37.1355   25.8867 H   0  0  0  0  0  0
  -20.9363  -29.8766   21.6926 H   0  0  0  0  0  0
  -26.0173  -38.2858   24.1466 H   0  0  0  0  0  0
  -29.6976  -21.6965   23.4720 H   0  0  0  0  0  0
  -30.7282  -22.4804   22.2662 H   0  0  0  0  0  0
  -31.3054  -21.0633   23.1349 H   0  0  0  0  0  0
  -22.7488  -19.9127   17.6196 H   0  0  0  0  0  0
  -23.0783  -19.9772   19.3494 H   0  0  0  0  0  0
  -23.6954  -18.6434   18.3783 H   0  0  0  0  0  0
  -23.7270  -22.2263   17.2769 H   0  0  0  0  0  0
  -25.3792  -22.5885   17.7418 H   0  0  0  0  0  0
  -24.1400  -22.4004   18.9784 H   0  0  0  0  0  0
  -27.5360  -20.1494   17.7671 H   0  0  0  0  0  0
  -27.3518  -21.6678   18.5552 H   0  0  0  0  0  0
  -28.2074  -22.7456   21.9896 H   0  0  0  0  0  0
  -27.1192  -22.4521   20.7156 H   0  0  0  0  0  0
  -31.3936  -17.1386   21.4672 H   0  0  0  0  0  0
  -31.2193  -17.1345   19.7465 H   0  0  0  0  0  0
  -25.6194  -20.6552   20.1084 H   0  0  0  0  0  0
  -25.8778  -19.1141   19.3444 H   0  0  0  0  0  0
  -28.4983  -23.7768   19.1244 H   0  0  0  0  0  0
  -29.7899  -23.9210   20.2898 H   0  0  0  0  0  0
  -28.3829  -25.2759   21.8030 H   0  0  0  0  0  0
  -26.9845  -24.9887   20.8528 H   0  0  0  0  0  0
  -25.1605  -20.1835   17.1276 H   0  0  0  0  0  0
  -27.8605  -18.1974   18.0109 H   0  0  0  0  0  0
  -28.9250  -17.0343   18.6573 H   0  0  0  0  0  0
  -29.0146  -15.7119   20.9779 H   0  0  0  0  0  0
  1 25  1  0  0  0
  1 30  2  0  0  0
  1 88  1  0  0  0
  2  3  1  0  0  0
  2 25  1  0  0  0
  2 89  1  0  0  0
  2 90  1  0  0  0
  3  4  1  0  0  0
  3 91  1  0  0  0
  3 92  1  0  0  0
  4  5  1  0  0  0
  4 93  1  0  0  0
  4 94  1  0  0  0
  5  6  1  0  0  0
  5 26  1  0  0  0
  5 95  1  0  0  0
  6 25  1  0  0  0
  6 96  1  0  0  0
  6 97  1  0  0  0
  7  8  2  0  0  0
  7 26  1  0  0  0
  7 29  1  0  0  0
  8  9  1  0  0  0
  8 22  1  0  0  0
  9 10  1  0  0  0
  9 27  2  0  0  0
 10 11  2  0  0  0
 10 15  1  0  0  0
 11 12  1  0  0  0
 11 98  1  0  0  0
 12 13  2  0  0  0
 12 99  1  0  0  0
 13 14  1  0  0  0
 13 31  1  0  0  0
 14 15  2  0  0  0
 14100  1  0  0  0
 15101  1  0  0  0
 16 17  2  0  0  0
 16 21  1  0  0  0
 16 31  1  0  0  0
 17 18  1  0  0  0
 17102  1  0  0  0
 18 19  2  0  0  0
 18103  1  0  0  0
 19 20  1  0  0  0
 19 24  1  0  0  0
 20 21  2  0  0  0
 20104  1  0  0  0
 21 23  1  0  0  0
 22 28  1  0  0  0
 22 32  2  0  0  0
 26 27  1  0  0  0
 28105  1  0  0  0
 28106  1  0  0  0
 29107  1  0  0  0
 29108  1  0  0  0
 33 34  1  0  0  0
 33 66  1  0  0  0
 33 70  2  0  0  0
 34 36  1  0  0  0
 34 59  1  0  0  0
 34109  1  0  0  0
 35 44  2  0  0  0
 35 45  1  0  0  0
 35 68  1  0  0  0
 36 56  1  0  0  0
 36110  1  0  0  0
 37 39  1  0  0  0
 37 47  1  0  0  0
 37 66  1  0  0  0
 37111  1  0  0  0
 38 43  2  0  0  0
 38 46  1  0  0  0
 38 47  1  0  0  0
 39 64  1  0  0  0
 39 67  2  0  0  0
 40 52  1  0  0  0
 40 53  2  0  0  0
 40 58  1  0  0  0
 41112  1  0  0  0
 41113  1  0  0  0
 41114  1  0  0  0
 41 48  1  0  0  0
 42 43  1  0  0  0
 42 66  1  0  0  0
 42115  1  0  0  0
 42116  1  0  0  0
 43 44  1  0  0  0
 44117  1  0  0  0
 45 46  2  0  0  0
 45118  1  0  0  0
 46119  1  0  0  0
 47120  1  0  0  0
 47121  1  0  0  0
 48 56  1  0  0  0
 48 65  1  0  0  0
 48122  1  0  0  0
 49 50  1  0  0  0
 49 53  1  0  0  0
 49 64  1  0  0  0
 49123  1  0  0  0
 50 51  1  0  0  0
 50124  1  0  0  0
 50125  1  0  0  0
 51 52  1  0  0  0
 51126  1  0  0  0
 51127  1  0  0  0
 52128  1  0  0  0
 52129  1  0  0  0
 53 54  1  0  0  0
 54 55  2  0  0  0
 54130  1  0  0  0
 55 57  1  0  0  0
 55131  1  0  0  0
 56 69  2  0  0  0
 57 58  2  0  0  0
 57132  1  0  0  0
 58133  1  0  0  0
 59 60  1  0  0  0
 59 61  1  0  0  0
 59 62  1  0  0  0
 60134  1  0  0  0
 60135  1  0  0  0
 60136  1  0  0  0
 61137  1  0  0  0
 61138  1  0  0  0
 61139  1  0  0  0
 62140  1  0  0  0
 62141  1  0  0  0
 62142  1  0  0  0
 63 65  1  0  0  0
 63143  1  0  0  0
 63144  1  0  0  0
 63145  1  0  0  0
 64146  1  0  0  0
 65147  1  0  0  0
 68 84  1  0  0  0
 71 72  2  0  0  0
 71 73  1  0  0  0
 71 79  1  0  0  0
 72 74  1  0  0  0
 72 80  1  0  0  0
 73 75  2  0  0  0
 73 87  1  0  0  0
 74 76  1  0  0  0
 74 86  2  0  0  0
 75 81  1  0  0  0
 75 86  1  0  0  0
 76148  1  0  0  0
 76149  1  0  0  0
 76150  1  0  0  0
 77151  1  0  0  0
 77152  1  0  0  0
 77153  1  0  0  0
 77 85  1  0  0  0
 78 85  1  0  0  0
 78154  1  0  0  0
 78155  1  0  0  0
 78156  1  0  0  0
 79 82  1  0  0  0
 79157  1  0  0  0
 79158  1  0  0  0
 80 83  1  0  0  0
 80159  1  0  0  0
 80160  1  0  0  0
 81 88  1  0  0  0
 81161  1  0  0  0
 81162  1  0  0  0
 82 85  1  0  0  0
 82163  1  0  0  0
 82164  1  0  0  0
 83 84  1  0  0  0
 83165  1  0  0  0
 83166  1  0  0  0
 84167  1  0  0  0
 84168  1  0  0  0
 85169  1  0  0  0
 87170  1  0  0  0
 87171  1  0  0  0
 88172  1  0  0  0
M  ISO  4   1 100  68 101  84 101  88 100
M  END
> <chiral flag>
0

> <version>
0

> <s_m_source_file>
/data/baiqing/PycharmProjects/Reinvent-master-3.2/result/LINK_invent/BTK/process_docking_weight1_custom_sum_contain_oxygen_bond_distance_aromatic_linkinvent_7_9_3/rearranged_h_0119.sdf

> <i_m_source_file_index>
60

> <r_mmod_Potential_Energy-OPLS-2005>
-140.415130615234

> <r_mmod_Stretch_Energy-OPLS-2005>
70.4417495727539

> <r_mmod_Bend_Energy-OPLS-2005>
145.28759765625

> <r_mmod_Torsional_Energy-OPLS-2005>
230.506988525391

> <r_mmod_Improper_Torsional_Energy-OPLS-2005>
7.79376649856567

> <r_mmod_Van_der_Waal_Energy-OPLS-2005>
147.094482421875

> <r_mmod_Electrostatic_Energy-OPLS-2005>
-573.154113769531

> <r_mmod_Solvation_Energy-OPLS-2005>
-211.310348510742

> <b_mmod_Minimization_Converged-OPLS-2005>
0

> <r_mmod_RMS_Derivative-OPLS-2005>
1.4429669380188

$$$$
60
                    3D
 Structure written by MMmdl.
167175  0  0  1  0            999 V2000
  -30.6638  -14.6680   20.4750 C   0  0  0  0  0  0
  -30.4168  -12.4134   19.4532 C   0  0  0  0  0  0
  -29.4964  -12.4982   18.2188 C   0  0  0  0  0  0
  -28.0208  -12.3414   18.6339 C   0  0  0  0  0  0
  -27.6385  -13.2329   19.8461 C   0  0  2  0  0  0
  -28.6861  -13.1533   20.9766 C   0  0  0  0  0  0
  -25.2489  -13.8201   20.5691 C   0  0  0  0  0  0
  -24.1789  -13.0437   20.9210 C   0  0  0  0  0  0
  -24.6389  -11.6916   20.8745 C   0  0  0  0  0  0
  -23.9063  -10.4294   21.0403 C   0  0  0  0  0  0
  -24.3621   -9.4204   21.9184 C   0  0  0  0  0  0
  -23.6300   -8.2241   22.0749 C   0  0  0  0  0  0
  -22.4278   -8.0279   21.3545 C   0  0  0  0  0  0
  -21.9914   -9.0243   20.4645 C   0  0  0  0  0  0
  -22.7240  -10.2128   20.3053 C   0  0  0  0  0  0
  -21.6850   -6.0736   22.5278 C   0  0  0  0  0  0
  -21.4018   -6.5640   23.8215 C   0  0  0  0  0  0
  -21.3663   -5.6793   24.9175 C   0  0  0  0  0  0
  -21.6041   -4.3052   24.7224 C   0  0  0  0  0  0
  -21.8819   -3.8147   23.4347 C   0  0  0  0  0  0
  -21.9196   -4.6967   22.3402 C   0  0  0  0  0  0
  -22.7807  -13.5214   21.1871 C   0  0  0  0  0  0
  -22.1660   -4.2146   21.0982 F   0  0  0  0  0  0
  -21.5630   -3.4541   25.7739 F   0  0  0  0  0  0
  -29.9882  -13.4777   20.3843 N   0  0  0  0  0  0
  -26.2919  -12.9418   20.3274 N   0  0  0  0  0  0
  -25.9320  -11.6557   20.5748 N   0  0  0  0  0  0
  -22.0467  -12.8192   22.0428 N   0  0  0  0  0  0
  -25.4168  -15.1926   20.4108 N   0  0  0  0  0  0
  -31.8584  -14.7222   20.1760 O   0  0  0  0  0  0
  -21.6646   -6.8878   21.4237 O   0  0  0  0  0  0
  -22.3484  -14.5520   20.6721 O   0  0  0  0  0  0
  -24.6261  -31.8568   23.1986 C   0  0  0  0  0  0
  -25.9095  -32.4765   23.8338 C   0  0  1  0  0  0
  -27.2232  -27.3110   20.1376 C   0  0  0  0  0  0
  -25.5901  -33.8572   24.2260 N   0  0  0  0  0  0
  -23.4208  -30.4771   21.5405 C   0  0  2  0  0  0
  -24.8685  -28.9212   20.1173 C   0  0  0  0  0  0
  -22.7477  -29.4589   22.4920 C   0  0  0  0  0  0
  -18.0281  -28.1383   22.8470 C   0  0  0  0  0  0
  -24.1488  -36.7298   23.2640 C   0  0  0  0  0  0
  -25.9600  -30.7885   21.3666 C   0  0  0  0  0  0
  -26.0347  -29.4097   20.7204 C   0  0  0  0  0  0
  -27.2187  -28.6171   20.7160 C   0  0  0  0  0  0
  -26.0398  -26.8638   19.5207 C   0  0  0  0  0  0
  -24.8712  -27.6545   19.5095 C   0  0  0  0  0  0
  -23.6383  -29.8056   20.1574 C   0  0  0  0  0  0
  -25.4105  -36.3081   24.0327 C   0  0  1  0  0  0
  -20.5881  -28.3666   23.1291 C   0  0  2  0  0  0
  -20.6776  -26.9394   22.5412 C   0  0  0  0  0  0
  -19.5759  -26.6385   21.5209 C   0  0  0  0  0  0
  -18.1933  -26.7924   22.1611 C   0  0  0  0  0  0
  -19.1532  -28.8842   23.2882 C   0  0  0  0  0  0
  -18.9455  -30.1445   23.8891 C   0  0  0  0  0  0
  -17.6463  -30.6586   24.0551 C   0  0  0  0  0  0
  -25.9041  -34.9448   23.5101 C   0  0  0  0  0  0
  -16.5352  -29.9080   23.6326 C   0  0  0  0  0  0
  -16.7271  -28.6502   23.0338 C   0  0  0  0  0  0
  -26.4485  -31.6577   25.0703 C   0  0  0  0  0  0
  -25.3729  -31.3723   26.1440 C   0  0  0  0  0  0
  -27.0308  -30.2994   24.6118 C   0  0  0  0  0  0
  -27.6042  -32.4311   25.7483 C   0  0  0  0  0  0
  -27.5578  -37.1802   24.8461 C   0  0  0  0  0  0
  -21.4182  -29.3025   22.3687 N   0  0  0  0  0  0
  -26.4277  -37.3774   23.9421 N   0  0  0  0  0  0
  -24.6881  -31.0587   22.0925 N   0  0  0  0  0  0
  -23.4213  -28.8124   23.2981 O   0  0  0  0  0  0
  -28.3539  -26.4872   20.0960 O   0  0  0  0  0  0
  -26.5634  -34.8916   22.4676 O   0  0  0  0  0  0
  -23.5430  -32.1345   23.7313 O   0  0  0  0  0  0
  -30.2767  -21.0284   21.3057 C   0  0  0  0  0  0
  -28.7060  -20.1461   19.7536 C   0  0  0  0  0  0
  -29.2805  -21.3050   20.3502 C   0  0  0  0  0  0
  -30.7187  -19.6985   21.5565 C   0  0  0  0  0  0
  -30.0868  -18.5927   20.8985 C   0  0  0  0  0  0
  -30.4023  -18.8751   24.4788 C   0  0  0  0  0  0
  -33.1181  -20.3969   22.0817 C   0  0  0  0  0  0
  -27.9566  -25.6290   22.3716 C   0  0  0  0  0  0
  -29.0580  -22.7922   19.8486 C   0  0  0  0  0  0
  -30.6522  -17.1241   21.0891 C   0  0  0  0  0  0
  -31.5464  -19.7661   23.9751 C   0  0  0  0  0  0
  -28.0350  -23.8004   20.5440 C   0  0  0  0  0  0
  -31.9213  -19.5224   22.5000 C   0  0  1  0  0  0
  -28.4850  -25.2891   20.9638 C   0  0  1  0  0  0
  -29.0764  -18.8463   20.0214 N   0  0  0  0  0  0
  -29.9725  -15.8287   20.7302 N   0  0  0  0  0  0
  -31.4604  -12.5148   19.1498 H   0  0  0  0  0  0
  -30.3375  -11.4355   19.9303 H   0  0  0  0  0  0
  -29.7643  -11.7293   17.4928 H   0  0  0  0  0  0
  -29.6383  -13.4565   17.7169 H   0  0  0  0  0  0
  -27.8600  -11.2918   18.8809 H   0  0  0  0  0  0
  -27.3668  -12.5562   17.7885 H   0  0  0  0  0  0
  -27.6371  -14.2582   19.4759 H   0  0  0  0  0  0
  -28.7063  -12.1569   21.4199 H   0  0  0  0  0  0
  -28.4373  -13.8444   21.7836 H   0  0  0  0  0  0
  -25.2768   -9.5686   22.4754 H   0  0  0  0  0  0
  -24.0009   -7.4637   22.7468 H   0  0  0  0  0  0
  -21.0849   -8.8765   19.8949 H   0  0  0  0  0  0
  -22.3699  -10.9667   19.6159 H   0  0  0  0  0  0
  -21.2007   -7.6149   23.9715 H   0  0  0  0  0  0
  -21.1484   -6.0526   25.9080 H   0  0  0  0  0  0
  -22.0595   -2.7606   23.2850 H   0  0  0  0  0  0
  -22.4097  -11.9858   22.4811 H   0  0  0  0  0  0
  -21.1074  -13.1194   22.2633 H   0  0  0  0  0  0
  -24.6476  -15.8450   20.5224 H   0  0  0  0  0  0
  -26.2621  -15.6353   20.0732 H   0  0  0  0  0  0
  -26.7161  -32.5427   23.1096 H   0  0  0  0  0  0
  -25.0053  -33.9704   25.0409 H   0  0  0  0  0  0
  -22.7159  -31.2975   21.3920 H   0  0  0  0  0  0
  -23.3746  -35.9635   23.3296 H   0  0  0  0  0  0
  -24.3587  -36.8927   22.2058 H   0  0  0  0  0  0
  -23.7253  -37.6499   23.6670 H   0  0  0  0  0  0
  -26.0861  -31.5438   20.5906 H   0  0  0  0  0  0
  -26.8436  -30.8460   21.9903 H   0  0  0  0  0  0
  -28.1224  -28.9909   21.1763 H   0  0  0  0  0  0
  -26.0205  -25.8916   19.0503 H   0  0  0  0  0  0
  -23.9787  -27.2732   19.0335 H   0  0  0  0  0  0
  -23.7629  -30.5784   19.3978 H   0  0  0  0  0  0
  -22.7573  -29.2374   19.8534 H   0  0  0  0  0  0
  -25.1300  -36.1926   25.0818 H   0  0  0  0  0  0
  -20.9958  -28.3216   24.1416 H   0  0  0  0  0  0
  -20.5667  -26.2262   23.3595 H   0  0  0  0  0  0
  -21.6642  -26.7430   22.1202 H   0  0  0  0  0  0
  -19.6914  -25.6304   21.1219 H   0  0  0  0  0  0
  -19.6697  -27.3203   20.6750 H   0  0  0  0  0  0
  -17.4201  -26.6654   21.4018 H   0  0  0  0  0  0
  -18.0322  -26.0081   22.9015 H   0  0  0  0  0  0
  -19.7941  -30.7258   24.2246 H   0  0  0  0  0  0
  -17.5026  -31.6258   24.5169 H   0  0  0  0  0  0
  -15.5350  -30.2993   23.7668 H   0  0  0  0  0  0
  -15.8663  -28.0842   22.7050 H   0  0  0  0  0  0
  -24.5909  -30.7052   25.7807 H   0  0  0  0  0  0
  -24.8920  -32.2891   26.4853 H   0  0  0  0  0  0
  -25.8071  -30.8938   27.0227 H   0  0  0  0  0  0
  -26.2856  -29.6763   24.1145 H   0  0  0  0  0  0
  -27.4039  -29.7229   25.4605 H   0  0  0  0  0  0
  -27.8722  -30.4311   23.9304 H   0  0  0  0  0  0
  -27.2638  -33.3611   26.2040 H   0  0  0  0  0  0
  -28.3853  -32.6843   25.0310 H   0  0  0  0  0  0
  -28.0679  -31.8431   26.5415 H   0  0  0  0  0  0
  -28.2587  -38.0111   24.7523 H   0  0  0  0  0  0
  -28.1084  -36.2643   24.6267 H   0  0  0  0  0  0
  -27.2303  -37.1434   25.8865 H   0  0  0  0  0  0
  -20.9349  -29.8767   21.6923 H   0  0  0  0  0  0
  -26.0158  -38.2845   24.1429 H   0  0  0  0  0  0
  -30.7706  -21.8597   21.7879 H   0  0  0  0  0  0
  -27.9584  -20.2602   18.9819 H   0  0  0  0  0  0
  -30.1913  -19.0753   25.5292 H   0  0  0  0  0  0
  -30.6554  -17.8182   24.3922 H   0  0  0  0  0  0
  -29.4826  -19.0478   23.9199 H   0  0  0  0  0  0
  -33.3939  -20.2148   21.0419 H   0  0  0  0  0  0
  -33.9949  -20.1722   22.6900 H   0  0  0  0  0  0
  -32.9202  -21.4636   22.1938 H   0  0  0  0  0  0
  -28.2724  -24.8841   23.1019 H   0  0  0  0  0  0
  -26.8665  -25.6687   22.3903 H   0  0  0  0  0  0
  -28.3346  -26.5917   22.7172 H   0  0  0  0  0  0
  -28.8040  -22.7412   18.7896 H   0  0  0  0  0  0
  -30.0415  -23.2621   19.8550 H   0  0  0  0  0  0
  -30.8425  -16.9971   22.1534 H   0  0  0  0  0  0
  -31.6331  -17.1451   20.6114 H   0  0  0  0  0  0
  -32.4238  -19.5930   24.6000 H   0  0  0  0  0  0
  -31.2746  -20.8124   24.1249 H   0  0  0  0  0  0
  -27.7359  -23.2948   21.4625 H   0  0  0  0  0  0
  -27.1111  -23.8459   19.9669 H   0  0  0  0  0  0
  -32.3067  -18.5086   22.4357 H   0  0  0  0  0  0
  -29.5645  -25.2155   21.1000 H   0  0  0  0  0  0
  -28.9713  -15.7887   20.8413 H   0  0  0  0  0  0
  1 25  1  0  0  0
  1 30  2  0  0  0
  1 86  1  0  0  0
  2  3  1  0  0  0
  2 25  1  0  0  0
  2 87  1  0  0  0
  2 88  1  0  0  0
  3  4  1  0  0  0
  3 89  1  0  0  0
  3 90  1  0  0  0
  4  5  1  0  0  0
  4 91  1  0  0  0
  4 92  1  0  0  0
  5  6  1  0  0  0
  5 26  1  0  0  0
  5 93  1  0  0  0
  6 25  1  0  0  0
  6 94  1  0  0  0
  6 95  1  0  0  0
  7  8  2  0  0  0
  7 26  1  0  0  0
  7 29  1  0  0  0
  8  9  1  0  0  0
  8 22  1  0  0  0
  9 10  1  0  0  0
  9 27  2  0  0  0
 10 11  2  0  0  0
 10 15  1  0  0  0
 11 12  1  0  0  0
 11 96  1  0  0  0
 12 13  2  0  0  0
 12 97  1  0  0  0
 13 14  1  0  0  0
 13 31  1  0  0  0
 14 15  2  0  0  0
 14 98  1  0  0  0
 15 99  1  0  0  0
 16 17  2  0  0  0
 16 21  1  0  0  0
 16 31  1  0  0  0
 17 18  1  0  0  0
 17100  1  0  0  0
 18 19  2  0  0  0
 18101  1  0  0  0
 19 20  1  0  0  0
 19 24  1  0  0  0
 20 21  2  0  0  0
 20102  1  0  0  0
 21 23  1  0  0  0
 22 28  1  0  0  0
 22 32  2  0  0  0
 26 27  1  0  0  0
 28103  1  0  0  0
 28104  1  0  0  0
 29105  1  0  0  0
 29106  1  0  0  0
 33 34  1  0  0  0
 33 66  1  0  0  0
 33 70  2  0  0  0
 34 36  1  0  0  0
 34 59  1  0  0  0
 34107  1  0  0  0
 35 44  2  0  0  0
 35 45  1  0  0  0
 35 68  1  0  0  0
 36 56  1  0  0  0
 36108  1  0  0  0
 37 39  1  0  0  0
 37 47  1  0  0  0
 37 66  1  0  0  0
 37109  1  0  0  0
 38 43  2  0  0  0
 38 46  1  0  0  0
 38 47  1  0  0  0
 39 64  1  0  0  0
 39 67  2  0  0  0
 40 52  1  0  0  0
 40 53  2  0  0  0
 40 58  1  0  0  0
 41110  1  0  0  0
 41111  1  0  0  0
 41112  1  0  0  0
 41 48  1  0  0  0
 42 43  1  0  0  0
 42 66  1  0  0  0
 42113  1  0  0  0
 42114  1  0  0  0
 43 44  1  0  0  0
 44115  1  0  0  0
 45 46  2  0  0  0
 45116  1  0  0  0
 46117  1  0  0  0
 47118  1  0  0  0
 47119  1  0  0  0
 48 56  1  0  0  0
 48 65  1  0  0  0
 48120  1  0  0  0
 49 50  1  0  0  0
 49 53  1  0  0  0
 49 64  1  0  0  0
 49121  1  0  0  0
 50 51  1  0  0  0
 50122  1  0  0  0
 50123  1  0  0  0
 51 52  1  0  0  0
 51124  1  0  0  0
 51125  1  0  0  0
 52126  1  0  0  0
 52127  1  0  0  0
 53 54  1  0  0  0
 54 55  2  0  0  0
 54128  1  0  0  0
 55 57  1  0  0  0
 55129  1  0  0  0
 56 69  2  0  0  0
 57 58  2  0  0  0
 57130  1  0  0  0
 58131  1  0  0  0
 59 60  1  0  0  0
 59 61  1  0  0  0
 59 62  1  0  0  0
 60132  1  0  0  0
 60133  1  0  0  0
 60134  1  0  0  0
 61135  1  0  0  0
 61136  1  0  0  0
 61137  1  0  0  0
 62138  1  0  0  0
 62139  1  0  0  0
 62140  1  0  0  0
 63 65  1  0  0  0
 63141  1  0  0  0
 63142  1  0  0  0
 63143  1  0  0  0
 64144  1  0  0  0
 65145  1  0  0  0
 68 84  1  0  0  0
 71 73  2  0  0  0
 71 74  1  0  0  0
 71146  1  0  0  0
 72 73  1  0  0  0
 72 85  2  0  0  0
 72147  1  0  0  0
 73 79  1  0  0  0
 74 75  2  0  0  0
 74 83  1  0  0  0
 75 80  1  0  0  0
 75 85  1  0  0  0
 76 81  1  0  0  0
 76148  1  0  0  0
 76149  1  0  0  0
 76150  1  0  0  0
 77151  1  0  0  0
 77152  1  0  0  0
 77153  1  0  0  0
 77 83  1  0  0  0
 78154  1  0  0  0
 78155  1  0  0  0
 78156  1  0  0  0
 78 84  1  0  0  0
 79 82  1  0  0  0
 79157  1  0  0  0
 79158  1  0  0  0
 80 86  1  0  0  0
 80159  1  0  0  0
 80160  1  0  0  0
 81 83  1  0  0  0
 81161  1  0  0  0
 81162  1  0  0  0
 82 84  1  0  0  0
 82163  1  0  0  0
 82164  1  0  0  0
 83165  1  0  0  0
 84166  1  0  0  0
 86167  1  0  0  0
M  ISO  4   1 100  68 101  84 101  86 100
M  END
> <chiral flag>
0

> <version>
0

> <s_m_source_file>
/data/baiqing/PycharmProjects/Reinvent-master-3.2/result/LINK_invent/BTK/process_docking_weight1_custom_sum_contain_oxygen_bond_distance_aromatic_linkinvent_7_9_3/rearranged_h_0119.sdf

> <i_m_source_file_index>
61

> <r_mmod_Potential_Energy-OPLS-2005>
-107.695343017578

> <r_mmod_Stretch_Energy-OPLS-2005>
89.6905364990234

> <r_mmod_Bend_Energy-OPLS-2005>
186.047058105469

> <r_mmod_Torsional_Energy-OPLS-2005>
249.31803894043

> <r_mmod_Improper_Torsional_Energy-OPLS-2005>
5.63271236419678

> <r_mmod_Van_der_Waal_Energy-OPLS-2005>
142.753219604492

> <r_mmod_Electrostatic_Energy-OPLS-2005>
-628.771545410156

> <r_mmod_Solvation_Energy-OPLS-2005>
-208.411331176758

> <b_mmod_Minimization_Converged-OPLS-2005>
0

> <r_mmod_RMS_Derivative-OPLS-2005>
1.9271115064621

$$$$
61
                    3D
 Structure written by MMmdl.
164172  0  0  1  0            999 V2000
  -30.6316  -14.5791   20.6260 C   0  0  0  0  0  0
  -30.4518  -12.3729   19.4685 C   0  0  0  0  0  0
  -29.5239  -12.5233   18.2415 C   0  0  0  0  0  0
  -28.0474  -12.3377   18.6491 C   0  0  0  0  0  0
  -27.6657  -13.2038   19.8794 C   0  0  2  0  0  0
  -28.6956  -13.0071   21.0165 C   0  0  0  0  0  0
  -25.2646  -13.8140   20.5694 C   0  0  0  0  0  0
  -24.1864  -13.0436   20.9151 C   0  0  0  0  0  0
  -24.6411  -11.6913   20.8736 C   0  0  0  0  0  0
  -23.9063  -10.4301   21.0412 C   0  0  0  0  0  0
  -24.3625   -9.4205   21.9187 C   0  0  0  0  0  0
  -23.6297   -8.2230   22.0751 C   0  0  0  0  0  0
  -22.4266   -8.0283   21.3544 C   0  0  0  0  0  0
  -21.9900   -9.0251   20.4649 C   0  0  0  0  0  0
  -22.7248  -10.2129   20.3052 C   0  0  0  0  0  0
  -21.6850   -6.0758   22.5279 C   0  0  0  0  0  0
  -21.4038   -6.5654   23.8226 C   0  0  0  0  0  0
  -21.3651   -5.6800   24.9189 C   0  0  0  0  0  0
  -21.6039   -4.3059   24.7230 C   0  0  0  0  0  0
  -21.8822   -3.8152   23.4345 C   0  0  0  0  0  0
  -21.9192   -4.6982   22.3401 C   0  0  0  0  0  0
  -22.7898  -13.5251   21.1787 C   0  0  0  0  0  0
  -22.1661   -4.2170   21.0984 F   0  0  0  0  0  0
  -21.5616   -3.4526   25.7731 F   0  0  0  0  0  0
  -30.0302  -13.3558   20.4888 N   0  0  0  0  0  0
  -26.3052  -12.9311   20.3366 N   0  0  0  0  0  0
  -25.9349  -11.6462   20.5756 N   0  0  0  0  0  0
  -22.0529  -12.8239   22.0347 N   0  0  0  0  0  0
  -25.4360  -15.1859   20.4238 N   0  0  0  0  0  0
  -31.7098  -14.8399   20.0812 O   0  0  0  0  0  0
  -21.6633   -6.8891   21.4235 O   0  0  0  0  0  0
  -22.3584  -14.5556   20.6659 O   0  0  0  0  0  0
  -24.6211  -31.8566   23.2016 C   0  0  0  0  0  0
  -25.9047  -32.4767   23.8350 C   0  0  1  0  0  0
  -27.2505  -27.3347   20.1441 C   0  0  0  0  0  0
  -25.5836  -33.8567   24.2268 N   0  0  0  0  0  0
  -23.4173  -30.4729   21.5405 C   0  0  2  0  0  0
  -24.8774  -28.9313   20.1124 C   0  0  0  0  0  0
  -22.7430  -29.4583   22.4942 C   0  0  0  0  0  0
  -18.0268  -28.1357   22.8506 C   0  0  0  0  0  0
  -24.1465  -36.7312   23.2642 C   0  0  0  0  0  0
  -25.9518  -30.7966   21.3687 C   0  0  0  0  0  0
  -26.0381  -29.4191   20.7267 C   0  0  0  0  0  0
  -27.2242  -28.6309   20.7387 C   0  0  0  0  0  0
  -26.0716  -26.8975   19.4956 C   0  0  0  0  0  0
  -24.8989  -27.6772   19.4811 C   0  0  0  0  0  0
  -23.6336  -29.7951   20.1600 C   0  0  0  0  0  0
  -25.4072  -36.3082   24.0338 C   0  0  1  0  0  0
  -20.5866  -28.3647   23.1316 C   0  0  2  0  0  0
  -20.6753  -26.9373   22.5418 C   0  0  0  0  0  0
  -19.5733  -26.6386   21.5206 C   0  0  0  0  0  0
  -18.1912  -26.7902   22.1633 C   0  0  0  0  0  0
  -19.1519  -28.8806   23.2919 C   0  0  0  0  0  0
  -18.9438  -30.1415   23.8931 C   0  0  0  0  0  0
  -17.6443  -30.6571   24.0557 C   0  0  0  0  0  0
  -25.8997  -34.9448   23.5114 C   0  0  0  0  0  0
  -16.5337  -29.9076   23.6317 C   0  0  0  0  0  0
  -16.7262  -28.6489   23.0353 C   0  0  0  0  0  0
  -26.4475  -31.6567   25.0687 C   0  0  0  0  0  0
  -25.3755  -31.3672   26.1442 C   0  0  0  0  0  0
  -27.0323  -30.3000   24.6104 C   0  0  0  0  0  0
  -27.6044  -32.4290   25.7450 C   0  0  0  0  0  0
  -27.5556  -37.1776   24.8448 C   0  0  0  0  0  0
  -21.4132  -29.3030   22.3715 N   0  0  0  0  0  0
  -26.4250  -37.3764   23.9427 N   0  0  0  0  0  0
  -24.6811  -31.0595   22.0951 N   0  0  0  0  0  0
  -23.4163  -28.8110   23.2993 O   0  0  0  0  0  0
  -28.3929  -26.5231   20.1936 O   0  0  0  0  0  0
  -26.5610  -34.8931   22.4701 O   0  0  0  0  0  0
  -23.5376  -32.1351   23.7348 O   0  0  0  0  0  0
  -29.0473  -17.3556   22.6111 C   0  0  0  0  0  0
  -30.2074  -17.8905   20.5754 C   0  0  0  0  0  0
  -29.7887  -16.8915   21.5020 C   0  0  0  0  0  0
  -28.7700  -18.7263   22.7660 C   0  0  0  0  0  0
  -29.8744  -19.2741   20.7949 C   0  0  0  0  0  0
  -27.9498  -19.2172   23.9421 C   0  0  0  0  0  0
  -30.7740  -19.9025   18.4877 C   0  0  0  0  0  0
  -30.3636  -24.7272   21.6612 C   0  0  0  0  0  0
  -29.4095  -21.6966   19.6536 C   0  0  0  0  0  0
  -28.2207  -25.0560   20.2518 C   0  0  0  0  0  0
  -30.3614  -20.4371   19.8783 C   0  0  1  0  0  0
  -29.5176  -24.1702   20.5022 C   0  0  2  0  0  0
  -29.1926  -19.6672   21.8909 N   0  0  0  0  0  0
  -29.9558  -15.4505   21.4269 N   0  0  0  0  0  0
  -29.2705  -22.6914   20.7744 N   0  3  0  0  0  0
  -31.4977  -12.5040   19.1881 H   0  0  0  0  0  0
  -30.3813  -11.3632   19.8767 H   0  0  0  0  0  0
  -29.7973  -11.8012   17.4700 H   0  0  0  0  0  0
  -29.6490  -13.5153   17.8030 H   0  0  0  0  0  0
  -27.9036  -11.2812   18.8850 H   0  0  0  0  0  0
  -27.3894  -12.5635   17.8112 H   0  0  0  0  0  0
  -27.7045  -14.2459   19.5584 H   0  0  0  0  0  0
  -28.6963  -11.9726   21.3607 H   0  0  0  0  0  0
  -28.4091  -13.5918   21.8898 H   0  0  0  0  0  0
  -25.2800   -9.5690   22.4764 H   0  0  0  0  0  0
  -24.0024   -7.4619   22.7471 H   0  0  0  0  0  0
  -21.0835   -8.8786   19.8928 H   0  0  0  0  0  0
  -22.3731  -10.9681   19.6138 H   0  0  0  0  0  0
  -21.2049   -7.6163   23.9740 H   0  0  0  0  0  0
  -21.1465   -6.0528   25.9097 H   0  0  0  0  0  0
  -22.0604   -2.7610   23.2832 H   0  0  0  0  0  0
  -22.4155  -11.9903   22.4761 H   0  0  0  0  0  0
  -21.1130  -13.1259   22.2543 H   0  0  0  0  0  0
  -24.6779  -15.8418   20.5778 H   0  0  0  0  0  0
  -26.3087  -15.6297   20.1642 H   0  0  0  0  0  0
  -26.7097  -32.5470   23.1103 H   0  0  0  0  0  0
  -24.9910  -33.9682   25.0369 H   0  0  0  0  0  0
  -22.7134  -31.2923   21.3860 H   0  0  0  0  0  0
  -23.3715  -35.9648   23.3260 H   0  0  0  0  0  0
  -24.3583  -36.8974   22.2066 H   0  0  0  0  0  0
  -23.7236  -37.6506   23.6693 H   0  0  0  0  0  0
  -26.0586  -31.5507   20.5877 H   0  0  0  0  0  0
  -26.8403  -30.8690   21.9836 H   0  0  0  0  0  0
  -28.1055  -28.9984   21.2464 H   0  0  0  0  0  0
  -26.0388  -25.9441   18.9921 H   0  0  0  0  0  0
  -24.0215  -27.2968   18.9765 H   0  0  0  0  0  0
  -23.7240  -30.5568   19.3854 H   0  0  0  0  0  0
  -22.7662  -29.1931   19.8782 H   0  0  0  0  0  0
  -25.1257  -36.1925   25.0826 H   0  0  0  0  0  0
  -20.9959  -28.3203   24.1441 H   0  0  0  0  0  0
  -20.5617  -26.2240   23.3602 H   0  0  0  0  0  0
  -21.6621  -26.7372   22.1229 H   0  0  0  0  0  0
  -19.6885  -25.6302   21.1221 H   0  0  0  0  0  0
  -19.6684  -27.3230   20.6766 H   0  0  0  0  0  0
  -17.4168  -26.6632   21.4057 H   0  0  0  0  0  0
  -18.0331  -26.0039   22.9029 H   0  0  0  0  0  0
  -19.7899  -30.7212   24.2343 H   0  0  0  0  0  0
  -17.4988  -31.6267   24.5134 H   0  0  0  0  0  0
  -15.5337  -30.2990   23.7601 H   0  0  0  0  0  0
  -15.8661  -28.0816   22.7062 H   0  0  0  0  0  0
  -24.5885  -30.7072   25.7775 H   0  0  0  0  0  0
  -24.9014  -32.2836   26.4960 H   0  0  0  0  0  0
  -25.8117  -30.8770   27.0158 H   0  0  0  0  0  0
  -26.2875  -29.6720   24.1195 H   0  0  0  0  0  0
  -27.4109  -29.7274   25.4585 H   0  0  0  0  0  0
  -27.8709  -30.4297   23.9259 H   0  0  0  0  0  0
  -27.2624  -33.3527   26.2136 H   0  0  0  0  0  0
  -28.3798  -32.6948   25.0250 H   0  0  0  0  0  0
  -28.0786  -31.8354   26.5278 H   0  0  0  0  0  0
  -28.2545  -38.0100   24.7517 H   0  0  0  0  0  0
  -28.1076  -36.2632   24.6224 H   0  0  0  0  0  0
  -27.2282  -37.1364   25.8850 H   0  0  0  0  0  0
  -20.9259  -29.8813   21.7006 H   0  0  0  0  0  0
  -26.0133  -38.2820   24.1487 H   0  0  0  0  0  0
  -28.6705  -16.6618   23.3509 H   0  0  0  0  0  0
  -30.7681  -17.5909   19.7023 H   0  0  0  0  0  0
  -28.0680  -18.5607   24.8073 H   0  0  0  0  0  0
  -26.8902  -19.2497   23.6806 H   0  0  0  0  0  0
  -28.2545  -20.2209   24.2452 H   0  0  0  0  0  0
  -31.6415  -19.2442   18.5348 H   0  0  0  0  0  0
  -31.0378  -20.7117   17.8062 H   0  0  0  0  0  0
  -29.9599  -19.3483   18.0174 H   0  0  0  0  0  0
  -30.5679  -25.7899   21.5276 H   0  0  0  0  0  0
  -31.3342  -24.2329   21.7159 H   0  0  0  0  0  0
  -29.8713  -24.5958   22.6263 H   0  0  0  0  0  0
  -28.4159  -21.3564   19.3559 H   0  0  0  0  0  0
  -29.7866  -22.2496   18.7917 H   0  0  0  0  0  0
  -27.4850  -24.8271   21.0287 H   0  0  0  0  0  0
  -27.7868  -24.7126   19.3122 H   0  0  0  0  0  0
  -31.2769  -20.8035   20.3435 H   0  0  0  0  0  0
  -30.1530  -24.2578   19.6199 H   0  0  0  0  0  0
  -29.2906  -14.9561   21.9981 H   0  0  0  0  0  0
  -29.9318  -22.3985   21.4763 H   0  0  0  0  0  0
  -28.3656  -22.5504   21.1966 H   0  0  0  0  0  0
  1 25  1  0  0  0
  1 30  2  0  0  0
  1 84  1  0  0  0
  2  3  1  0  0  0
  2 25  1  0  0  0
  2 86  1  0  0  0
  2 87  1  0  0  0
  3  4  1  0  0  0
  3 88  1  0  0  0
  3 89  1  0  0  0
  4  5  1  0  0  0
  4 90  1  0  0  0
  4 91  1  0  0  0
  5  6  1  0  0  0
  5 26  1  0  0  0
  5 92  1  0  0  0
  6 25  1  0  0  0
  6 93  1  0  0  0
  6 94  1  0  0  0
  7  8  2  0  0  0
  7 26  1  0  0  0
  7 29  1  0  0  0
  8  9  1  0  0  0
  8 22  1  0  0  0
  9 10  1  0  0  0
  9 27  2  0  0  0
 10 11  2  0  0  0
 10 15  1  0  0  0
 11 12  1  0  0  0
 11 95  1  0  0  0
 12 13  2  0  0  0
 12 96  1  0  0  0
 13 14  1  0  0  0
 13 31  1  0  0  0
 14 15  2  0  0  0
 14 97  1  0  0  0
 15 98  1  0  0  0
 16 17  2  0  0  0
 16 21  1  0  0  0
 16 31  1  0  0  0
 17 18  1  0  0  0
 17 99  1  0  0  0
 18 19  2  0  0  0
 18100  1  0  0  0
 19 20  1  0  0  0
 19 24  1  0  0  0
 20 21  2  0  0  0
 20101  1  0  0  0
 21 23  1  0  0  0
 22 28  1  0  0  0
 22 32  2  0  0  0
 26 27  1  0  0  0
 28102  1  0  0  0
 28103  1  0  0  0
 29104  1  0  0  0
 29105  1  0  0  0
 33 34  1  0  0  0
 33 66  1  0  0  0
 33 70  2  0  0  0
 34 36  1  0  0  0
 34 59  1  0  0  0
 34106  1  0  0  0
 35 44  2  0  0  0
 35 45  1  0  0  0
 35 68  1  0  0  0
 36 56  1  0  0  0
 36107  1  0  0  0
 37 39  1  0  0  0
 37 47  1  0  0  0
 37 66  1  0  0  0
 37108  1  0  0  0
 38 43  2  0  0  0
 38 46  1  0  0  0
 38 47  1  0  0  0
 39 64  1  0  0  0
 39 67  2  0  0  0
 40 52  1  0  0  0
 40 53  2  0  0  0
 40 58  1  0  0  0
 41109  1  0  0  0
 41110  1  0  0  0
 41111  1  0  0  0
 41 48  1  0  0  0
 42 43  1  0  0  0
 42 66  1  0  0  0
 42112  1  0  0  0
 42113  1  0  0  0
 43 44  1  0  0  0
 44114  1  0  0  0
 45 46  2  0  0  0
 45115  1  0  0  0
 46116  1  0  0  0
 47117  1  0  0  0
 47118  1  0  0  0
 48 56  1  0  0  0
 48 65  1  0  0  0
 48119  1  0  0  0
 49 50  1  0  0  0
 49 53  1  0  0  0
 49 64  1  0  0  0
 49120  1  0  0  0
 50 51  1  0  0  0
 50121  1  0  0  0
 50122  1  0  0  0
 51 52  1  0  0  0
 51123  1  0  0  0
 51124  1  0  0  0
 52125  1  0  0  0
 52126  1  0  0  0
 53 54  1  0  0  0
 54 55  2  0  0  0
 54127  1  0  0  0
 55 57  1  0  0  0
 55128  1  0  0  0
 56 69  2  0  0  0
 57 58  2  0  0  0
 57129  1  0  0  0
 58130  1  0  0  0
 59 60  1  0  0  0
 59 61  1  0  0  0
 59 62  1  0  0  0
 60131  1  0  0  0
 60132  1  0  0  0
 60133  1  0  0  0
 61134  1  0  0  0
 61135  1  0  0  0
 61136  1  0  0  0
 62137  1  0  0  0
 62138  1  0  0  0
 62139  1  0  0  0
 63 65  1  0  0  0
 63140  1  0  0  0
 63141  1  0  0  0
 63142  1  0  0  0
 64143  1  0  0  0
 65144  1  0  0  0
 68 80  1  0  0  0
 71 73  2  0  0  0
 71 74  1  0  0  0
 71145  1  0  0  0
 72 73  1  0  0  0
 72 75  2  0  0  0
 72146  1  0  0  0
 73 84  1  0  0  0
 74 76  1  0  0  0
 74 83  2  0  0  0
 75 81  1  0  0  0
 75 83  1  0  0  0
 76147  1  0  0  0
 76148  1  0  0  0
 76149  1  0  0  0
 77150  1  0  0  0
 77151  1  0  0  0
 77152  1  0  0  0
 77 81  1  0  0  0
 78153  1  0  0  0
 78154  1  0  0  0
 78155  1  0  0  0
 78 82  1  0  0  0
 79 81  1  0  0  0
 79 85  1  0  0  0
 79156  1  0  0  0
 79157  1  0  0  0
 80 82  1  0  0  0
 80158  1  0  0  0
 80159  1  0  0  0
 81160  1  0  0  0
 82 85  1  0  0  0
 82161  1  0  0  0
 84162  1  0  0  0
 85163  1  0  0  0
 85164  1  0  0  0
M  CHG  1  85   1
M  ISO  4   1 100  68 101  80 101  84 100
M  END
> <chiral flag>
0

> <version>
0

> <s_m_source_file>
/data/baiqing/PycharmProjects/Reinvent-master-3.2/result/LINK_invent/BTK/process_docking_weight1_custom_sum_contain_oxygen_bond_distance_aromatic_linkinvent_7_9_3/rearranged_h_0119.sdf

> <i_m_source_file_index>
62

> <r_mmod_Potential_Energy-OPLS-2005>
-190.033538818359

> <r_mmod_Stretch_Energy-OPLS-2005>
72.7878265380859

> <r_mmod_Bend_Energy-OPLS-2005>
153.027603149414

> <r_mmod_Torsional_Energy-OPLS-2005>
249.406311035156

> <r_mmod_Improper_Torsional_Energy-OPLS-2005>
2.836993932724

> <r_mmod_Van_der_Waal_Energy-OPLS-2005>
147.96028137207

> <r_mmod_Electrostatic_Energy-OPLS-2005>
-424.741973876953

> <r_mmod_Solvation_Energy-OPLS-2005>
-428.717559814453

> <b_mmod_Minimization_Converged-OPLS-2005>
0

> <r_mmod_RMS_Derivative-OPLS-2005>
5.36400508880615

$$$$
62
                    3D
 Structure written by MMmdl.
159168  0  0  1  0            999 V2000
  -30.6428  -14.6135   20.5073 C   0  0  0  0  0  0
  -30.4275  -12.3737   19.4601 C   0  0  0  0  0  0
  -29.5045  -12.4968   18.2283 C   0  0  0  0  0  0
  -28.0258  -12.3458   18.6377 C   0  0  0  0  0  0
  -27.6506  -13.2166   19.8671 C   0  0  2  0  0  0
  -28.6936  -13.0729   20.9989 C   0  0  0  0  0  0
  -25.2526  -13.8183   20.5685 C   0  0  0  0  0  0
  -24.1801  -13.0444   20.9208 C   0  0  0  0  0  0
  -24.6371  -11.6916   20.8755 C   0  0  0  0  0  0
  -23.9051  -10.4293   21.0409 C   0  0  0  0  0  0
  -24.3601   -9.4205   21.9187 C   0  0  0  0  0  0
  -23.6275   -8.2242   22.0753 C   0  0  0  0  0  0
  -22.4264   -8.0278   21.3542 C   0  0  0  0  0  0
  -21.9898   -9.0250   20.4646 C   0  0  0  0  0  0
  -22.7224  -10.2131   20.3057 C   0  0  0  0  0  0
  -21.6851   -6.0726   22.5271 C   0  0  0  0  0  0
  -21.4015   -6.5632   23.8202 C   0  0  0  0  0  0
  -21.3663   -5.6791   24.9171 C   0  0  0  0  0  0
  -21.6047   -4.3052   24.7226 C   0  0  0  0  0  0
  -21.8817   -3.8138   23.4347 C   0  0  0  0  0  0
  -21.9188   -4.6954   22.3401 C   0  0  0  0  0  0
  -22.7816  -13.5229   21.1855 C   0  0  0  0  0  0
  -22.1652   -4.2132   21.0980 F   0  0  0  0  0  0
  -21.5633   -3.4540   25.7742 F   0  0  0  0  0  0
  -30.0103  -13.4015   20.4342 N   0  0  0  0  0  0
  -26.2960  -12.9365   20.3334 N   0  0  0  0  0  0
  -25.9300  -11.6516   20.5779 N   0  0  0  0  0  0
  -22.0448  -12.8227   22.0410 N   0  0  0  0  0  0
  -25.4221  -15.1904   20.4073 N   0  0  0  0  0  0
  -31.7998  -14.7591   20.1019 O   0  0  0  0  0  0
  -21.6637   -6.8868   21.4233 O   0  0  0  0  0  0
  -22.3503  -14.5531   20.6687 O   0  0  0  0  0  0
  -24.6230  -31.8617   23.2069 C   0  0  0  0  0  0
  -25.9093  -32.4785   23.8380 C   0  0  1  0  0  0
  -27.2199  -27.3319   20.1225 C   0  0  0  0  0  0
  -25.5921  -33.8585   24.2310 N   0  0  0  0  0  0
  -23.4155  -30.4841   21.5499 C   0  0  2  0  0  0
  -24.8624  -28.9394   20.1138 C   0  0  0  0  0  0
  -22.7452  -29.4617   22.4976 C   0  0  0  0  0  0
  -18.0274  -28.1387   22.8491 C   0  0  0  0  0  0
  -24.1478  -36.7293   23.2636 C   0  0  0  0  0  0
  -25.9526  -30.7933   21.3787 C   0  0  0  0  0  0
  -26.0242  -29.4177   20.7308 C   0  0  0  0  0  0
  -27.2033  -28.6186   20.7395 C   0  0  0  0  0  0
  -26.0527  -26.9225   19.4425 C   0  0  0  0  0  0
  -24.8742  -27.6948   19.4633 C   0  0  0  0  0  0
  -23.6300  -29.8204   20.1641 C   0  0  0  0  0  0
  -25.4097  -36.3080   24.0333 C   0  0  1  0  0  0
  -20.5871  -28.3678   23.1305 C   0  0  2  0  0  0
  -20.6760  -26.9404   22.5426 C   0  0  0  0  0  0
  -19.5741  -26.6391   21.5220 C   0  0  0  0  0  0
  -18.1911  -26.7937   22.1620 C   0  0  0  0  0  0
  -19.1523  -28.8851   23.2896 C   0  0  0  0  0  0
  -18.9451  -30.1455   23.8912 C   0  0  0  0  0  0
  -17.6447  -30.6592   24.0560 C   0  0  0  0  0  0
  -25.9035  -34.9448   23.5112 C   0  0  0  0  0  0
  -16.5338  -29.9091   23.6326 C   0  0  0  0  0  0
  -16.7261  -28.6513   23.0346 C   0  0  0  0  0  0
  -26.4503  -31.6572   25.0727 C   0  0  0  0  0  0
  -25.3753  -31.3693   26.1461 C   0  0  0  0  0  0
  -27.0324  -30.2988   24.6159 C   0  0  0  0  0  0
  -27.6078  -32.4285   25.7493 C   0  0  0  0  0  0
  -27.5570  -37.1797   24.8470 C   0  0  0  0  0  0
  -21.4170  -29.3032   22.3704 N   0  0  0  0  0  0
  -26.4283  -37.3769   23.9415 N   0  0  0  0  0  0
  -24.6818  -31.0627   22.1032 N   0  0  0  0  0  0
  -23.4179  -28.8144   23.3038 O   0  0  0  0  0  0
  -28.3694  -26.5340   20.1201 O   0  0  0  0  0  0
  -26.5598  -34.8902   22.4679 O   0  0  0  0  0  0
  -23.5402  -32.1413   23.7412 O   0  0  0  0  0  0
  -27.3057  -24.2685   20.5495 C   0  0  0  0  0  0
  -27.4956  -22.8741   20.7671 C   0  0  0  0  0  0
  -28.8118  -22.3276   20.8399 C   0  0  0  0  0  0
  -29.8561  -23.2771   20.6327 C   0  0  0  0  0  0
  -28.4060  -25.1365   20.3478 C   0  0  0  0  0  0
  -30.3321  -17.9307   21.9391 C   0  0  0  0  0  0
  -30.2091  -17.1235   20.6601 C   0  0  2  0  0  0
  -29.2231  -18.3078   20.9890 C   0  0  2  0  0  0
  -26.2618  -22.0101   20.9758 C   0  0  0  0  0  0
  -31.3167  -22.8805   20.7457 C   0  0  0  0  0  0
  -29.0800  -20.8498   21.3547 C   0  0  0  0  0  0
  -29.6550  -24.6052   20.3779 N   0  0  0  0  0  0
  -29.8825  -15.6964   20.8575 N   0  0  0  0  0  0
  -29.4229  -19.7074   20.4198 N   0  3  0  0  0  0
  -31.4719  -12.4821   19.1626 H   0  0  0  0  0  0
  -30.3459  -11.3792   19.9028 H   0  0  0  0  0  0
  -29.7641  -11.7397   17.4875 H   0  0  0  0  0  0
  -29.6561  -13.4635   17.7458 H   0  0  0  0  0  0
  -27.8551  -11.2936   18.8672 H   0  0  0  0  0  0
  -27.3737  -12.5793   17.7953 H   0  0  0  0  0  0
  -27.6718  -14.2526   19.5287 H   0  0  0  0  0  0
  -28.6977  -12.0536   21.3888 H   0  0  0  0  0  0
  -28.4448  -13.7128   21.8468 H   0  0  0  0  0  0
  -25.2742   -9.5682   22.4758 H   0  0  0  0  0  0
  -23.9984   -7.4638   22.7474 H   0  0  0  0  0  0
  -21.0828   -8.8769   19.8947 H   0  0  0  0  0  0
  -22.3681  -10.9670   19.6164 H   0  0  0  0  0  0
  -21.2011   -7.6138   23.9701 H   0  0  0  0  0  0
  -21.1488   -6.0523   25.9072 H   0  0  0  0  0  0
  -22.0593   -2.7597   23.2857 H   0  0  0  0  0  0
  -22.4059  -11.9915   22.4852 H   0  0  0  0  0  0
  -21.1042  -13.1225   22.2557 H   0  0  0  0  0  0
  -24.6512  -15.8409   20.5161 H   0  0  0  0  0  0
  -26.2589  -15.6273   20.0425 H   0  0  0  0  0  0
  -26.7150  -32.5475   23.1120 H   0  0  0  0  0  0
  -25.0071  -33.9747   25.0451 H   0  0  0  0  0  0
  -22.7092  -31.3047   21.4104 H   0  0  0  0  0  0
  -23.3734  -35.9634   23.3311 H   0  0  0  0  0  0
  -24.3570  -36.8903   22.2049 H   0  0  0  0  0  0
  -23.7221  -37.6499   23.6639 H   0  0  0  0  0  0
  -26.0720  -31.5518   20.6040 H   0  0  0  0  0  0
  -26.8372  -30.8501   22.0010 H   0  0  0  0  0  0
  -28.0979  -28.9781   21.2289 H   0  0  0  0  0  0
  -26.0417  -25.9938   18.8900 H   0  0  0  0  0  0
  -23.9888  -27.3361   18.9568 H   0  0  0  0  0  0
  -23.7489  -30.5988   19.4099 H   0  0  0  0  0  0
  -22.7494  -29.2509   19.8615 H   0  0  0  0  0  0
  -25.1265  -36.1942   25.0823 H   0  0  0  0  0  0
  -20.9963  -28.3262   24.1426 H   0  0  0  0  0  0
  -20.5639  -26.2290   23.3620 H   0  0  0  0  0  0
  -21.6631  -26.7423   22.1223 H   0  0  0  0  0  0
  -19.6896  -25.6307   21.1231 H   0  0  0  0  0  0
  -19.6684  -27.3228   20.6776 H   0  0  0  0  0  0
  -17.4174  -26.6691   21.4023 H   0  0  0  0  0  0
  -18.0307  -26.0087   22.9028 H   0  0  0  0  0  0
  -19.7924  -30.7263   24.2303 H   0  0  0  0  0  0
  -17.4996  -31.6276   24.5150 H   0  0  0  0  0  0
  -15.5336  -30.2978   23.7656 H   0  0  0  0  0  0
  -15.8667  -28.0829   22.7053 H   0  0  0  0  0  0
  -24.5981  -30.6977   25.7803 H   0  0  0  0  0  0
  -24.8880  -32.2843   26.4837 H   0  0  0  0  0  0
  -25.8112  -30.8931   27.0255 H   0  0  0  0  0  0
  -26.2895  -29.6755   24.1166 H   0  0  0  0  0  0
  -27.4005  -29.7225   25.4658 H   0  0  0  0  0  0
  -27.8775  -30.4260   23.9389 H   0  0  0  0  0  0
  -27.2725  -33.3601   26.2056 H   0  0  0  0  0  0
  -28.3901  -32.6807   25.0327 H   0  0  0  0  0  0
  -28.0718  -31.8397   26.5419 H   0  0  0  0  0  0
  -28.2584  -38.0094   24.7495 H   0  0  0  0  0  0
  -28.1060  -36.2622   24.6304 H   0  0  0  0  0  0
  -27.2294  -37.1465   25.8875 H   0  0  0  0  0  0
  -20.9346  -29.8745   21.6905 H   0  0  0  0  0  0
  -26.0170  -38.2844   24.1436 H   0  0  0  0  0  0
  -26.2991  -24.6565   20.5682 H   0  0  0  0  0  0
  -31.2037  -18.5784   22.0226 H   0  0  0  0  0  0
  -30.0327  -17.4595   22.8738 H   0  0  0  0  0  0
  -30.9416  -17.3319   19.8812 H   0  0  0  0  0  0
  -28.1952  -18.0908   21.2737 H   0  0  0  0  0  0
  -25.3616  -22.5081   20.6137 H   0  0  0  0  0  0
  -26.1223  -21.7942   22.0355 H   0  0  0  0  0  0
  -26.3413  -21.0683   20.4323 H   0  0  0  0  0  0
  -31.5753  -22.6795   21.7851 H   0  0  0  0  0  0
  -31.9783  -23.6710   20.3885 H   0  0  0  0  0  0
  -31.5255  -21.9883   20.1568 H   0  0  0  0  0  0
  -28.2068  -20.5337   21.9235 H   0  0  0  0  0  0
  -29.8654  -20.8965   22.1094 H   0  0  0  0  0  0
  -28.9460  -15.4847   21.1688 H   0  0  0  0  0  0
  -28.8328  -19.7840   19.6069 H   0  0  0  0  0  0
  -30.3691  -19.8118   20.0956 H   0  0  0  0  0  0
  1 25  1  0  0  0
  1 30  2  0  0  0
  1 83  1  0  0  0
  2  3  1  0  0  0
  2 25  1  0  0  0
  2 85  1  0  0  0
  2 86  1  0  0  0
  3  4  1  0  0  0
  3 87  1  0  0  0
  3 88  1  0  0  0
  4  5  1  0  0  0
  4 89  1  0  0  0
  4 90  1  0  0  0
  5  6  1  0  0  0
  5 26  1  0  0  0
  5 91  1  0  0  0
  6 25  1  0  0  0
  6 92  1  0  0  0
  6 93  1  0  0  0
  7  8  2  0  0  0
  7 26  1  0  0  0
  7 29  1  0  0  0
  8  9  1  0  0  0
  8 22  1  0  0  0
  9 10  1  0  0  0
  9 27  2  0  0  0
 10 11  2  0  0  0
 10 15  1  0  0  0
 11 12  1  0  0  0
 11 94  1  0  0  0
 12 13  2  0  0  0
 12 95  1  0  0  0
 13 14  1  0  0  0
 13 31  1  0  0  0
 14 15  2  0  0  0
 14 96  1  0  0  0
 15 97  1  0  0  0
 16 17  2  0  0  0
 16 21  1  0  0  0
 16 31  1  0  0  0
 17 18  1  0  0  0
 17 98  1  0  0  0
 18 19  2  0  0  0
 18 99  1  0  0  0
 19 20  1  0  0  0
 19 24  1  0  0  0
 20 21  2  0  0  0
 20100  1  0  0  0
 21 23  1  0  0  0
 22 28  1  0  0  0
 22 32  2  0  0  0
 26 27  1  0  0  0
 28101  1  0  0  0
 28102  1  0  0  0
 29103  1  0  0  0
 29104  1  0  0  0
 33 34  1  0  0  0
 33 66  1  0  0  0
 33 70  2  0  0  0
 34 36  1  0  0  0
 34 59  1  0  0  0
 34105  1  0  0  0
 35 44  2  0  0  0
 35 45  1  0  0  0
 35 68  1  0  0  0
 36 56  1  0  0  0
 36106  1  0  0  0
 37 39  1  0  0  0
 37 47  1  0  0  0
 37 66  1  0  0  0
 37107  1  0  0  0
 38 43  2  0  0  0
 38 46  1  0  0  0
 38 47  1  0  0  0
 39 64  1  0  0  0
 39 67  2  0  0  0
 40 52  1  0  0  0
 40 53  2  0  0  0
 40 58  1  0  0  0
 41108  1  0  0  0
 41109  1  0  0  0
 41110  1  0  0  0
 41 48  1  0  0  0
 42 43  1  0  0  0
 42 66  1  0  0  0
 42111  1  0  0  0
 42112  1  0  0  0
 43 44  1  0  0  0
 44113  1  0  0  0
 45 46  2  0  0  0
 45114  1  0  0  0
 46115  1  0  0  0
 47116  1  0  0  0
 47117  1  0  0  0
 48 56  1  0  0  0
 48 65  1  0  0  0
 48118  1  0  0  0
 49 50  1  0  0  0
 49 53  1  0  0  0
 49 64  1  0  0  0
 49119  1  0  0  0
 50 51  1  0  0  0
 50120  1  0  0  0
 50121  1  0  0  0
 51 52  1  0  0  0
 51122  1  0  0  0
 51123  1  0  0  0
 52124  1  0  0  0
 52125  1  0  0  0
 53 54  1  0  0  0
 54 55  2  0  0  0
 54126  1  0  0  0
 55 57  1  0  0  0
 55127  1  0  0  0
 56 69  2  0  0  0
 57 58  2  0  0  0
 57128  1  0  0  0
 58129  1  0  0  0
 59 60  1  0  0  0
 59 61  1  0  0  0
 59 62  1  0  0  0
 60130  1  0  0  0
 60131  1  0  0  0
 60132  1  0  0  0
 61133  1  0  0  0
 61134  1  0  0  0
 61135  1  0  0  0
 62136  1  0  0  0
 62137  1  0  0  0
 62138  1  0  0  0
 63 65  1  0  0  0
 63139  1  0  0  0
 63140  1  0  0  0
 63141  1  0  0  0
 64142  1  0  0  0
 65143  1  0  0  0
 68 75  1  0  0  0
 71 72  2  0  0  0
 71 75  1  0  0  0
 71144  1  0  0  0
 72 73  1  0  0  0
 72 79  1  0  0  0
 73 74  2  0  0  0
 73 81  1  0  0  0
 74 80  1  0  0  0
 74 82  1  0  0  0
 75 82  2  0  0  0
 76 77  1  0  0  0
 76 78  1  0  0  0
 76145  1  0  0  0
 76146  1  0  0  0
 77 78  1  0  0  0
 77 83  1  0  0  0
 77147  1  0  0  0
 78 84  1  0  0  0
 78148  1  0  0  0
 79149  1  0  0  0
 79150  1  0  0  0
 79151  1  0  0  0
 80152  1  0  0  0
 80153  1  0  0  0
 80154  1  0  0  0
 81 84  1  0  0  0
 81155  1  0  0  0
 81156  1  0  0  0
 83157  1  0  0  0
 84158  1  0  0  0
 84159  1  0  0  0
M  CHG  1  84   1
M  ISO  4   1 100  68 101  75 101  83 100
M  END
> <chiral flag>
0

> <version>
0

> <s_m_source_file>
/data/baiqing/PycharmProjects/Reinvent-master-3.2/result/LINK_invent/BTK/process_docking_weight1_custom_sum_contain_oxygen_bond_distance_aromatic_linkinvent_7_9_3/rearranged_h_0119.sdf

> <i_m_source_file_index>
63

> <r_mmod_Potential_Energy-OPLS-2005>
-216.612075805664

> <r_mmod_Stretch_Energy-OPLS-2005>
74.7549819946289

> <r_mmod_Bend_Energy-OPLS-2005>
145.568496704102

> <r_mmod_Torsional_Energy-OPLS-2005>
264.900421142578

> <r_mmod_Improper_Torsional_Energy-OPLS-2005>
6.11908578872681

> <r_mmod_Van_der_Waal_Energy-OPLS-2005>
145.671264648438

> <r_mmod_Electrostatic_Energy-OPLS-2005>
-384.223968505859

> <r_mmod_Solvation_Energy-OPLS-2005>
-508.613830566406

> <b_mmod_Minimization_Converged-OPLS-2005>
0

> <r_mmod_RMS_Derivative-OPLS-2005>
2.10573077201843

$$$$
63
                    3D
 Structure written by MMmdl.
161169  0  0  1  0            999 V2000
  -30.6996  -14.4412   20.6084 C   0  0  0  0  0  0
  -30.4482  -12.2850   19.4340 C   0  0  0  0  0  0
  -29.5168  -12.4773   18.2195 C   0  0  0  0  0  0
  -28.0354  -12.3423   18.6320 C   0  0  0  0  0  0
  -27.6765  -13.1891   19.8827 C   0  0  2  0  0  0
  -28.7146  -12.9407   21.0010 C   0  0  0  0  0  0
  -25.2685  -13.8119   20.5668 C   0  0  0  0  0  0
  -24.1904  -13.0428   20.9185 C   0  0  0  0  0  0
  -24.6441  -11.6891   20.8763 C   0  0  0  0  0  0
  -23.9095  -10.4276   21.0450 C   0  0  0  0  0  0
  -24.3625   -9.4184   21.9235 C   0  0  0  0  0  0
  -23.6286   -8.2226   22.0778 C   0  0  0  0  0  0
  -22.4273   -8.0284   21.3553 C   0  0  0  0  0  0
  -21.9933   -9.0273   20.4657 C   0  0  0  0  0  0
  -22.7287  -10.2143   20.3083 C   0  0  0  0  0  0
  -21.6851   -6.0742   22.5289 C   0  0  0  0  0  0
  -21.4019   -6.5640   23.8226 C   0  0  0  0  0  0
  -21.3651   -5.6790   24.9183 C   0  0  0  0  0  0
  -21.6034   -4.3050   24.7236 C   0  0  0  0  0  0
  -21.8824   -3.8152   23.4349 C   0  0  0  0  0  0
  -21.9188   -4.6967   22.3408 C   0  0  0  0  0  0
  -22.7921  -13.5258   21.1833 C   0  0  0  0  0  0
  -22.1656   -4.2150   21.0985 F   0  0  0  0  0  0
  -21.5615   -3.4534   25.7743 F   0  0  0  0  0  0
  -30.0512  -13.2574   20.4575 N   0  0  0  0  0  0
  -26.3112  -12.9255   20.3390 N   0  0  0  0  0  0
  -25.9360  -11.6433   20.5801 N   0  0  0  0  0  0
  -22.0525  -12.8231   22.0363 N   0  0  0  0  0  0
  -25.4463  -15.1825   20.4020 N   0  0  0  0  0  0
  -31.8006  -14.6976   20.1133 O   0  0  0  0  0  0
  -21.6627   -6.8893   21.4252 O   0  0  0  0  0  0
  -22.3622  -14.5580   20.6728 O   0  0  0  0  0  0
  -24.6107  -31.8683   23.2113 C   0  0  0  0  0  0
  -25.9006  -32.4849   23.8411 C   0  0  1  0  0  0
  -27.2430  -27.4538   20.0995 C   0  0  0  0  0  0
  -25.5823  -33.8638   24.2339 N   0  0  0  0  0  0
  -23.4013  -30.4906   21.5469 C   0  0  2  0  0  0
  -24.8508  -28.9538   20.1173 C   0  0  0  0  0  0
  -22.7418  -29.4643   22.4963 C   0  0  0  0  0  0
  -18.0271  -28.1357   22.8423 C   0  0  0  0  0  0
  -24.1478  -36.7334   23.2625 C   0  0  0  0  0  0
  -25.9236  -30.8421   21.3595 C   0  0  0  0  0  0
  -26.0082  -29.4744   20.7123 C   0  0  0  0  0  0
  -27.2100  -28.7309   20.7017 C   0  0  0  0  0  0
  -26.0680  -26.9332   19.5187 C   0  0  0  0  0  0
  -24.8711  -27.6760   19.5260 C   0  0  0  0  0  0
  -23.6102  -29.8170   20.1625 C   0  0  0  0  0  0
  -25.4094  -36.3123   24.0318 C   0  0  1  0  0  0
  -20.5850  -28.3670   23.1240 C   0  0  2  0  0  0
  -20.6753  -26.9391   22.5377 C   0  0  0  0  0  0
  -19.5745  -26.6353   21.5160 C   0  0  0  0  0  0
  -18.1925  -26.7895   22.1565 C   0  0  0  0  0  0
  -19.1518  -28.8831   23.2831 C   0  0  0  0  0  0
  -18.9465  -30.1423   23.8856 C   0  0  0  0  0  0
  -17.6482  -30.6577   24.0519 C   0  0  0  0  0  0
  -25.8992  -34.9486   23.5139 C   0  0  0  0  0  0
  -16.5366  -29.9070   23.6295 C   0  0  0  0  0  0
  -16.7261  -28.6490   23.0279 C   0  0  0  0  0  0
  -26.4449  -31.6627   25.0750 C   0  0  0  0  0  0
  -25.3739  -31.3686   26.1522 C   0  0  0  0  0  0
  -27.0349  -30.3106   24.6114 C   0  0  0  0  0  0
  -27.6010  -32.4337   25.7526 C   0  0  0  0  0  0
  -27.5584  -37.1833   24.8452 C   0  0  0  0  0  0
  -21.4142  -29.3063   22.3719 N   0  0  0  0  0  0
  -26.4295  -37.3802   23.9389 N   0  0  0  0  0  0
  -24.6632  -31.0811   22.0983 N   0  0  0  0  0  0
  -23.4204  -28.8146   23.2980 O   0  0  0  0  0  0
  -28.4086  -26.7242   20.0662 O   0  0  0  0  0  0
  -26.5582  -34.8918   22.4718 O   0  0  0  0  0  0
  -23.5302  -32.1374   23.7522 O   0  0  0  0  0  0
  -29.1809  -21.3335   19.8261 C   0  0  0  0  0  0
  -30.1925  -21.1363   21.9869 C   0  0  0  0  0  0
  -29.8357  -19.9916   19.3989 C   0  0  0  0  0  0
  -30.8478  -19.7965   21.5815 C   0  0  0  0  0  0
  -29.2622  -24.4221   20.3421 C   0  0  0  0  0  0
  -29.3459  -23.2443   21.3377 C   0  0  0  0  0  0
  -30.2429  -16.7786   21.5333 C   0  0  0  0  0  0
  -30.3279  -17.6920   20.2786 C   0  0  0  0  0  0
  -28.4074  -25.5741   20.9168 C   0  0  0  0  0  0
  -30.0076  -22.0318   20.8304 N   0  0  0  0  0  0
  -29.9755  -15.3666   21.2505 N   0  0  0  0  0  0
  -29.9861  -19.1119   20.5851 N   0  3  0  0  0  0
  -31.4946  -12.3934   19.1430 H   0  0  0  0  0  0
  -30.3574  -11.2746   19.8377 H   0  0  0  0  0  0
  -29.7611  -11.7391   17.4535 H   0  0  0  0  0  0
  -29.6912  -13.4572   17.7726 H   0  0  0  0  0  0
  -27.8614  -11.2871   18.8514 H   0  0  0  0  0  0
  -27.3825  -12.5935   17.7968 H   0  0  0  0  0  0
  -27.7346  -14.2395   19.5935 H   0  0  0  0  0  0
  -28.6890  -11.8962   21.3156 H   0  0  0  0  0  0
  -28.4710  -13.5047   21.9022 H   0  0  0  0  0  0
  -25.2765   -9.5625   22.4830 H   0  0  0  0  0  0
  -23.9971   -7.4605   22.7495 H   0  0  0  0  0  0
  -21.0870   -8.8834   19.8943 H   0  0  0  0  0  0
  -22.3804  -10.9695   19.6174 H   0  0  0  0  0  0
  -21.2039   -7.6155   23.9745 H   0  0  0  0  0  0
  -21.1455   -6.0512   25.9092 H   0  0  0  0  0  0
  -22.0616   -2.7615   23.2859 H   0  0  0  0  0  0
  -22.4055  -11.9800   22.4623 H   0  0  0  0  0  0
  -21.1174  -13.1317   22.2607 H   0  0  0  0  0  0
  -24.6905  -15.8495   20.5124 H   0  0  0  0  0  0
  -26.2988  -15.6044   20.0551 H   0  0  0  0  0  0
  -26.7107  -32.5580   23.1199 H   0  0  0  0  0  0
  -24.9957  -33.9767   25.0483 H   0  0  0  0  0  0
  -22.6901  -31.3090   21.4088 H   0  0  0  0  0  0
  -23.3726  -35.9688   23.3299 H   0  0  0  0  0  0
  -24.3564  -36.8946   22.2043 H   0  0  0  0  0  0
  -23.7286  -37.6545   23.6661 H   0  0  0  0  0  0
  -26.0269  -31.6130   20.5950 H   0  0  0  0  0  0
  -26.8104  -30.9016   21.9803 H   0  0  0  0  0  0
  -28.1024  -29.1299   21.1593 H   0  0  0  0  0  0
  -26.0832  -25.9506   19.0686 H   0  0  0  0  0  0
  -23.9804  -27.2562   19.0775 H   0  0  0  0  0  0
  -23.7152  -30.5908   19.4006 H   0  0  0  0  0  0
  -22.7424  -29.2255   19.8671 H   0  0  0  0  0  0
  -25.1313  -36.1969   25.0817 H   0  0  0  0  0  0
  -20.9903  -28.3266   24.1367 H   0  0  0  0  0  0
  -20.5580  -26.2316   23.3585 H   0  0  0  0  0  0
  -21.6636  -26.7378   22.1231 H   0  0  0  0  0  0
  -19.6877  -25.6259   21.1200 H   0  0  0  0  0  0
  -19.6673  -27.3147   20.6666 H   0  0  0  0  0  0
  -17.4173  -26.6543   21.4001 H   0  0  0  0  0  0
  -18.0354  -26.0077   22.9001 H   0  0  0  0  0  0
  -19.7994  -30.7193   24.2205 H   0  0  0  0  0  0
  -17.5083  -31.6247   24.5173 H   0  0  0  0  0  0
  -15.5363  -30.2958   23.7721 H   0  0  0  0  0  0
  -15.8633  -28.0856   22.6943 H   0  0  0  0  0  0
  -24.5923  -30.6996   25.7910 H   0  0  0  0  0  0
  -24.8875  -32.2793   26.5020 H   0  0  0  0  0  0
  -25.8120  -30.8880   27.0279 H   0  0  0  0  0  0
  -26.2935  -29.6806   24.1188 H   0  0  0  0  0  0
  -27.4194  -29.7400   25.4577 H   0  0  0  0  0  0
  -27.8709  -30.4477   23.9248 H   0  0  0  0  0  0
  -27.2647  -33.3637   26.2115 H   0  0  0  0  0  0
  -28.3841  -32.6875   25.0382 H   0  0  0  0  0  0
  -28.0639  -31.8422   26.5430 H   0  0  0  0  0  0
  -28.2619  -38.0125   24.7517 H   0  0  0  0  0  0
  -28.1068  -36.2655   24.6283 H   0  0  0  0  0  0
  -27.2257  -37.1484   25.8838 H   0  0  0  0  0  0
  -20.9278  -29.8894   21.7058 H   0  0  0  0  0  0
  -26.0182  -38.2879   24.1390 H   0  0  0  0  0  0
  -28.1789  -21.1509   20.2209 H   0  0  0  0  0  0
  -29.0516  -21.9546   18.9387 H   0  0  0  0  0  0
  -30.8221  -21.6257   22.7326 H   0  0  0  0  0  0
  -29.2333  -20.9405   22.4756 H   0  0  0  0  0  0
  -30.8077  -20.1673   18.9347 H   0  0  0  0  0  0
  -29.2153  -19.5090   18.6419 H   0  0  0  0  0  0
  -30.9636  -19.1905   22.4788 H   0  0  0  0  0  0
  -31.8509  -19.9575   21.1813 H   0  0  0  0  0  0
  -28.8203  -24.1061   19.3970 H   0  0  0  0  0  0
  -30.2685  -24.7747   20.1152 H   0  0  0  0  0  0
  -28.3492  -22.9965   21.7080 H   0  0  0  0  0  0
  -29.8977  -23.5973   22.2113 H   0  0  0  0  0  0
  -29.4121  -17.1044   22.1625 H   0  0  0  0  0  0
  -31.1462  -16.8663   22.1414 H   0  0  0  0  0  0
  -29.6287  -17.3250   19.5260 H   0  0  0  0  0  0
  -31.3210  -17.6347   19.8299 H   0  0  0  0  0  0
  -28.7926  -25.8807   21.8910 H   0  0  0  0  0  0
  -27.3956  -25.2035   21.0975 H   0  0  0  0  0  0
  -29.0810  -15.0263   21.5709 H   0  0  0  0  0  0
  -29.0630  -19.0752   20.9896 H   0  0  0  0  0  0
  1 25  1  0  0  0
  1 30  2  0  0  0
  1 81  1  0  0  0
  2  3  1  0  0  0
  2 25  1  0  0  0
  2 83  1  0  0  0
  2 84  1  0  0  0
  3  4  1  0  0  0
  3 85  1  0  0  0
  3 86  1  0  0  0
  4  5  1  0  0  0
  4 87  1  0  0  0
  4 88  1  0  0  0
  5  6  1  0  0  0
  5 26  1  0  0  0
  5 89  1  0  0  0
  6 25  1  0  0  0
  6 90  1  0  0  0
  6 91  1  0  0  0
  7  8  2  0  0  0
  7 26  1  0  0  0
  7 29  1  0  0  0
  8  9  1  0  0  0
  8 22  1  0  0  0
  9 10  1  0  0  0
  9 27  2  0  0  0
 10 11  2  0  0  0
 10 15  1  0  0  0
 11 12  1  0  0  0
 11 92  1  0  0  0
 12 13  2  0  0  0
 12 93  1  0  0  0
 13 14  1  0  0  0
 13 31  1  0  0  0
 14 15  2  0  0  0
 14 94  1  0  0  0
 15 95  1  0  0  0
 16 17  2  0  0  0
 16 21  1  0  0  0
 16 31  1  0  0  0
 17 18  1  0  0  0
 17 96  1  0  0  0
 18 19  2  0  0  0
 18 97  1  0  0  0
 19 20  1  0  0  0
 19 24  1  0  0  0
 20 21  2  0  0  0
 20 98  1  0  0  0
 21 23  1  0  0  0
 22 28  1  0  0  0
 22 32  2  0  0  0
 26 27  1  0  0  0
 28 99  1  0  0  0
 28100  1  0  0  0
 29101  1  0  0  0
 29102  1  0  0  0
 33 34  1  0  0  0
 33 66  1  0  0  0
 33 70  2  0  0  0
 34 36  1  0  0  0
 34 59  1  0  0  0
 34103  1  0  0  0
 35 44  2  0  0  0
 35 45  1  0  0  0
 35 68  1  0  0  0
 36 56  1  0  0  0
 36104  1  0  0  0
 37 39  1  0  0  0
 37 47  1  0  0  0
 37 66  1  0  0  0
 37105  1  0  0  0
 38 43  2  0  0  0
 38 46  1  0  0  0
 38 47  1  0  0  0
 39 64  1  0  0  0
 39 67  2  0  0  0
 40 52  1  0  0  0
 40 53  2  0  0  0
 40 58  1  0  0  0
 41106  1  0  0  0
 41107  1  0  0  0
 41108  1  0  0  0
 41 48  1  0  0  0
 42 43  1  0  0  0
 42 66  1  0  0  0
 42109  1  0  0  0
 42110  1  0  0  0
 43 44  1  0  0  0
 44111  1  0  0  0
 45 46  2  0  0  0
 45112  1  0  0  0
 46113  1  0  0  0
 47114  1  0  0  0
 47115  1  0  0  0
 48 56  1  0  0  0
 48 65  1  0  0  0
 48116  1  0  0  0
 49 50  1  0  0  0
 49 53  1  0  0  0
 49 64  1  0  0  0
 49117  1  0  0  0
 50 51  1  0  0  0
 50118  1  0  0  0
 50119  1  0  0  0
 51 52  1  0  0  0
 51120  1  0  0  0
 51121  1  0  0  0
 52122  1  0  0  0
 52123  1  0  0  0
 53 54  1  0  0  0
 54 55  2  0  0  0
 54124  1  0  0  0
 55 57  1  0  0  0
 55125  1  0  0  0
 56 69  2  0  0  0
 57 58  2  0  0  0
 57126  1  0  0  0
 58127  1  0  0  0
 59 60  1  0  0  0
 59 61  1  0  0  0
 59 62  1  0  0  0
 60128  1  0  0  0
 60129  1  0  0  0
 60130  1  0  0  0
 61131  1  0  0  0
 61132  1  0  0  0
 61133  1  0  0  0
 62134  1  0  0  0
 62135  1  0  0  0
 62136  1  0  0  0
 63 65  1  0  0  0
 63137  1  0  0  0
 63138  1  0  0  0
 63139  1  0  0  0
 64140  1  0  0  0
 65141  1  0  0  0
 68 79  1  0  0  0
 71 73  1  0  0  0
 71 80  1  0  0  0
 71142  1  0  0  0
 71143  1  0  0  0
 72 74  1  0  0  0
 72 80  1  0  0  0
 72144  1  0  0  0
 72145  1  0  0  0
 73 82  1  0  0  0
 73146  1  0  0  0
 73147  1  0  0  0
 74 82  1  0  0  0
 74148  1  0  0  0
 74149  1  0  0  0
 75 76  1  0  0  0
 75 79  1  0  0  0
 75150  1  0  0  0
 75151  1  0  0  0
 76 80  1  0  0  0
 76152  1  0  0  0
 76153  1  0  0  0
 77 78  1  0  0  0
 77 81  1  0  0  0
 77154  1  0  0  0
 77155  1  0  0  0
 78156  1  0  0  0
 78157  1  0  0  0
 78 82  1  0  0  0
 79158  1  0  0  0
 79159  1  0  0  0
 81160  1  0  0  0
 82161  1  0  0  0
M  CHG  1  82   1
M  ISO  4   1 100  68 101  79 101  81 100
M  END
> <chiral flag>
0

> <version>
0

> <s_m_source_file>
/data/baiqing/PycharmProjects/Reinvent-master-3.2/result/LINK_invent/BTK/process_docking_weight1_custom_sum_contain_oxygen_bond_distance_aromatic_linkinvent_7_9_3/rearranged_h_0119.sdf

> <i_m_source_file_index>
64

> <r_mmod_Potential_Energy-OPLS-2005>
-170.327224731445

> <r_mmod_Stretch_Energy-OPLS-2005>
37.1866149902344

> <r_mmod_Bend_Energy-OPLS-2005>
103.323013305664

> <r_mmod_Torsional_Energy-OPLS-2005>
225.874710083008

> <r_mmod_Improper_Torsional_Energy-OPLS-2005>
2.82089018821716

> <r_mmod_Van_der_Waal_Energy-OPLS-2005>
144.389511108398

> <r_mmod_Electrostatic_Energy-OPLS-2005>
-237.058715820312

> <r_mmod_Solvation_Energy-OPLS-2005>
-456.911254882812

> <b_mmod_Minimization_Converged-OPLS-2005>
0

> <r_mmod_RMS_Derivative-OPLS-2005>
4.30620861053467

$$$$
64
                    3D
 Structure written by MMmdl.
177186  0  0  1  0            999 V2000
  -30.7564  -14.4108   20.6739 C   0  0  0  0  0  0
  -30.4223  -12.3142   19.4031 C   0  0  0  0  0  0
  -29.4875  -12.5210   18.1962 C   0  0  0  0  0  0
  -28.0125  -12.3730   18.6144 C   0  0  0  0  0  0
  -27.6648  -13.2045   19.8770 C   0  0  2  0  0  0
  -28.7044  -12.9666   20.9937 C   0  0  0  0  0  0
  -25.2604  -13.8160   20.5662 C   0  0  0  0  0  0
  -24.1849  -13.0441   20.9155 C   0  0  0  0  0  0
  -24.6399  -11.6906   20.8727 C   0  0  0  0  0  0
  -23.9061  -10.4296   21.0406 C   0  0  0  0  0  0
  -24.3609   -9.4211   21.9185 C   0  0  0  0  0  0
  -23.6286   -8.2242   22.0753 C   0  0  0  0  0  0
  -22.4273   -8.0283   21.3540 C   0  0  0  0  0  0
  -21.9912   -9.0255   20.4638 C   0  0  0  0  0  0
  -22.7237  -10.2135   20.3045 C   0  0  0  0  0  0
  -21.6851   -6.0736   22.5269 C   0  0  0  0  0  0
  -21.4006   -6.5635   23.8205 C   0  0  0  0  0  0
  -21.3655   -5.6791   24.9171 C   0  0  0  0  0  0
  -21.6043   -4.3054   24.7226 C   0  0  0  0  0  0
  -21.8824   -3.8147   23.4346 C   0  0  0  0  0  0
  -21.9191   -4.6962   22.3399 C   0  0  0  0  0  0
  -22.7878  -13.5244   21.1829 C   0  0  0  0  0  0
  -22.1663   -4.2156   21.0975 F   0  0  0  0  0  0
  -21.5633   -3.4539   25.7739 F   0  0  0  0  0  0
  -30.0409  -13.2737   20.4518 N   0  0  0  0  0  0
  -26.3041  -12.9326   20.3372 N   0  0  0  0  0  0
  -25.9324  -11.6487   20.5751 N   0  0  0  0  0  0
  -22.0507  -12.8220   22.0369 N   0  0  0  0  0  0
  -25.4348  -15.1874   20.4065 N   0  0  0  0  0  0
  -31.8052  -14.6686   20.0781 O   0  0  0  0  0  0
  -21.6630   -6.8885   21.4237 O   0  0  0  0  0  0
  -22.3568  -14.5562   20.6702 O   0  0  0  0  0  0
  -24.6123  -31.8701   23.2108 C   0  0  0  0  0  0
  -25.9035  -32.4822   23.8409 C   0  0  1  0  0  0
  -27.2406  -27.4404   20.1152 C   0  0  0  0  0  0
  -25.5917  -33.8618   24.2356 N   0  0  0  0  0  0
  -23.4007  -30.4903   21.5493 C   0  0  2  0  0  0
  -24.8542  -28.9531   20.1239 C   0  0  0  0  0  0
  -22.7401  -29.4664   22.5000 C   0  0  0  0  0  0
  -18.0272  -28.1372   22.8495 C   0  0  0  0  0  0
  -24.1490  -36.7295   23.2665 C   0  0  0  0  0  0
  -25.9276  -30.8351   21.3656 C   0  0  0  0  0  0
  -26.0095  -29.4629   20.7319 C   0  0  0  0  0  0
  -27.2067  -28.7100   20.7377 C   0  0  0  0  0  0
  -26.0761  -26.9473   19.4963 C   0  0  0  0  0  0
  -24.8808  -27.6905   19.5057 C   0  0  0  0  0  0
  -23.6129  -29.8166   20.1662 C   0  0  0  0  0  0
  -25.4125  -36.3101   24.0345 C   0  0  1  0  0  0
  -20.5860  -28.3663   23.1319 C   0  0  2  0  0  0
  -20.6763  -26.9398   22.5408 C   0  0  0  0  0  0
  -19.5737  -26.6386   21.5202 C   0  0  0  0  0  0
  -18.1914  -26.7921   22.1610 C   0  0  0  0  0  0
  -19.1525  -28.8835   23.2895 C   0  0  0  0  0  0
  -18.9461  -30.1442   23.8902 C   0  0  0  0  0  0
  -17.6464  -30.6581   24.0564 C   0  0  0  0  0  0
  -25.9033  -34.9466   23.5139 C   0  0  0  0  0  0
  -16.5357  -29.9081   23.6339 C   0  0  0  0  0  0
  -16.7269  -28.6497   23.0357 C   0  0  0  0  0  0
  -26.4464  -31.6574   25.0716 C   0  0  0  0  0  0
  -25.3780  -31.3798   26.1543 C   0  0  0  0  0  0
  -27.0172  -30.2967   24.6068 C   0  0  0  0  0  0
  -27.6146  -32.4206   25.7403 C   0  0  0  0  0  0
  -27.5520  -37.1907   24.8552 C   0  0  0  0  0  0
  -21.4133  -29.3035   22.3733 N   0  0  0  0  0  0
  -26.4357  -37.3727   23.9309 N   0  0  0  0  0  0
  -24.6642  -31.0812   22.0998 N   0  0  0  0  0  0
  -23.4170  -28.8207   23.3037 O   0  0  0  0  0  0
  -28.3846  -26.6873   19.9965 O   0  0  0  0  0  0
  -26.5558  -34.8904   22.4679 O   0  0  0  0  0  0
  -23.5317  -32.1473   23.7488 O   0  0  0  0  0  0
  -29.3589  -19.7576   22.1676 C   0  0  0  0  0  0
  -29.5453  -18.3879   22.4319 C   0  0  0  0  0  0
  -30.2660  -20.4301   21.3156 C   0  0  0  0  0  0
  -30.6230  -17.7163   21.8293 C   0  0  0  0  0  0
  -31.2547  -19.6397   20.6720 C   0  0  0  0  0  0
  -28.9616  -22.4167   20.3146 C   0  0  0  0  0  0
  -28.9900  -23.9418   20.0722 C   0  0  0  0  0  0
  -30.2142  -24.2634   22.2594 C   0  0  0  0  0  0
  -30.1834  -21.9624   21.1349 C   0  0  1  0  0  0
  -29.0245  -24.7500   21.3920 C   0  0  1  0  0  0
  -30.2325  -22.7265   22.4846 C   0  0  1  0  0  0
  -32.2298  -20.2175   19.6615 C   0  0  0  0  0  0
  -32.8097  -22.4489   25.3001 C   0  0  0  0  0  0
  -30.5429  -21.3388   25.3680 C   0  0  0  0  0  0
  -31.0139  -16.3077   22.2648 C   0  0  0  0  0  0
  -29.0796  -26.2938   21.1791 C   0  0  0  0  0  0
  -31.3875  -22.4495   24.7136 C   0  0  0  0  0  0
  -31.4301  -18.3254   20.9364 N   0  0  0  0  0  0
  -30.2753  -15.2156   21.6301 N   0  0  0  0  0  0
  -31.4359  -22.2992   23.2390 N   0  3  0  0  0  0
  -31.4643  -12.4227   19.0955 H   0  0  0  0  0  0
  -30.3331  -11.2959   19.7860 H   0  0  0  0  0  0
  -29.7271  -11.8028   17.4103 H   0  0  0  0  0  0
  -29.6520  -13.5110   17.7676 H   0  0  0  0  0  0
  -27.8257  -11.3160   18.8047 H   0  0  0  0  0  0
  -27.3592  -12.6532   17.7880 H   0  0  0  0  0  0
  -27.7167  -14.2563   19.5944 H   0  0  0  0  0  0
  -28.6797  -11.9244   21.3157 H   0  0  0  0  0  0
  -28.4481  -13.5450   21.8820 H   0  0  0  0  0  0
  -25.2757   -9.5685   22.4762 H   0  0  0  0  0  0
  -24.0002   -7.4640   22.7476 H   0  0  0  0  0  0
  -21.0845   -8.8769   19.8944 H   0  0  0  0  0  0
  -22.3705  -10.9667   19.6151 H   0  0  0  0  0  0
  -21.1986   -7.6141   23.9712 H   0  0  0  0  0  0
  -21.1471   -6.0515   25.9073 H   0  0  0  0  0  0
  -22.0606   -2.7609   23.2843 H   0  0  0  0  0  0
  -22.4103  -11.9858   22.4726 H   0  0  0  0  0  0
  -21.1126  -13.1250   22.2580 H   0  0  0  0  0  0
  -24.6721  -15.8477   20.5095 H   0  0  0  0  0  0
  -26.2954  -15.6222   20.0963 H   0  0  0  0  0  0
  -26.7113  -32.5560   23.1189 H   0  0  0  0  0  0
  -25.0165  -33.9788   25.0564 H   0  0  0  0  0  0
  -22.6880  -31.3043   21.4040 H   0  0  0  0  0  0
  -23.3729  -35.9663   23.3432 H   0  0  0  0  0  0
  -24.3536  -36.8803   22.2055 H   0  0  0  0  0  0
  -23.7301  -37.6551   23.6620 H   0  0  0  0  0  0
  -26.0321  -31.5886   20.5839 H   0  0  0  0  0  0
  -26.8185  -30.9043   21.9767 H   0  0  0  0  0  0
  -28.1031  -29.1083   21.1930 H   0  0  0  0  0  0
  -26.0983  -25.9844   19.0059 H   0  0  0  0  0  0
  -23.9967  -27.2918   19.0281 H   0  0  0  0  0  0
  -23.7138  -30.5857   19.4005 H   0  0  0  0  0  0
  -22.7385  -29.2303   19.8759 H   0  0  0  0  0  0
  -25.1333  -36.2030   25.0855 H   0  0  0  0  0  0
  -20.9955  -28.3230   24.1437 H   0  0  0  0  0  0
  -20.5687  -26.2261   23.3589 H   0  0  0  0  0  0
  -21.6637  -26.7443   22.1198 H   0  0  0  0  0  0
  -19.6905  -25.6301   21.1220 H   0  0  0  0  0  0
  -19.6682  -27.3210   20.6743 H   0  0  0  0  0  0
  -17.4190  -26.6707   21.4002 H   0  0  0  0  0  0
  -18.0292  -26.0039   22.8975 H   0  0  0  0  0  0
  -19.7946  -30.7261   24.2267 H   0  0  0  0  0  0
  -17.5026  -31.6269   24.5154 H   0  0  0  0  0  0
  -15.5361  -30.2987   23.7658 H   0  0  0  0  0  0
  -15.8668  -28.0823   22.7074 H   0  0  0  0  0  0
  -24.5659  -30.7510   25.7877 H   0  0  0  0  0  0
  -24.9374  -32.3046   26.5279 H   0  0  0  0  0  0
  -25.8088  -30.8625   27.0125 H   0  0  0  0  0  0
  -26.2611  -29.6760   24.1241 H   0  0  0  0  0  0
  -27.4012  -29.7196   25.4493 H   0  0  0  0  0  0
  -27.8461  -30.4186   23.9095 H   0  0  0  0  0  0
  -27.2974  -33.3702   26.1724 H   0  0  0  0  0  0
  -28.4085  -32.6382   25.0243 H   0  0  0  0  0  0
  -28.0601  -31.8409   26.5498 H   0  0  0  0  0  0
  -28.2884  -37.9814   24.7068 H   0  0  0  0  0  0
  -28.0638  -36.2381   24.7107 H   0  0  0  0  0  0
  -27.2160  -37.2472   25.8921 H   0  0  0  0  0  0
  -20.9300  -29.8760   21.6954 H   0  0  0  0  0  0
  -26.0280  -38.2890   24.0959 H   0  0  0  0  0  0
  -28.5618  -20.2925   22.6648 H   0  0  0  0  0  0
  -28.9059  -17.8769   23.1395 H   0  0  0  0  0  0
  -28.9512  -21.9029   19.3519 H   0  0  0  0  0  0
  -28.0366  -22.1376   20.8207 H   0  0  0  0  0  0
  -28.1110  -24.2199   19.4887 H   0  0  0  0  0  0
  -29.8551  -24.1996   19.4595 H   0  0  0  0  0  0
  -30.1886  -24.7817   23.2186 H   0  0  0  0  0  0
  -31.1481  -24.5629   21.7799 H   0  0  0  0  0  0
  -31.0574  -22.2886   20.5722 H   0  0  0  0  0  0
  -28.0958  -24.5318   21.9224 H   0  0  0  0  0  0
  -29.3430  -22.4626   23.0566 H   0  0  0  0  0  0
  -31.6959  -20.7510   18.8751 H   0  0  0  0  0  0
  -32.8213  -19.4370   19.1827 H   0  0  0  0  0  0
  -32.9183  -20.9110   20.1451 H   0  0  0  0  0  0
  -32.7823  -22.5698   26.3839 H   0  0  0  0  0  0
  -33.4084  -23.2702   24.9027 H   0  0  0  0  0  0
  -33.3354  -21.5162   25.0885 H   0  0  0  0  0  0
  -30.5441  -21.4426   26.4539 H   0  0  0  0  0  0
  -30.9339  -20.3474   25.1340 H   0  0  0  0  0  0
  -29.5015  -21.3718   25.0495 H   0  0  0  0  0  0
  -30.8451  -16.2324   23.3392 H   0  0  0  0  0  0
  -32.0907  -16.1769   22.1437 H   0  0  0  0  0  0
  -30.1140  -26.6165   21.0524 H   0  0  0  0  0  0
  -28.7113  -26.8047   22.0704 H   0  0  0  0  0  0
  -30.9407  -23.4151   24.9556 H   0  0  0  0  0  0
  -29.3983  -14.9562   22.0516 H   0  0  0  0  0  0
  -32.2314  -22.8016   22.8789 H   0  0  0  0  0  0
  -31.5796  -21.3237   23.0233 H   0  0  0  0  0  0
  1 25  1  0  0  0
  1 30  2  0  0  0
  1 89  1  0  0  0
  2  3  1  0  0  0
  2 25  1  0  0  0
  2 91  1  0  0  0
  2 92  1  0  0  0
  3  4  1  0  0  0
  3 93  1  0  0  0
  3 94  1  0  0  0
  4  5  1  0  0  0
  4 95  1  0  0  0
  4 96  1  0  0  0
  5  6  1  0  0  0
  5 26  1  0  0  0
  5 97  1  0  0  0
  6 25  1  0  0  0
  6 98  1  0  0  0
  6 99  1  0  0  0
  7  8  2  0  0  0
  7 26  1  0  0  0
  7 29  1  0  0  0
  8  9  1  0  0  0
  8 22  1  0  0  0
  9 10  1  0  0  0
  9 27  2  0  0  0
 10 11  2  0  0  0
 10 15  1  0  0  0
 11 12  1  0  0  0
 11100  1  0  0  0
 12 13  2  0  0  0
 12101  1  0  0  0
 13 14  1  0  0  0
 13 31  1  0  0  0
 14 15  2  0  0  0
 14102  1  0  0  0
 15103  1  0  0  0
 16 17  2  0  0  0
 16 21  1  0  0  0
 16 31  1  0  0  0
 17 18  1  0  0  0
 17104  1  0  0  0
 18 19  2  0  0  0
 18105  1  0  0  0
 19 20  1  0  0  0
 19 24  1  0  0  0
 20 21  2  0  0  0
 20106  1  0  0  0
 21 23  1  0  0  0
 22 28  1  0  0  0
 22 32  2  0  0  0
 26 27  1  0  0  0
 28107  1  0  0  0
 28108  1  0  0  0
 29109  1  0  0  0
 29110  1  0  0  0
 33 34  1  0  0  0
 33 66  1  0  0  0
 33 70  2  0  0  0
 34 36  1  0  0  0
 34 59  1  0  0  0
 34111  1  0  0  0
 35 44  2  0  0  0
 35 45  1  0  0  0
 35 68  1  0  0  0
 36 56  1  0  0  0
 36112  1  0  0  0
 37 39  1  0  0  0
 37 47  1  0  0  0
 37 66  1  0  0  0
 37113  1  0  0  0
 38 43  2  0  0  0
 38 46  1  0  0  0
 38 47  1  0  0  0
 39 64  1  0  0  0
 39 67  2  0  0  0
 40 52  1  0  0  0
 40 53  2  0  0  0
 40 58  1  0  0  0
 41114  1  0  0  0
 41115  1  0  0  0
 41116  1  0  0  0
 41 48  1  0  0  0
 42 43  1  0  0  0
 42 66  1  0  0  0
 42117  1  0  0  0
 42118  1  0  0  0
 43 44  1  0  0  0
 44119  1  0  0  0
 45 46  2  0  0  0
 45120  1  0  0  0
 46121  1  0  0  0
 47122  1  0  0  0
 47123  1  0  0  0
 48 56  1  0  0  0
 48 65  1  0  0  0
 48124  1  0  0  0
 49 50  1  0  0  0
 49 53  1  0  0  0
 49 64  1  0  0  0
 49125  1  0  0  0
 50 51  1  0  0  0
 50126  1  0  0  0
 50127  1  0  0  0
 51 52  1  0  0  0
 51128  1  0  0  0
 51129  1  0  0  0
 52130  1  0  0  0
 52131  1  0  0  0
 53 54  1  0  0  0
 54 55  2  0  0  0
 54132  1  0  0  0
 55 57  1  0  0  0
 55133  1  0  0  0
 56 69  2  0  0  0
 57 58  2  0  0  0
 57134  1  0  0  0
 58135  1  0  0  0
 59 60  1  0  0  0
 59 61  1  0  0  0
 59 62  1  0  0  0
 60136  1  0  0  0
 60137  1  0  0  0
 60138  1  0  0  0
 61139  1  0  0  0
 61140  1  0  0  0
 61141  1  0  0  0
 62142  1  0  0  0
 62143  1  0  0  0
 62144  1  0  0  0
 63 65  1  0  0  0
 63145  1  0  0  0
 63146  1  0  0  0
 63147  1  0  0  0
 64148  1  0  0  0
 65149  1  0  0  0
 68 86  1  0  0  0
 71 72  2  0  0  0
 71 73  1  0  0  0
 71150  1  0  0  0
 72 74  1  0  0  0
 72151  1  0  0  0
 73 75  2  0  0  0
 73 79  1  0  0  0
 74 85  1  0  0  0
 74 88  2  0  0  0
 75 82  1  0  0  0
 75 88  1  0  0  0
 76 77  1  0  0  0
 76 79  1  0  0  0
 76152  1  0  0  0
 76153  1  0  0  0
 77 80  1  0  0  0
 77154  1  0  0  0
 77155  1  0  0  0
 78 80  1  0  0  0
 78 81  1  0  0  0
 78156  1  0  0  0
 78157  1  0  0  0
 79 81  1  0  0  0
 79158  1  0  0  0
 80 86  1  0  0  0
 80159  1  0  0  0
 81 90  1  0  0  0
 81160  1  0  0  0
 82161  1  0  0  0
 82162  1  0  0  0
 82163  1  0  0  0
 83164  1  0  0  0
 83165  1  0  0  0
 83166  1  0  0  0
 83 87  1  0  0  0
 84 87  1  0  0  0
 84167  1  0  0  0
 84168  1  0  0  0
 84169  1  0  0  0
 85 89  1  0  0  0
 85170  1  0  0  0
 85171  1  0  0  0
 86172  1  0  0  0
 86173  1  0  0  0
 87 90  1  0  0  0
 87174  1  0  0  0
 89175  1  0  0  0
 90176  1  0  0  0
 90177  1  0  0  0
M  CHG  1  90   1
M  ISO  4   1 100  68 101  86 101  89 100
M  END
> <chiral flag>
0

> <version>
0

> <s_m_source_file>
/data/baiqing/PycharmProjects/Reinvent-master-3.2/result/LINK_invent/BTK/process_docking_weight1_custom_sum_contain_oxygen_bond_distance_aromatic_linkinvent_7_9_3/rearranged_h_0119.sdf

> <i_m_source_file_index>
65

> <r_mmod_Potential_Energy-OPLS-2005>
-466.050109863281

> <r_mmod_Stretch_Energy-OPLS-2005>
38.3409805297852

> <r_mmod_Bend_Energy-OPLS-2005>
104.099334716797

> <r_mmod_Torsional_Energy-OPLS-2005>
263.891326904297

> <r_mmod_Improper_Torsional_Energy-OPLS-2005>
2.74855208396912

> <r_mmod_Van_der_Waal_Energy-OPLS-2005>
149.572280883789

> <r_mmod_Electrostatic_Energy-OPLS-2005>
-575.062072753906

> <r_mmod_Solvation_Energy-OPLS-2005>
-457.681457519531

> <b_mmod_Minimization_Converged-OPLS-2005>
0

> <r_mmod_RMS_Derivative-OPLS-2005>
1.79488706588745

$$$$
65
                    3D
 Structure written by MMmdl.
162171  0  0  1  0            999 V2000
  -30.6728  -14.7043   20.3902 C   0  0  0  0  0  0
  -30.4217  -12.4121   19.4803 C   0  0  0  0  0  0
  -29.5093  -12.4321   18.2360 C   0  0  0  0  0  0
  -28.0239  -12.3165   18.6391 C   0  0  0  0  0  0
  -27.6305  -13.2265   19.8338 C   0  0  2  0  0  0
  -28.6812  -13.2141   20.9607 C   0  0  0  0  0  0
  -25.2508  -13.8177   20.5711 C   0  0  0  0  0  0
  -24.1782  -13.0422   20.9213 C   0  0  0  0  0  0
  -24.6358  -11.6909   20.8756 C   0  0  0  0  0  0
  -23.9040  -10.4281   21.0419 C   0  0  0  0  0  0
  -24.3601   -9.4196   21.9193 C   0  0  0  0  0  0
  -23.6293   -8.2227   22.0748 C   0  0  0  0  0  0
  -22.4277   -8.0262   21.3540 C   0  0  0  0  0  0
  -21.9905   -9.0223   20.4643 C   0  0  0  0  0  0
  -22.7213  -10.2118   20.3068 C   0  0  0  0  0  0
  -21.6842   -6.0732   22.5274 C   0  0  0  0  0  0
  -21.4011   -6.5647   23.8205 C   0  0  0  0  0  0
  -21.3668   -5.6803   24.9169 C   0  0  0  0  0  0
  -21.6044   -4.3065   24.7221 C   0  0  0  0  0  0
  -21.8825   -3.8150   23.4348 C   0  0  0  0  0  0
  -21.9192   -4.6961   22.3403 C   0  0  0  0  0  0
  -22.7812  -13.5205   21.1876 C   0  0  0  0  0  0
  -22.1665   -4.2148   21.0980 F   0  0  0  0  0  0
  -21.5634   -3.4565   25.7743 F   0  0  0  0  0  0
  -29.9903  -13.5115   20.3697 N   0  0  0  0  0  0
  -26.2896  -12.9348   20.3252 N   0  0  0  0  0  0
  -25.9282  -11.6502   20.5752 N   0  0  0  0  0  0
  -22.0478  -12.8169   22.0443 N   0  0  0  0  0  0
  -25.4269  -15.1892   20.4155 N   0  0  0  0  0  0
  -31.9023  -14.6841   20.3360 O   0  0  0  0  0  0
  -21.6644   -6.8858   21.4227 O   0  0  0  0  0  0
  -22.3493  -14.5517   20.6734 O   0  0  0  0  0  0
  -24.6273  -31.8601   23.2040 C   0  0  0  0  0  0
  -25.9131  -32.4781   23.8342 C   0  0  1  0  0  0
  -27.2164  -27.3028   20.1468 C   0  0  0  0  0  0
  -25.5969  -33.8581   24.2289 N   0  0  0  0  0  0
  -23.4208  -30.4851   21.5444 C   0  0  2  0  0  0
  -24.8687  -28.9427   20.1066 C   0  0  0  0  0  0
  -22.7491  -29.4631   22.4927 C   0  0  0  0  0  0
  -18.0308  -28.1389   22.8461 C   0  0  0  0  0  0
  -24.1509  -36.7285   23.2637 C   0  0  0  0  0  0
  -25.9606  -30.7925   21.3742 C   0  0  0  0  0  0
  -26.0370  -29.4178   20.7191 C   0  0  0  0  0  0
  -27.2139  -28.6101   20.7286 C   0  0  0  0  0  0
  -26.0305  -26.8889   19.4972 C   0  0  0  0  0  0
  -24.8700  -27.6842   19.4838 C   0  0  0  0  0  0
  -23.6367  -29.8242   20.1558 C   0  0  0  0  0  0
  -25.4127  -36.3084   24.0326 C   0  0  1  0  0  0
  -20.5904  -28.3699   23.1275 C   0  0  2  0  0  0
  -20.6809  -26.9418   22.5417 C   0  0  0  0  0  0
  -19.5792  -26.6375   21.5215 C   0  0  0  0  0  0
  -18.1960  -26.7937   22.1597 C   0  0  0  0  0  0
  -19.1554  -28.8856   23.2867 C   0  0  0  0  0  0
  -18.9481  -30.1458   23.8879 C   0  0  0  0  0  0
  -17.6483  -30.6586   24.0555 C   0  0  0  0  0  0
  -25.9061  -34.9457   23.5097 C   0  0  0  0  0  0
  -16.5373  -29.9083   23.6322 C   0  0  0  0  0  0
  -16.7292  -28.6509   23.0315 C   0  0  0  0  0  0
  -26.4514  -31.6584   25.0701 C   0  0  0  0  0  0
  -25.3751  -31.3728   26.1441 C   0  0  0  0  0  0
  -27.0355  -30.3018   24.6127 C   0  0  0  0  0  0
  -27.6080  -32.4307   25.7477 C   0  0  0  0  0  0
  -27.5594  -37.1807   24.8459 C   0  0  0  0  0  0
  -21.4207  -29.3052   22.3674 N   0  0  0  0  0  0
  -26.4300  -37.3778   23.9407 N   0  0  0  0  0  0
  -24.6883  -31.0627   22.0981 N   0  0  0  0  0  0
  -23.4217  -28.8178   23.3015 O   0  0  0  0  0  0
  -28.3134  -26.4285   20.2423 O   0  0  0  0  0  0
  -26.5587  -34.8920   22.4646 O   0  0  0  0  0  0
  -23.5439  -32.1397   23.7380 O   0  0  0  0  0  0
  -29.5113  -21.3767   21.0581 C   0  0  0  0  0  0
  -29.1954  -16.1508   18.6861 C   0  0  0  0  0  0
  -30.6329  -16.5155   18.6496 C   0  0  0  0  0  0
  -30.4840  -20.1243   19.1170 C   0  0  0  0  0  0
  -31.8781  -19.7633   19.6562 C   0  0  0  0  0  0
  -29.5587  -19.9538   20.3321 C   0  0  1  0  0  0
  -30.2595  -18.6979   21.0792 C   0  0  1  0  0  0
  -30.0085  -16.0735   19.9814 C   0  0  0  0  0  0
  -29.6804  -17.1759   21.0843 C   0  0  0  0  0  0
  -29.1429  -23.9386   20.7595 C   0  0  0  0  0  0
  -28.0391  -24.9657   20.2374 C   0  0  0  0  0  0
  -28.9529  -22.4697   20.4370 N   0  0  0  0  0  0
  -31.6859  -18.7292   20.6933 N   0  3  0  0  0  0
  -30.0586  -21.5049   22.1543 O   0  0  0  0  0  0
  -31.4647  -12.5099   19.1767 H   0  0  0  0  0  0
  -30.3441  -11.4562   19.9997 H   0  0  0  0  0  0
  -29.7691  -11.6015   17.5784 H   0  0  0  0  0  0
  -29.6885  -13.3279   17.6454 H   0  0  0  0  0  0
  -27.8450  -11.2733   18.9017 H   0  0  0  0  0  0
  -27.3802  -12.5273   17.7837 H   0  0  0  0  0  0
  -27.5901  -14.2351   19.4408 H   0  0  0  0  0  0
  -28.6992  -12.2459   21.4637 H   0  0  0  0  0  0
  -28.4327  -13.9563   21.7216 H   0  0  0  0  0  0
  -25.2746   -9.5692   22.4763 H   0  0  0  0  0  0
  -24.0031   -7.4615   22.7445 H   0  0  0  0  0  0
  -21.0863   -8.8711   19.8937 H   0  0  0  0  0  0
  -22.3651  -10.9652   19.6191 H   0  0  0  0  0  0
  -21.2003   -7.6156   23.9703 H   0  0  0  0  0  0
  -21.1491   -6.0540   25.9071 H   0  0  0  0  0  0
  -22.0601   -2.7616   23.2839 H   0  0  0  0  0  0
  -22.4143  -11.9860   22.4833 H   0  0  0  0  0  0
  -21.1091  -13.1145   22.2667 H   0  0  0  0  0  0
  -24.6735  -15.8580   20.5325 H   0  0  0  0  0  0
  -26.2935  -15.6185   20.1154 H   0  0  0  0  0  0
  -26.7204  -32.5455   23.1085 H   0  0  0  0  0  0
  -25.0216  -33.9703   25.0502 H   0  0  0  0  0  0
  -22.7146  -31.3060   21.4023 H   0  0  0  0  0  0
  -23.3786  -35.9613   23.3292 H   0  0  0  0  0  0
  -24.3621  -36.8899   22.2058 H   0  0  0  0  0  0
  -23.7236  -37.6473   23.6661 H   0  0  0  0  0  0
  -26.0840  -31.5618   20.6094 H   0  0  0  0  0  0
  -26.8448  -30.8453   21.9975 H   0  0  0  0  0  0
  -28.1030  -28.9610   21.2359 H   0  0  0  0  0  0
  -25.9729  -25.9271   19.0095 H   0  0  0  0  0  0
  -23.9775  -27.3137   18.9972 H   0  0  0  0  0  0
  -23.7558  -30.6054   19.4028 H   0  0  0  0  0  0
  -22.7557  -29.2573   19.8482 H   0  0  0  0  0  0
  -25.1312  -36.1940   25.0815 H   0  0  0  0  0  0
  -20.9986  -28.3314   24.1396 H   0  0  0  0  0  0
  -20.5743  -26.2313   23.3631 H   0  0  0  0  0  0
  -21.6682  -26.7471   22.1202 H   0  0  0  0  0  0
  -19.6972  -25.6281   21.1253 H   0  0  0  0  0  0
  -19.6746  -27.3190   20.6754 H   0  0  0  0  0  0
  -17.4241  -26.6684   21.3983 H   0  0  0  0  0  0
  -18.0323  -26.0079   22.8977 H   0  0  0  0  0  0
  -19.7960  -30.7265   24.2246 H   0  0  0  0  0  0
  -17.5044  -31.6267   24.5175 H   0  0  0  0  0  0
  -15.5376  -30.2973   23.7682 H   0  0  0  0  0  0
  -15.8686  -28.0856   22.6986 H   0  0  0  0  0  0
  -24.5920  -30.7062   25.7811 H   0  0  0  0  0  0
  -24.8934  -32.2894   26.4868 H   0  0  0  0  0  0
  -25.8084  -30.8926   27.0221 H   0  0  0  0  0  0
  -26.2908  -29.6765   24.1179 H   0  0  0  0  0  0
  -27.4113  -29.7279   25.4610 H   0  0  0  0  0  0
  -27.8762  -30.4331   23.9302 H   0  0  0  0  0  0
  -27.2685  -33.3589   26.2096 H   0  0  0  0  0  0
  -28.3883  -32.6887   25.0300 H   0  0  0  0  0  0
  -28.0765  -31.8388   26.5352 H   0  0  0  0  0  0
  -28.2608  -38.0115   24.7531 H   0  0  0  0  0  0
  -28.1083  -36.2634   24.6257 H   0  0  0  0  0  0
  -27.2311  -37.1440   25.8864 H   0  0  0  0  0  0
  -20.9401  -29.8751   21.6852 H   0  0  0  0  0  0
  -26.0185  -38.2852   24.1423 H   0  0  0  0  0  0
  -28.9438  -15.2608   18.1242 H   0  0  0  0  0  0
  -28.4692  -16.9570   18.5978 H   0  0  0  0  0  0
  -30.8879  -17.5445   18.4759 H   0  0  0  0  0  0
  -31.2933  -15.8260   18.1226 H   0  0  0  0  0  0
  -30.1644  -19.4708   18.3093 H   0  0  0  0  0  0
  -30.4857  -21.1270   18.6865 H   0  0  0  0  0  0
  -32.3363  -20.6386   20.1217 H   0  0  0  0  0  0
  -32.5534  -19.4221   18.8696 H   0  0  0  0  0  0
  -28.5437  -19.6978   20.0248 H   0  0  0  0  0  0
  -30.2566  -18.9651   22.1369 H   0  0  0  0  0  0
  -28.5929  -17.2534   21.1363 H   0  0  0  0  0  0
  -29.9447  -16.7382   22.0492 H   0  0  0  0  0  0
  -29.2665  -24.0704   21.8373 H   0  0  0  0  0  0
  -30.0979  -24.2269   20.3193 H   0  0  0  0  0  0
  -27.1441  -24.7845   20.8367 H   0  0  0  0  0  0
  -27.7819  -24.6810   19.2169 H   0  0  0  0  0  0
  -28.4809  -22.2770   19.5633 H   0  0  0  0  0  0
  -32.2682  -18.9334   21.4921 H   0  0  0  0  0  0
  -31.9602  -17.8299   20.3340 H   0  0  0  0  0  0
  1 25  1  0  0  0
  1 30  2  0  0  0
  1 78  1  0  0  0
  2  3  1  0  0  0
  2 25  1  0  0  0
  2 85  1  0  0  0
  2 86  1  0  0  0
  3  4  1  0  0  0
  3 87  1  0  0  0
  3 88  1  0  0  0
  4  5  1  0  0  0
  4 89  1  0  0  0
  4 90  1  0  0  0
  5  6  1  0  0  0
  5 26  1  0  0  0
  5 91  1  0  0  0
  6 25  1  0  0  0
  6 92  1  0  0  0
  6 93  1  0  0  0
  7  8  2  0  0  0
  7 26  1  0  0  0
  7 29  1  0  0  0
  8  9  1  0  0  0
  8 22  1  0  0  0
  9 10  1  0  0  0
  9 27  2  0  0  0
 10 11  2  0  0  0
 10 15  1  0  0  0
 11 12  1  0  0  0
 11 94  1  0  0  0
 12 13  2  0  0  0
 12 95  1  0  0  0
 13 14  1  0  0  0
 13 31  1  0  0  0
 14 15  2  0  0  0
 14 96  1  0  0  0
 15 97  1  0  0  0
 16 17  2  0  0  0
 16 21  1  0  0  0
 16 31  1  0  0  0
 17 18  1  0  0  0
 17 98  1  0  0  0
 18 19  2  0  0  0
 18 99  1  0  0  0
 19 20  1  0  0  0
 19 24  1  0  0  0
 20 21  2  0  0  0
 20100  1  0  0  0
 21 23  1  0  0  0
 22 28  1  0  0  0
 22 32  2  0  0  0
 26 27  1  0  0  0
 28101  1  0  0  0
 28102  1  0  0  0
 29103  1  0  0  0
 29104  1  0  0  0
 33 34  1  0  0  0
 33 66  1  0  0  0
 33 70  2  0  0  0
 34 36  1  0  0  0
 34 59  1  0  0  0
 34105  1  0  0  0
 35 44  2  0  0  0
 35 45  1  0  0  0
 35 68  1  0  0  0
 36 56  1  0  0  0
 36106  1  0  0  0
 37 39  1  0  0  0
 37 47  1  0  0  0
 37 66  1  0  0  0
 37107  1  0  0  0
 38 43  2  0  0  0
 38 46  1  0  0  0
 38 47  1  0  0  0
 39 64  1  0  0  0
 39 67  2  0  0  0
 40 52  1  0  0  0
 40 53  2  0  0  0
 40 58  1  0  0  0
 41108  1  0  0  0
 41109  1  0  0  0
 41110  1  0  0  0
 41 48  1  0  0  0
 42 43  1  0  0  0
 42 66  1  0  0  0
 42111  1  0  0  0
 42112  1  0  0  0
 43 44  1  0  0  0
 44113  1  0  0  0
 45 46  2  0  0  0
 45114  1  0  0  0
 46115  1  0  0  0
 47116  1  0  0  0
 47117  1  0  0  0
 48 56  1  0  0  0
 48 65  1  0  0  0
 48118  1  0  0  0
 49 50  1  0  0  0
 49 53  1  0  0  0
 49 64  1  0  0  0
 49119  1  0  0  0
 50 51  1  0  0  0
 50120  1  0  0  0
 50121  1  0  0  0
 51 52  1  0  0  0
 51122  1  0  0  0
 51123  1  0  0  0
 52124  1  0  0  0
 52125  1  0  0  0
 53 54  1  0  0  0
 54 55  2  0  0  0
 54126  1  0  0  0
 55 57  1  0  0  0
 55127  1  0  0  0
 56 69  2  0  0  0
 57 58  2  0  0  0
 57128  1  0  0  0
 58129  1  0  0  0
 59 60  1  0  0  0
 59 61  1  0  0  0
 59 62  1  0  0  0
 60130  1  0  0  0
 60131  1  0  0  0
 60132  1  0  0  0
 61133  1  0  0  0
 61134  1  0  0  0
 61135  1  0  0  0
 62136  1  0  0  0
 62137  1  0  0  0
 62138  1  0  0  0
 63 65  1  0  0  0
 63139  1  0  0  0
 63140  1  0  0  0
 63141  1  0  0  0
 64142  1  0  0  0
 65143  1  0  0  0
 68 81  1  0  0  0
 71 82  1  0  0  0
 71 84  2  0  0  0
 71 76  1  0  0  0
 72 73  1  0  0  0
 72 78  1  0  0  0
 72144  1  0  0  0
 72145  1  0  0  0
 73 78  1  0  0  0
 73146  1  0  0  0
 73147  1  0  0  0
 74 75  1  0  0  0
 74 76  1  0  0  0
 74148  1  0  0  0
 74149  1  0  0  0
 75 83  1  0  0  0
 75150  1  0  0  0
 75151  1  0  0  0
 76 77  1  0  0  0
 76152  1  0  0  0
 77 79  1  0  0  0
 77 83  1  0  0  0
 77153  1  0  0  0
 78 79  1  0  0  0
 79154  1  0  0  0
 79155  1  0  0  0
 80 81  1  0  0  0
 80 82  1  0  0  0
 80156  1  0  0  0
 80157  1  0  0  0
 81158  1  0  0  0
 81159  1  0  0  0
 82160  1  0  0  0
 83161  1  0  0  0
 83162  1  0  0  0
M  CHG  1  83   1
M  ISO  4   1 100  68 101  78 100  81 101
M  END
> <chiral flag>
0

> <version>
0

> <s_m_source_file>
/data/baiqing/PycharmProjects/Reinvent-master-3.2/result/LINK_invent/BTK/process_docking_weight1_custom_sum_contain_oxygen_bond_distance_aromatic_linkinvent_7_9_3/rearranged_h_0119.sdf

> <i_m_source_file_index>
66

> <r_mmod_Potential_Energy-OPLS-2005>
89.1050872802734

> <r_mmod_Stretch_Energy-OPLS-2005>
110.849800109863

> <r_mmod_Bend_Energy-OPLS-2005>
202.260147094727

> <r_mmod_Torsional_Energy-OPLS-2005>
329.318878173828

> <r_mmod_Improper_Torsional_Energy-OPLS-2005>
13.908242225647

> <r_mmod_Van_der_Waal_Energy-OPLS-2005>
126.964141845703

> <r_mmod_Electrostatic_Energy-OPLS-2005>
-323.386322021484

> <r_mmod_Solvation_Energy-OPLS-2005>
-455.658325195312

> <b_mmod_Minimization_Converged-OPLS-2005>
0

> <r_mmod_RMS_Derivative-OPLS-2005>
3.44942116737366

$$$$
66
                    3D
 Structure written by MMmdl.
161169  0  0  1  0            999 V2000
  -30.6115  -14.6926   20.4872 C   0  0  0  0  0  0
  -30.4356  -12.4289   19.4542 C   0  0  0  0  0  0
  -29.5051  -12.5029   18.2237 C   0  0  0  0  0  0
  -28.0303  -12.3323   18.6406 C   0  0  0  0  0  0
  -27.6439  -13.2210   19.8530 C   0  0  2  0  0  0
  -28.6903  -13.1198   20.9837 C   0  0  0  0  0  0
  -25.2524  -13.8174   20.5691 C   0  0  0  0  0  0
  -24.1807  -13.0431   20.9213 C   0  0  0  0  0  0
  -24.6385  -11.6906   20.8752 C   0  0  0  0  0  0
  -23.9059  -10.4288   21.0416 C   0  0  0  0  0  0
  -24.3614   -9.4202   21.9189 C   0  0  0  0  0  0
  -23.6291   -8.2237   22.0753 C   0  0  0  0  0  0
  -22.4273   -8.0279   21.3545 C   0  0  0  0  0  0
  -21.9907   -9.0250   20.4646 C   0  0  0  0  0  0
  -22.7234  -10.2131   20.3061 C   0  0  0  0  0  0
  -21.6851   -6.0737   22.5279 C   0  0  0  0  0  0
  -21.4013   -6.5641   23.8212 C   0  0  0  0  0  0
  -21.3658   -5.6794   24.9174 C   0  0  0  0  0  0
  -21.6043   -4.3056   24.7225 C   0  0  0  0  0  0
  -21.8819   -3.8149   23.4346 C   0  0  0  0  0  0
  -21.9193   -4.6965   22.3403 C   0  0  0  0  0  0
  -22.7831  -13.5220   21.1875 C   0  0  0  0  0  0
  -22.1663   -4.2152   21.0980 F   0  0  0  0  0  0
  -21.5626   -3.4539   25.7738 F   0  0  0  0  0  0
  -29.9933  -13.4703   20.4040 N   0  0  0  0  0  0
  -26.2942  -12.9360   20.3287 N   0  0  0  0  0  0
  -25.9310  -11.6514   20.5752 N   0  0  0  0  0  0
  -22.0477  -12.8206   22.0429 N   0  0  0  0  0  0
  -25.4219  -15.1898   20.4087 N   0  0  0  0  0  0
  -31.7964  -14.8260   20.1722 O   0  0  0  0  0  0
  -21.6638   -6.8877   21.4240 O   0  0  0  0  0  0
  -22.3520  -14.5527   20.6722 O   0  0  0  0  0  0
  -24.6274  -31.8575   23.1995 C   0  0  0  0  0  0
  -25.9113  -32.4765   23.8334 C   0  0  1  0  0  0
  -27.2270  -27.3035   20.1344 C   0  0  0  0  0  0
  -25.5922  -33.8567   24.2262 N   0  0  0  0  0  0
  -23.4223  -30.4781   21.5423 C   0  0  2  0  0  0
  -24.8705  -28.9212   20.1189 C   0  0  0  0  0  0
  -22.7479  -29.4612   22.4936 C   0  0  0  0  0  0
  -18.0287  -28.1389   22.8484 C   0  0  0  0  0  0
  -24.1488  -36.7288   23.2640 C   0  0  0  0  0  0
  -25.9627  -30.7850   21.3703 C   0  0  0  0  0  0
  -26.0393  -29.4070   20.7201 C   0  0  0  0  0  0
  -27.2246  -28.6118   20.7122 C   0  0  0  0  0  0
  -26.0379  -26.8619   19.5219 C   0  0  0  0  0  0
  -24.8713  -27.6537   19.5110 C   0  0  0  0  0  0
  -23.6392  -29.8051   20.1608 C   0  0  0  0  0  0
  -25.4114  -36.3075   24.0327 C   0  0  1  0  0  0
  -20.5885  -28.3693   23.1284 C   0  0  2  0  0  0
  -20.6776  -26.9416   22.5413 C   0  0  0  0  0  0
  -19.5753  -26.6388   21.5214 C   0  0  0  0  0  0
  -18.1931  -26.7931   22.1624 C   0  0  0  0  0  0
  -19.1538  -28.8858   23.2878 C   0  0  0  0  0  0
  -18.9462  -30.1460   23.8896 C   0  0  0  0  0  0
  -17.6462  -30.6590   24.0565 C   0  0  0  0  0  0
  -25.9052  -34.9445   23.5096 C   0  0  0  0  0  0
  -16.5353  -29.9088   23.6333 C   0  0  0  0  0  0
  -16.7275  -28.6507   23.0350 C   0  0  0  0  0  0
  -26.4496  -31.6580   25.0711 C   0  0  0  0  0  0
  -25.3728  -31.3718   26.1437 C   0  0  0  0  0  0
  -27.0342  -30.3005   24.6166 C   0  0  0  0  0  0
  -27.6052  -32.4319   25.7485 C   0  0  0  0  0  0
  -27.5577  -37.1798   24.8465 C   0  0  0  0  0  0
  -21.4191  -29.3043   22.3677 N   0  0  0  0  0  0
  -26.4289  -37.3772   23.9409 N   0  0  0  0  0  0
  -24.6895  -31.0577   22.0945 N   0  0  0  0  0  0
  -23.4194  -28.8162   23.3030 O   0  0  0  0  0  0
  -28.3476  -26.4623   20.0982 O   0  0  0  0  0  0
  -26.5626  -34.8916   22.4667 O   0  0  0  0  0  0
  -23.5435  -32.1377   23.7317 O   0  0  0  0  0  0
  -29.3972  -21.0039   18.7957 C   0  0  0  0  0  0
  -29.5460  -19.9304   20.9220 C   0  0  0  0  0  0
  -29.0541  -19.6308   18.1612 C   0  0  0  0  0  0
  -29.3756  -18.4456   20.3097 C   0  0  2  0  0  0
  -29.3235  -25.3318   21.9359 C   0  0  0  0  0  0
  -30.1892  -17.2400   21.0102 C   0  0  0  0  0  0
  -28.5727  -23.7820   19.9901 C   0  0  0  0  0  0
  -29.0164  -22.4453   20.7862 C   0  0  0  0  0  0
  -28.3057  -25.1528   20.8010 C   0  0  2  0  0  0
  -28.8873  -21.0674   20.1690 N   0  0  0  0  0  0
  -29.8153  -15.7900   20.7397 N   0  0  0  0  0  0
  -29.7131  -18.5075   18.8705 N   0  3  0  0  0  0
  -31.4747  -12.5638   19.1493 H   0  0  0  0  0  0
  -30.3847  -11.4436   19.9198 H   0  0  0  0  0  0
  -29.7775  -11.7366   17.4968 H   0  0  0  0  0  0
  -29.6357  -13.4621   17.7200 H   0  0  0  0  0  0
  -27.8799  -11.2817   18.8920 H   0  0  0  0  0  0
  -27.3718  -12.5376   17.7960 H   0  0  0  0  0  0
  -27.6466  -14.2479   19.4879 H   0  0  0  0  0  0
  -28.7184  -12.1106   21.3969 H   0  0  0  0  0  0
  -28.4327  -13.7788   21.8144 H   0  0  0  0  0  0
  -25.2761   -9.5677   22.4760 H   0  0  0  0  0  0
  -24.0005   -7.4624   22.7464 H   0  0  0  0  0  0
  -21.0841   -8.8766   19.8944 H   0  0  0  0  0  0
  -22.3697  -10.9669   19.6167 H   0  0  0  0  0  0
  -21.2006   -7.6149   23.9719 H   0  0  0  0  0  0
  -21.1479   -6.0523   25.9077 H   0  0  0  0  0  0
  -22.0601   -2.7611   23.2846 H   0  0  0  0  0  0
  -22.4096  -11.9866   22.4811 H   0  0  0  0  0  0
  -21.1092  -13.1224   22.2634 H   0  0  0  0  0  0
  -24.6479  -15.8381   20.5083 H   0  0  0  0  0  0
  -26.2551  -15.6257   20.0372 H   0  0  0  0  0  0
  -26.7181  -32.5434   23.1083 H   0  0  0  0  0  0
  -25.0066  -33.9710   25.0404 H   0  0  0  0  0  0
  -22.7169  -31.2986   21.3946 H   0  0  0  0  0  0
  -23.3750  -35.9621   23.3302 H   0  0  0  0  0  0
  -24.3577  -36.8913   22.2054 H   0  0  0  0  0  0
  -23.7244  -37.6489   23.6667 H   0  0  0  0  0  0
  -26.0920  -31.5445   20.5981 H   0  0  0  0  0  0
  -26.8437  -30.8391   21.9983 H   0  0  0  0  0  0
  -28.1276  -28.9859   21.1740 H   0  0  0  0  0  0
  -26.0131  -25.8888   19.0517 H   0  0  0  0  0  0
  -23.9749  -27.2746   19.0397 H   0  0  0  0  0  0
  -23.7614  -30.5777   19.4007 H   0  0  0  0  0  0
  -22.7589  -29.2345   19.8590 H   0  0  0  0  0  0
  -25.1296  -36.1921   25.0819 H   0  0  0  0  0  0
  -20.9977  -28.3269   24.1405 H   0  0  0  0  0  0
  -20.5678  -26.2302   23.3613 H   0  0  0  0  0  0
  -21.6644  -26.7446   22.1205 H   0  0  0  0  0  0
  -19.6917  -25.6298   21.1244 H   0  0  0  0  0  0
  -19.6693  -27.3198   20.6743 H   0  0  0  0  0  0
  -17.4202  -26.6679   21.4026 H   0  0  0  0  0  0
  -18.0332  -26.0073   22.9021 H   0  0  0  0  0  0
  -19.7938  -30.7277   24.2264 H   0  0  0  0  0  0
  -17.5017  -31.6271   24.5168 H   0  0  0  0  0  0
  -15.5353  -30.2991   23.7659 H   0  0  0  0  0  0
  -15.8672  -28.0829   22.7063 H   0  0  0  0  0  0
  -24.5908  -30.7062   25.7766 H   0  0  0  0  0  0
  -24.8913  -32.2883   26.4857 H   0  0  0  0  0  0
  -25.8054  -30.8901   27.0215 H   0  0  0  0  0  0
  -26.2916  -29.6754   24.1193 H   0  0  0  0  0  0
  -27.4045  -29.7262   25.4668 H   0  0  0  0  0  0
  -27.8780  -30.4293   23.9384 H   0  0  0  0  0  0
  -27.2659  -33.3620   26.2056 H   0  0  0  0  0  0
  -28.3865  -32.6878   25.0316 H   0  0  0  0  0  0
  -28.0716  -31.8449   26.5407 H   0  0  0  0  0  0
  -28.2592  -38.0096   24.7510 H   0  0  0  0  0  0
  -28.1073  -36.2628   24.6291 H   0  0  0  0  0  0
  -27.2296  -37.1447   25.8868 H   0  0  0  0  0  0
  -20.9376  -29.8754   21.6873 H   0  0  0  0  0  0
  -26.0167  -38.2845   24.1413 H   0  0  0  0  0  0
  -28.9324  -21.7864   18.1942 H   0  0  0  0  0  0
  -30.4730  -21.1887   18.7718 H   0  0  0  0  0  0
  -30.6112  -20.1496   21.0149 H   0  0  0  0  0  0
  -29.1597  -19.9267   21.9427 H   0  0  0  0  0  0
  -29.3722  -19.6195   17.1180 H   0  0  0  0  0  0
  -27.9734  -19.4778   18.1530 H   0  0  0  0  0  0
  -28.3144  -18.2029   20.3831 H   0  0  0  0  0  0
  -29.3053  -24.4943   22.6331 H   0  0  0  0  0  0
  -29.1103  -26.2325   22.5126 H   0  0  0  0  0  0
  -30.3373  -25.4218   21.5451 H   0  0  0  0  0  0
  -31.2550  -17.3733   20.8189 H   0  0  0  0  0  0
  -30.0858  -17.3680   22.0885 H   0  0  0  0  0  0
  -27.6688  -23.5646   19.4208 H   0  0  0  0  0  0
  -29.3394  -23.9863   19.2424 H   0  0  0  0  0  0
  -28.4494  -22.4137   21.7180 H   0  0  0  0  0  0
  -30.0563  -22.5811   21.0886 H   0  0  0  0  0  0
  -27.3283  -25.0489   21.2761 H   0  0  0  0  0  0
  -28.8485  -15.5592   20.9135 H   0  0  0  0  0  0
  -30.7091  -18.6104   18.7696 H   0  0  0  0  0  0
  -29.4475  -17.6423   18.4304 H   0  0  0  0  0  0
  1 25  1  0  0  0
  1 30  2  0  0  0
  1 81  1  0  0  0
  2  3  1  0  0  0
  2 25  1  0  0  0
  2 83  1  0  0  0
  2 84  1  0  0  0
  3  4  1  0  0  0
  3 85  1  0  0  0
  3 86  1  0  0  0
  4  5  1  0  0  0
  4 87  1  0  0  0
  4 88  1  0  0  0
  5  6  1  0  0  0
  5 26  1  0  0  0
  5 89  1  0  0  0
  6 25  1  0  0  0
  6 90  1  0  0  0
  6 91  1  0  0  0
  7  8  2  0  0  0
  7 26  1  0  0  0
  7 29  1  0  0  0
  8  9  1  0  0  0
  8 22  1  0  0  0
  9 10  1  0  0  0
  9 27  2  0  0  0
 10 11  2  0  0  0
 10 15  1  0  0  0
 11 12  1  0  0  0
 11 92  1  0  0  0
 12 13  2  0  0  0
 12 93  1  0  0  0
 13 14  1  0  0  0
 13 31  1  0  0  0
 14 15  2  0  0  0
 14 94  1  0  0  0
 15 95  1  0  0  0
 16 17  2  0  0  0
 16 21  1  0  0  0
 16 31  1  0  0  0
 17 18  1  0  0  0
 17 96  1  0  0  0
 18 19  2  0  0  0
 18 97  1  0  0  0
 19 20  1  0  0  0
 19 24  1  0  0  0
 20 21  2  0  0  0
 20 98  1  0  0  0
 21 23  1  0  0  0
 22 28  1  0  0  0
 22 32  2  0  0  0
 26 27  1  0  0  0
 28 99  1  0  0  0
 28100  1  0  0  0
 29101  1  0  0  0
 29102  1  0  0  0
 33 34  1  0  0  0
 33 66  1  0  0  0
 33 70  2  0  0  0
 34 36  1  0  0  0
 34 59  1  0  0  0
 34103  1  0  0  0
 35 44  2  0  0  0
 35 45  1  0  0  0
 35 68  1  0  0  0
 36 56  1  0  0  0
 36104  1  0  0  0
 37 39  1  0  0  0
 37 47  1  0  0  0
 37 66  1  0  0  0
 37105  1  0  0  0
 38 43  2  0  0  0
 38 46  1  0  0  0
 38 47  1  0  0  0
 39 64  1  0  0  0
 39 67  2  0  0  0
 40 52  1  0  0  0
 40 53  2  0  0  0
 40 58  1  0  0  0
 41106  1  0  0  0
 41107  1  0  0  0
 41108  1  0  0  0
 41 48  1  0  0  0
 42 43  1  0  0  0
 42 66  1  0  0  0
 42109  1  0  0  0
 42110  1  0  0  0
 43 44  1  0  0  0
 44111  1  0  0  0
 45 46  2  0  0  0
 45112  1  0  0  0
 46113  1  0  0  0
 47114  1  0  0  0
 47115  1  0  0  0
 48 56  1  0  0  0
 48 65  1  0  0  0
 48116  1  0  0  0
 49 50  1  0  0  0
 49 53  1  0  0  0
 49 64  1  0  0  0
 49117  1  0  0  0
 50 51  1  0  0  0
 50118  1  0  0  0
 50119  1  0  0  0
 51 52  1  0  0  0
 51120  1  0  0  0
 51121  1  0  0  0
 52122  1  0  0  0
 52123  1  0  0  0
 53 54  1  0  0  0
 54 55  2  0  0  0
 54124  1  0  0  0
 55 57  1  0  0  0
 55125  1  0  0  0
 56 69  2  0  0  0
 57 58  2  0  0  0
 57126  1  0  0  0
 58127  1  0  0  0
 59 60  1  0  0  0
 59 61  1  0  0  0
 59 62  1  0  0  0
 60128  1  0  0  0
 60129  1  0  0  0
 60130  1  0  0  0
 61131  1  0  0  0
 61132  1  0  0  0
 61133  1  0  0  0
 62134  1  0  0  0
 62135  1  0  0  0
 62136  1  0  0  0
 63 65  1  0  0  0
 63137  1  0  0  0
 63138  1  0  0  0
 63139  1  0  0  0
 64140  1  0  0  0
 65141  1  0  0  0
 68 79  1  0  0  0
 71 73  1  0  0  0
 71 80  1  0  0  0
 71142  1  0  0  0
 71143  1  0  0  0
 72 74  1  0  0  0
 72 80  1  0  0  0
 72144  1  0  0  0
 72145  1  0  0  0
 73 82  1  0  0  0
 73146  1  0  0  0
 73147  1  0  0  0
 74 76  1  0  0  0
 74 82  1  0  0  0
 74148  1  0  0  0
 75149  1  0  0  0
 75150  1  0  0  0
 75151  1  0  0  0
 75 79  1  0  0  0
 76 81  1  0  0  0
 76152  1  0  0  0
 76153  1  0  0  0
 77 78  1  0  0  0
 77 79  1  0  0  0
 77154  1  0  0  0
 77155  1  0  0  0
 78 80  1  0  0  0
 78156  1  0  0  0
 78157  1  0  0  0
 79158  1  0  0  0
 81159  1  0  0  0
 82160  1  0  0  0
 82161  1  0  0  0
M  CHG  1  82   1
M  ISO  4   1 100  68 101  79 101  81 100
M  END
> <chiral flag>
0

> <version>
0

> <s_m_source_file>
/data/baiqing/PycharmProjects/Reinvent-master-3.2/result/LINK_invent/BTK/process_docking_weight1_custom_sum_contain_oxygen_bond_distance_aromatic_linkinvent_7_9_3/rearranged_h_0119.sdf

> <i_m_source_file_index>
67

> <r_mmod_Potential_Energy-OPLS-2005>
-35.319709777832

> <r_mmod_Stretch_Energy-OPLS-2005>
106.11939239502

> <r_mmod_Bend_Energy-OPLS-2005>
156.578369140625

> <r_mmod_Torsional_Energy-OPLS-2005>
271.431182861328

> <r_mmod_Improper_Torsional_Energy-OPLS-2005>
4.62428903579712

> <r_mmod_Van_der_Waal_Energy-OPLS-2005>
121.800300598145

> <r_mmod_Electrostatic_Energy-OPLS-2005>
-280.071136474609

> <r_mmod_Solvation_Energy-OPLS-2005>
-476.677947998047

> <b_mmod_Minimization_Converged-OPLS-2005>
0

> <r_mmod_RMS_Derivative-OPLS-2005>
0.493734657764435

$$$$
67
                    3D
 Structure written by MMmdl.
163171  0  0  1  0            999 V2000
  -30.6833  -14.4540   20.5602 C   0  0  0  0  0  0
  -30.4504  -12.2931   19.4001 C   0  0  0  0  0  0
  -29.5066  -12.5055   18.2009 C   0  0  0  0  0  0
  -28.0291  -12.3868   18.6212 C   0  0  0  0  0  0
  -27.6853  -13.1922   19.8997 C   0  0  2  0  0  0
  -28.7448  -12.9262   20.9952 C   0  0  0  0  0  0
  -25.2749  -13.8104   20.5783 C   0  0  0  0  0  0
  -24.1975  -13.0420   20.9211 C   0  0  0  0  0  0
  -24.6479  -11.6869   20.8744 C   0  0  0  0  0  0
  -23.9050  -10.4290   21.0383 C   0  0  0  0  0  0
  -24.3533   -9.4215   21.9183 C   0  0  0  0  0  0
  -23.6251   -8.2228   22.0723 C   0  0  0  0  0  0
  -22.4270   -8.0223   21.3493 C   0  0  0  0  0  0
  -21.9890   -9.0199   20.4635 C   0  0  0  0  0  0
  -22.7182  -10.2112   20.3068 C   0  0  0  0  0  0
  -21.6849   -6.0718   22.5252 C   0  0  0  0  0  0
  -21.4040   -6.5638   23.8198 C   0  0  0  0  0  0
  -21.3665   -5.6793   24.9153 C   0  0  0  0  0  0
  -21.6018   -4.3061   24.7216 C   0  0  0  0  0  0
  -21.8818   -3.8141   23.4360 C   0  0  0  0  0  0
  -21.9202   -4.6942   22.3398 C   0  0  0  0  0  0
  -22.7963  -13.5218   21.1810 C   0  0  0  0  0  0
  -22.1650   -4.2134   21.0969 F   0  0  0  0  0  0
  -21.5618   -3.4528   25.7735 F   0  0  0  0  0  0
  -30.0568  -13.2577   20.4339 N   0  0  0  0  0  0
  -26.3251  -12.9266   20.3667 N   0  0  0  0  0  0
  -25.9449  -11.6452   20.5849 N   0  0  0  0  0  0
  -22.0536  -12.8236   22.0353 N   0  0  0  0  0  0
  -25.4455  -15.1843   20.4165 N   0  0  0  0  0  0
  -31.7924  -14.6912   20.0710 O   0  0  0  0  0  0
  -21.6630   -6.8831   21.4223 O   0  0  0  0  0  0
  -22.3686  -14.5494   20.6606 O   0  0  0  0  0  0
  -24.6072  -31.8690   23.2230 C   0  0  0  0  0  0
  -25.9025  -32.4811   23.8488 C   0  0  1  0  0  0
  -27.2111  -27.4599   20.0438 C   0  0  0  0  0  0
  -25.5975  -33.8656   24.2427 N   0  0  0  0  0  0
  -23.3903  -30.4979   21.5605 C   0  0  2  0  0  0
  -24.8324  -28.9789   20.1094 C   0  0  0  0  0  0
  -22.7290  -29.4714   22.5074 C   0  0  0  0  0  0
  -18.0260  -28.1452   22.8418 C   0  0  0  0  0  0
  -24.1482  -36.7302   23.2638 C   0  0  0  0  0  0
  -25.9220  -30.8319   21.3810 C   0  0  0  0  0  0
  -25.9939  -29.4745   20.7122 C   0  0  0  0  0  0
  -27.1888  -28.7185   20.6855 C   0  0  0  0  0  0
  -26.0416  -26.9940   19.4116 C   0  0  0  0  0  0
  -24.8505  -27.7341   19.4570 C   0  0  0  0  0  0
  -23.5948  -29.8407   20.1721 C   0  0  0  0  0  0
  -25.4109  -36.3125   24.0341 C   0  0  1  0  0  0
  -20.5815  -28.3636   23.1328 C   0  0  2  0  0  0
  -20.6723  -26.9392   22.5427 C   0  0  0  0  0  0
  -19.5835  -26.6753   21.5044 C   0  0  0  0  0  0
  -18.1958  -26.8123   22.1362 C   0  0  0  0  0  0
  -19.1442  -28.8851   23.2971 C   0  0  0  0  0  0
  -18.9283  -30.1371   23.9171 C   0  0  0  0  0  0
  -17.6282  -30.6414   24.0813 C   0  0  0  0  0  0
  -25.9048  -34.9471   23.5147 C   0  0  0  0  0  0
  -16.5175  -29.9030   23.6251 C   0  0  0  0  0  0
  -16.7196  -28.6584   23.0075 C   0  0  0  0  0  0
  -26.4493  -31.6605   25.0813 C   0  0  0  0  0  0
  -25.3802  -31.3683   26.1594 C   0  0  0  0  0  0
  -27.0320  -30.3048   24.6188 C   0  0  0  0  0  0
  -27.6052  -32.4347   25.7581 C   0  0  0  0  0  0
  -27.5580  -37.1821   24.8469 C   0  0  0  0  0  0
  -21.4056  -29.2922   22.3602 N   0  0  0  0  0  0
  -26.4303  -37.3797   23.9390 N   0  0  0  0  0  0
  -24.6538  -31.0825   22.1068 N   0  0  0  0  0  0
  -23.3962  -28.8411   23.3325 O   0  0  0  0  0  0
  -28.3518  -26.6957   19.9905 O   0  0  0  0  0  0
  -26.5538  -34.8908   22.4684 O   0  0  0  0  0  0
  -23.5276  -32.1513   23.7644 O   0  0  0  0  0  0
  -28.5611  -19.9612   20.0629 C   0  0  0  0  0  0
  -27.4175  -22.1168   19.1012 C   0  0  0  0  0  0
  -26.7614  -18.9198   21.0662 C   0  0  0  0  0  0
  -27.4839  -21.0537   20.2280 C   0  0  1  0  0  0
  -26.2086  -20.2231   20.4645 C   0  0  2  0  0  0
  -25.1284  -20.9214   21.3207 C   0  0  0  0  0  0
  -28.1929  -23.4272   19.3091 C   0  0  0  0  0  0
  -27.5802  -24.2957   20.4386 C   0  0  0  0  0  0
  -28.9918  -17.7748   21.2412 C   0  0  0  0  0  0
  -29.6048  -16.6731   20.3165 C   0  0  0  0  0  0
  -28.3530  -25.5723   20.8800 C   0  0  0  0  0  0
  -26.6812  -21.9910   18.0798 N   0  0  0  0  0  0
  -28.1415  -18.7997   20.6021 N   0  0  0  0  0  0
  -29.9192  -15.4456   21.0637 N   0  0  0  0  0  0
  -29.6932  -20.1746   19.6190 O   0  0  0  0  0  0
  -31.4823  -12.4627   19.0983 H   0  0  0  0  0  0
  -30.3751  -11.2646   19.7684 H   0  0  0  0  0  0
  -29.7148  -11.7772   17.4208 H   0  0  0  0  0  0
  -29.6732  -13.4893   17.7489 H   0  0  0  0  0  0
  -27.8284  -11.3308   18.7911 H   0  0  0  0  0  0
  -27.3763  -12.6912   17.8027 H   0  0  0  0  0  0
  -27.7277  -14.2424   19.6106 H   0  0  0  0  0  0
  -28.7714  -11.8760   21.3007 H   0  0  0  0  0  0
  -28.5450  -13.5000   21.8963 H   0  0  0  0  0  0
  -25.2641   -9.5736   22.4797 H   0  0  0  0  0  0
  -23.9949   -7.4665   22.7473 H   0  0  0  0  0  0
  -21.0805   -8.8708   19.8988 H   0  0  0  0  0  0
  -22.3565  -10.9626   19.6204 H   0  0  0  0  0  0
  -21.2046   -7.6143   23.9694 H   0  0  0  0  0  0
  -21.1495   -6.0526   25.9058 H   0  0  0  0  0  0
  -22.0601   -2.7602   23.2851 H   0  0  0  0  0  0
  -22.3995  -11.9888   22.4894 H   0  0  0  0  0  0
  -21.1140  -13.1361   22.2353 H   0  0  0  0  0  0
  -24.6731  -15.8264   20.5377 H   0  0  0  0  0  0
  -26.3131  -15.6430   20.1724 H   0  0  0  0  0  0
  -26.7097  -32.5500   23.1248 H   0  0  0  0  0  0
  -25.0177  -33.9836   25.0600 H   0  0  0  0  0  0
  -22.6730  -31.3103   21.4312 H   0  0  0  0  0  0
  -23.3746  -35.9634   23.3294 H   0  0  0  0  0  0
  -24.3561  -36.8914   22.2051 H   0  0  0  0  0  0
  -23.7239  -37.6518   23.6628 H   0  0  0  0  0  0
  -26.0487  -31.6105   20.6294 H   0  0  0  0  0  0
  -26.8023  -30.8747   22.0096 H   0  0  0  0  0  0
  -28.0899  -29.0985   21.1460 H   0  0  0  0  0  0
  -26.0555  -26.0715   18.8510 H   0  0  0  0  0  0
  -23.9601  -27.3727   18.9613 H   0  0  0  0  0  0
  -23.6921  -30.6184   19.4141 H   0  0  0  0  0  0
  -22.7218  -29.2542   19.8828 H   0  0  0  0  0  0
  -25.1279  -36.1988   25.0831 H   0  0  0  0  0  0
  -20.9887  -28.3274   24.1473 H   0  0  0  0  0  0
  -20.5436  -26.2205   23.3572 H   0  0  0  0  0  0
  -21.6658  -26.7288   22.1309 H   0  0  0  0  0  0
  -19.6853  -27.3847   20.6797 H   0  0  0  0  0  0
  -19.7086  -25.6856   21.0788 H   0  0  0  0  0  0
  -17.4302  -26.6976   21.3654 H   0  0  0  0  0  0
  -18.0317  -26.0097   22.8607 H   0  0  0  0  0  0
  -19.7688  -30.7106   24.2875 H   0  0  0  0  0  0
  -17.4668  -31.5855   24.5795 H   0  0  0  0  0  0
  -15.5163  -30.2861   23.7567 H   0  0  0  0  0  0
  -15.8610  -28.1102   22.6533 H   0  0  0  0  0  0
  -24.5985  -30.7002   25.7969 H   0  0  0  0  0  0
  -24.8991  -32.2818   26.5093 H   0  0  0  0  0  0
  -25.8249  -30.8849   27.0302 H   0  0  0  0  0  0
  -26.2865  -29.6848   24.1198 H   0  0  0  0  0  0
  -27.4021  -29.7273   25.4661 H   0  0  0  0  0  0
  -27.8727  -30.4363   23.9385 H   0  0  0  0  0  0
  -27.2645  -33.3630   26.2184 H   0  0  0  0  0  0
  -28.3860  -32.6955   25.0427 H   0  0  0  0  0  0
  -28.0711  -31.8462   26.5492 H   0  0  0  0  0  0
  -28.2608  -38.0113   24.7498 H   0  0  0  0  0  0
  -28.1077  -36.2638   24.6312 H   0  0  0  0  0  0
  -27.2272  -37.1483   25.8875 H   0  0  0  0  0  0
  -20.9436  -29.7920   21.6149 H   0  0  0  0  0  0
  -26.0177  -38.2861   24.1443 H   0  0  0  0  0  0
  -26.7455  -18.9631   22.1578 H   0  0  0  0  0  0
  -26.1796  -18.0475   20.7681 H   0  0  0  0  0  0
  -27.7299  -21.5440   21.1648 H   0  0  0  0  0  0
  -25.7643  -19.9456   19.5121 H   0  0  0  0  0  0
  -25.4940  -21.1397   22.3269 H   0  0  0  0  0  0
  -24.2355  -20.3006   21.4102 H   0  0  0  0  0  0
  -24.8318  -21.8717   20.8732 H   0  0  0  0  0  0
  -28.1672  -23.9955   18.3753 H   0  0  0  0  0  0
  -29.2542  -23.2271   19.4845 H   0  0  0  0  0  0
  -27.5046  -23.6847   21.3359 H   0  0  0  0  0  0
  -26.5471  -24.5286   20.1888 H   0  0  0  0  0  0
  -29.7714  -18.2512   21.8331 H   0  0  0  0  0  0
  -28.3372  -17.3018   21.9743 H   0  0  0  0  0  0
  -30.5155  -17.0379   19.8371 H   0  0  0  0  0  0
  -28.9232  -16.3931   19.5093 H   0  0  0  0  0  0
  -29.3886  -25.3148   21.1045 H   0  0  0  0  0  0
  -27.9207  -25.9094   21.8244 H   0  0  0  0  0  0
  -26.1625  -21.1175   18.1085 H   0  0  0  0  0  0
  -30.1357  -15.6069   22.0401 H   0  0  0  0  0  0
  1 25  1  0  0  0
  1 30  2  0  0  0
  1 84  1  0  0  0
  2  3  1  0  0  0
  2 25  1  0  0  0
  2 86  1  0  0  0
  2 87  1  0  0  0
  3  4  1  0  0  0
  3 88  1  0  0  0
  3 89  1  0  0  0
  4  5  1  0  0  0
  4 90  1  0  0  0
  4 91  1  0  0  0
  5  6  1  0  0  0
  5 26  1  0  0  0
  5 92  1  0  0  0
  6 25  1  0  0  0
  6 93  1  0  0  0
  6 94  1  0  0  0
  7  8  2  0  0  0
  7 26  1  0  0  0
  7 29  1  0  0  0
  8  9  1  0  0  0
  8 22  1  0  0  0
  9 10  1  0  0  0
  9 27  2  0  0  0
 10 11  2  0  0  0
 10 15  1  0  0  0
 11 12  1  0  0  0
 11 95  1  0  0  0
 12 13  2  0  0  0
 12 96  1  0  0  0
 13 14  1  0  0  0
 13 31  1  0  0  0
 14 15  2  0  0  0
 14 97  1  0  0  0
 15 98  1  0  0  0
 16 17  2  0  0  0
 16 21  1  0  0  0
 16 31  1  0  0  0
 17 18  1  0  0  0
 17 99  1  0  0  0
 18 19  2  0  0  0
 18100  1  0  0  0
 19 20  1  0  0  0
 19 24  1  0  0  0
 20 21  2  0  0  0
 20101  1  0  0  0
 21 23  1  0  0  0
 22 28  1  0  0  0
 22 32  2  0  0  0
 26 27  1  0  0  0
 28102  1  0  0  0
 28103  1  0  0  0
 29104  1  0  0  0
 29105  1  0  0  0
 33 34  1  0  0  0
 33 66  1  0  0  0
 33 70  2  0  0  0
 34 36  1  0  0  0
 34 59  1  0  0  0
 34106  1  0  0  0
 35 44  2  0  0  0
 35 45  1  0  0  0
 35 68  1  0  0  0
 36 56  1  0  0  0
 36107  1  0  0  0
 37 39  1  0  0  0
 37 47  1  0  0  0
 37 66  1  0  0  0
 37108  1  0  0  0
 38 43  2  0  0  0
 38 46  1  0  0  0
 38 47  1  0  0  0
 39 64  1  0  0  0
 39 67  2  0  0  0
 40 52  1  0  0  0
 40 53  2  0  0  0
 40 58  1  0  0  0
 41109  1  0  0  0
 41110  1  0  0  0
 41111  1  0  0  0
 41 48  1  0  0  0
 42 43  1  0  0  0
 42 66  1  0  0  0
 42112  1  0  0  0
 42113  1  0  0  0
 43 44  1  0  0  0
 44114  1  0  0  0
 45 46  2  0  0  0
 45115  1  0  0  0
 46116  1  0  0  0
 47117  1  0  0  0
 47118  1  0  0  0
 48 56  1  0  0  0
 48 65  1  0  0  0
 48119  1  0  0  0
 49 50  1  0  0  0
 49 53  1  0  0  0
 49 64  1  0  0  0
 49120  1  0  0  0
 50 51  1  0  0  0
 50121  1  0  0  0
 50122  1  0  0  0
 51 52  1  0  0  0
 51123  1  0  0  0
 51124  1  0  0  0
 52125  1  0  0  0
 52126  1  0  0  0
 53 54  1  0  0  0
 54 55  2  0  0  0
 54127  1  0  0  0
 55 57  1  0  0  0
 55128  1  0  0  0
 56 69  2  0  0  0
 57 58  2  0  0  0
 57129  1  0  0  0
 58130  1  0  0  0
 59 60  1  0  0  0
 59 61  1  0  0  0
 59 62  1  0  0  0
 60131  1  0  0  0
 60132  1  0  0  0
 60133  1  0  0  0
 61134  1  0  0  0
 61135  1  0  0  0
 61136  1  0  0  0
 62137  1  0  0  0
 62138  1  0  0  0
 62139  1  0  0  0
 63 65  1  0  0  0
 63140  1  0  0  0
 63141  1  0  0  0
 63142  1  0  0  0
 64143  1  0  0  0
 65144  1  0  0  0
 68 81  1  0  0  0
 71 74  1  0  0  0
 71 83  1  0  0  0
 71 85  2  0  0  0
 72 77  1  0  0  0
 72 82  2  0  0  0
 72 74  1  0  0  0
 73 75  1  0  0  0
 73 83  1  0  0  0
 73145  1  0  0  0
 73146  1  0  0  0
 74 75  1  0  0  0
 74147  1  0  0  0
 75 76  1  0  0  0
 75148  1  0  0  0
 76149  1  0  0  0
 76150  1  0  0  0
 76151  1  0  0  0
 77 78  1  0  0  0
 77152  1  0  0  0
 77153  1  0  0  0
 78 81  1  0  0  0
 78154  1  0  0  0
 78155  1  0  0  0
 79 80  1  0  0  0
 79 83  1  0  0  0
 79156  1  0  0  0
 79157  1  0  0  0
 80 84  1  0  0  0
 80158  1  0  0  0
 80159  1  0  0  0
 81160  1  0  0  0
 81161  1  0  0  0
 82162  1  0  0  0
 84163  1  0  0  0
M  ISO  4   1 100  68 101  81 101  84 100
M  END
> <chiral flag>
0

> <version>
0

> <s_m_source_file>
/data/baiqing/PycharmProjects/Reinvent-master-3.2/result/LINK_invent/BTK/process_docking_weight1_custom_sum_contain_oxygen_bond_distance_aromatic_linkinvent_7_9_3/rearranged_h_0119.sdf

> <i_m_source_file_index>
68

> <r_mmod_Potential_Energy-OPLS-2005>
85.2824249267578

> <r_mmod_Stretch_Energy-OPLS-2005>
39.192569732666

> <r_mmod_Bend_Energy-OPLS-2005>
141.599990844727

> <r_mmod_Torsional_Energy-OPLS-2005>
334.952026367188

> <r_mmod_Improper_Torsional_Energy-OPLS-2005>
12.3175926208496

> <r_mmod_Van_der_Waal_Energy-OPLS-2005>
127.760292053223

> <r_mmod_Electrostatic_Energy-OPLS-2005>
-342.8603515625

> <r_mmod_Solvation_Energy-OPLS-2005>
-242.9814453125

> <b_mmod_Minimization_Converged-OPLS-2005>
0

> <r_mmod_RMS_Derivative-OPLS-2005>
13.2181129455566

$$$$
68
                    3D
 Structure written by MMmdl.
167175  0  0  1  0            999 V2000
  -30.7468  -14.4377   20.6202 C   0  0  0  0  0  0
  -30.4165  -12.3069   19.4132 C   0  0  0  0  0  0
  -29.4922  -12.5168   18.1990 C   0  0  0  0  0  0
  -28.0128  -12.3761   18.6067 C   0  0  0  0  0  0
  -27.6590  -13.2092   19.8673 C   0  0  2  0  0  0
  -28.7009  -12.9925   20.9880 C   0  0  0  0  0  0
  -25.2587  -13.8143   20.5680 C   0  0  0  0  0  0
  -24.1843  -13.0430   20.9191 C   0  0  0  0  0  0
  -24.6389  -11.6893   20.8725 C   0  0  0  0  0  0
  -23.9041  -10.4289   21.0395 C   0  0  0  0  0  0
  -24.3596   -9.4207   21.9174 C   0  0  0  0  0  0
  -23.6277   -8.2240   22.0756 C   0  0  0  0  0  0
  -22.4258   -8.0275   21.3551 C   0  0  0  0  0  0
  -21.9893   -9.0238   20.4646 C   0  0  0  0  0  0
  -22.7212  -10.2121   20.3052 C   0  0  0  0  0  0
  -21.6853   -6.0718   22.5283 C   0  0  0  0  0  0
  -21.4012   -6.5627   23.8212 C   0  0  0  0  0  0
  -21.3665   -5.6785   24.9175 C   0  0  0  0  0  0
  -21.6044   -4.3047   24.7233 C   0  0  0  0  0  0
  -21.8816   -3.8136   23.4353 C   0  0  0  0  0  0
  -21.9191   -4.6947   22.3402 C   0  0  0  0  0  0
  -22.7866  -13.5243   21.1819 C   0  0  0  0  0  0
  -22.1661   -4.2132   21.0980 F   0  0  0  0  0  0
  -21.5627   -3.4529   25.7741 F   0  0  0  0  0  0
  -30.0353  -13.2902   20.4387 N   0  0  0  0  0  0
  -26.3012  -12.9323   20.3319 N   0  0  0  0  0  0
  -25.9316  -11.6477   20.5729 N   0  0  0  0  0  0
  -22.0476  -12.8267   22.0371 N   0  0  0  0  0  0
  -25.4318  -15.1853   20.4084 N   0  0  0  0  0  0
  -31.8443  -14.6193   20.0821 O   0  0  0  0  0  0
  -21.6640   -6.8862   21.4243 O   0  0  0  0  0  0
  -22.3568  -14.5535   20.6626 O   0  0  0  0  0  0
  -24.6135  -31.8697   23.2124 C   0  0  0  0  0  0
  -25.9039  -32.4826   23.8417 C   0  0  1  0  0  0
  -27.2231  -27.4526   20.0859 C   0  0  0  0  0  0
  -25.5912  -33.8637   24.2353 N   0  0  0  0  0  0
  -23.3995  -30.4948   21.5522 C   0  0  2  0  0  0
  -24.8436  -28.9655   20.1132 C   0  0  0  0  0  0
  -22.7406  -29.4680   22.5008 C   0  0  0  0  0  0
  -18.0280  -28.1370   22.8493 C   0  0  0  0  0  0
  -24.1484  -36.7319   23.2635 C   0  0  0  0  0  0
  -25.9279  -30.8398   21.3639 C   0  0  0  0  0  0
  -26.0033  -29.4771   20.7085 C   0  0  0  0  0  0
  -27.2009  -28.7275   20.6896 C   0  0  0  0  0  0
  -26.0499  -26.9542   19.4823 C   0  0  0  0  0  0
  -24.8604  -27.7036   19.4958 C   0  0  0  0  0  0
  -23.6056  -29.8298   20.1654 C   0  0  0  0  0  0
  -25.4106  -36.3116   24.0339 C   0  0  1  0  0  0
  -20.5863  -28.3686   23.1327 C   0  0  2  0  0  0
  -20.6788  -26.9427   22.5421 C   0  0  0  0  0  0
  -19.5768  -26.6366   21.5227 C   0  0  0  0  0  0
  -18.1942  -26.7910   22.1633 C   0  0  0  0  0  0
  -19.1514  -28.8846   23.2902 C   0  0  0  0  0  0
  -18.9434  -30.1464   23.8898 C   0  0  0  0  0  0
  -17.6428  -30.6588   24.0550 C   0  0  0  0  0  0
  -25.9041  -34.9485   23.5140 C   0  0  0  0  0  0
  -16.5330  -29.9079   23.6319 C   0  0  0  0  0  0
  -16.7265  -28.6499   23.0340 C   0  0  0  0  0  0
  -26.4489  -31.6590   25.0726 C   0  0  0  0  0  0
  -25.3765  -31.3672   26.1471 C   0  0  0  0  0  0
  -27.0320  -30.3041   24.6077 C   0  0  0  0  0  0
  -27.6077  -32.4302   25.7478 C   0  0  0  0  0  0
  -27.5585  -37.1812   24.8468 C   0  0  0  0  0  0
  -21.4140  -29.3052   22.3741 N   0  0  0  0  0  0
  -26.4297  -37.3793   23.9410 N   0  0  0  0  0  0
  -24.6651  -31.0817   22.1015 N   0  0  0  0  0  0
  -23.4180  -28.8218   23.3043 O   0  0  0  0  0  0
  -28.3712  -26.6967   20.0903 O   0  0  0  0  0  0
  -26.5587  -34.8919   22.4688 O   0  0  0  0  0  0
  -23.5329  -32.1452   23.7527 O   0  0  0  0  0  0
  -30.4291  -18.8552   22.7192 C   0  0  0  0  0  0
  -31.7148  -18.7743   23.2654 C   0  0  0  0  0  0
  -29.9091  -17.7726   21.9743 C   0  0  0  0  0  0
  -32.4393  -17.5920   23.0876 C   0  0  0  0  0  0
  -30.6892  -16.5786   21.8911 C   0  0  0  0  0  0
  -33.8510  -17.4668   23.6202 C   0  0  0  0  0  0
  -26.6080  -22.9339   21.7347 C   0  0  0  0  0  0
  -28.5353  -17.9223   21.2926 C   0  0  0  0  0  0
  -28.1062  -24.2131   20.1066 C   0  0  0  0  0  0
  -28.3818  -19.1435   20.3433 C   0  0  0  0  0  0
  -28.1432  -21.6359   20.1714 C   0  0  0  0  0  0
  -28.2893  -25.5244   20.9110 C   0  0  0  0  0  0
  -27.9606  -22.9430   20.9889 C   0  0  2  0  0  0
  -31.9270  -16.5236   22.4444 N   0  0  0  0  0  0
  -30.1168  -15.4159   21.2998 N   0  0  0  0  0  0
  -28.2606  -20.4437   21.0465 N   0  3  0  0  0  0
  -31.4610  -12.3920   19.1104 H   0  0  0  0  0  0
  -30.3098  -11.2963   19.8085 H   0  0  0  0  0  0
  -29.7298  -11.7983   17.4134 H   0  0  0  0  0  0
  -29.6657  -13.5064   17.7738 H   0  0  0  0  0  0
  -27.8175  -11.3199   18.7897 H   0  0  0  0  0  0
  -27.3656  -12.6612   17.7759 H   0  0  0  0  0  0
  -27.7017  -14.2561   19.5681 H   0  0  0  0  0  0
  -28.6747  -11.9576   21.3315 H   0  0  0  0  0  0
  -28.4568  -13.5950   21.8634 H   0  0  0  0  0  0
  -25.2742   -9.5692   22.4741 H   0  0  0  0  0  0
  -23.9995   -7.4645   22.7487 H   0  0  0  0  0  0
  -21.0825   -8.8737   19.8960 H   0  0  0  0  0  0
  -22.3660  -10.9647   19.6163 H   0  0  0  0  0  0
  -21.2003   -7.6138   23.9702 H   0  0  0  0  0  0
  -21.1505   -6.0526   25.9075 H   0  0  0  0  0  0
  -22.0596   -2.7600   23.2862 H   0  0  0  0  0  0
  -22.4078  -11.9946   22.4801 H   0  0  0  0  0  0
  -21.1081  -13.1302   22.2496 H   0  0  0  0  0  0
  -24.6540  -15.8311   20.4961 H   0  0  0  0  0  0
  -26.2572  -15.6101   20.0081 H   0  0  0  0  0  0
  -26.7108  -32.5544   23.1186 H   0  0  0  0  0  0
  -25.0070  -33.9808   25.0497 H   0  0  0  0  0  0
  -22.6865  -31.3101   21.4154 H   0  0  0  0  0  0
  -23.3743  -35.9655   23.3302 H   0  0  0  0  0  0
  -24.3572  -36.8916   22.2044 H   0  0  0  0  0  0
  -23.7236  -37.6531   23.6639 H   0  0  0  0  0  0
  -26.0383  -31.6062   20.5963 H   0  0  0  0  0  0
  -26.8177  -30.8913   21.9799 H   0  0  0  0  0  0
  -28.0987  -29.1171   21.1477 H   0  0  0  0  0  0
  -26.0454  -25.9951   18.9898 H   0  0  0  0  0  0
  -23.9705  -27.3074   19.0275 H   0  0  0  0  0  0
  -23.7145  -30.6039   19.4050 H   0  0  0  0  0  0
  -22.7323  -29.2450   19.8718 H   0  0  0  0  0  0
  -25.1281  -36.1992   25.0834 H   0  0  0  0  0  0
  -20.9931  -28.3274   24.1458 H   0  0  0  0  0  0
  -20.5710  -26.2289   23.3597 H   0  0  0  0  0  0
  -21.6674  -26.7498   22.1228 H   0  0  0  0  0  0
  -19.6964  -25.6266   21.1282 H   0  0  0  0  0  0
  -19.6680  -27.3139   20.6725 H   0  0  0  0  0  0
  -17.4218  -26.6649   21.4029 H   0  0  0  0  0  0
  -18.0358  -26.0040   22.9024 H   0  0  0  0  0  0
  -19.7897  -30.7298   24.2260 H   0  0  0  0  0  0
  -17.4980  -31.6280   24.5122 H   0  0  0  0  0  0
  -15.5338  -30.2977   23.7630 H   0  0  0  0  0  0
  -15.8678  -28.0819   22.7035 H   0  0  0  0  0  0
  -24.5950  -30.7011   25.7797 H   0  0  0  0  0  0
  -24.8950  -32.2822   26.4946 H   0  0  0  0  0  0
  -25.8128  -30.8826   27.0212 H   0  0  0  0  0  0
  -26.2855  -29.6796   24.1161 H   0  0  0  0  0  0
  -27.4135  -29.7284   25.4519 H   0  0  0  0  0  0
  -27.8668  -30.4377   23.9189 H   0  0  0  0  0  0
  -27.2718  -33.3591   26.2105 H   0  0  0  0  0  0
  -28.3864  -32.6877   25.0284 H   0  0  0  0  0  0
  -28.0775  -31.8393   26.5349 H   0  0  0  0  0  0
  -28.2619  -38.0097   24.7523 H   0  0  0  0  0  0
  -28.1068  -36.2637   24.6297 H   0  0  0  0  0  0
  -27.2306  -37.1465   25.8870 H   0  0  0  0  0  0
  -20.9313  -29.8805   21.6987 H   0  0  0  0  0  0
  -26.0189  -38.2872   24.1407 H   0  0  0  0  0  0
  -29.8714  -19.7644   22.8704 H   0  0  0  0  0  0
  -32.1411  -19.6124   23.8014 H   0  0  0  0  0  0
  -33.9012  -17.7824   24.6624 H   0  0  0  0  0  0
  -34.5305  -18.0920   23.0402 H   0  0  0  0  0  0
  -34.2100  -16.4399   23.5612 H   0  0  0  0  0  0
  -26.5031  -23.7934   22.3964 H   0  0  0  0  0  0
  -26.4934  -22.0473   22.3589 H   0  0  0  0  0  0
  -25.7677  -22.9546   21.0391 H   0  0  0  0  0  0
  -27.7632  -17.9444   22.0625 H   0  0  0  0  0  0
  -28.3170  -17.0386   20.6951 H   0  0  0  0  0  0
  -28.9679  -24.1020   19.4467 H   0  0  0  0  0  0
  -27.2430  -24.2817   19.4483 H   0  0  0  0  0  0
  -27.4790  -19.0084   19.7446 H   0  0  0  0  0  0
  -29.2158  -19.1729   19.6406 H   0  0  0  0  0  0
  -29.0472  -21.7038   19.5638 H   0  0  0  0  0  0
  -27.3137  -21.5057   19.4748 H   0  0  0  0  0  0
  -29.2157  -25.4620   21.4805 H   0  0  0  0  0  0
  -27.5013  -25.6366   21.6585 H   0  0  0  0  0  0
  -28.7610  -22.9768   21.7305 H   0  0  0  0  0  0
  -29.1447  -15.2524   21.5008 H   0  0  0  0  0  0
  -29.0733  -20.5651   21.6273 H   0  0  0  0  0  0
  -27.4514  -20.4072   21.6475 H   0  0  0  0  0  0
  1 25  1  0  0  0
  1 30  2  0  0  0
  1 85  1  0  0  0
  2  3  1  0  0  0
  2 25  1  0  0  0
  2 87  1  0  0  0
  2 88  1  0  0  0
  3  4  1  0  0  0
  3 89  1  0  0  0
  3 90  1  0  0  0
  4  5  1  0  0  0
  4 91  1  0  0  0
  4 92  1  0  0  0
  5  6  1  0  0  0
  5 26  1  0  0  0
  5 93  1  0  0  0
  6 25  1  0  0  0
  6 94  1  0  0  0
  6 95  1  0  0  0
  7  8  2  0  0  0
  7 26  1  0  0  0
  7 29  1  0  0  0
  8  9  1  0  0  0
  8 22  1  0  0  0
  9 10  1  0  0  0
  9 27  2  0  0  0
 10 11  2  0  0  0
 10 15  1  0  0  0
 11 12  1  0  0  0
 11 96  1  0  0  0
 12 13  2  0  0  0
 12 97  1  0  0  0
 13 14  1  0  0  0
 13 31  1  0  0  0
 14 15  2  0  0  0
 14 98  1  0  0  0
 15 99  1  0  0  0
 16 17  2  0  0  0
 16 21  1  0  0  0
 16 31  1  0  0  0
 17 18  1  0  0  0
 17100  1  0  0  0
 18 19  2  0  0  0
 18101  1  0  0  0
 19 20  1  0  0  0
 19 24  1  0  0  0
 20 21  2  0  0  0
 20102  1  0  0  0
 21 23  1  0  0  0
 22 28  1  0  0  0
 22 32  2  0  0  0
 26 27  1  0  0  0
 28103  1  0  0  0
 28104  1  0  0  0
 29105  1  0  0  0
 29106  1  0  0  0
 33 34  1  0  0  0
 33 66  1  0  0  0
 33 70  2  0  0  0
 34 36  1  0  0  0
 34 59  1  0  0  0
 34107  1  0  0  0
 35 44  2  0  0  0
 35 45  1  0  0  0
 35 68  1  0  0  0
 36 56  1  0  0  0
 36108  1  0  0  0
 37 39  1  0  0  0
 37 47  1  0  0  0
 37 66  1  0  0  0
 37109  1  0  0  0
 38 43  2  0  0  0
 38 46  1  0  0  0
 38 47  1  0  0  0
 39 64  1  0  0  0
 39 67  2  0  0  0
 40 52  1  0  0  0
 40 53  2  0  0  0
 40 58  1  0  0  0
 41110  1  0  0  0
 41111  1  0  0  0
 41112  1  0  0  0
 41 48  1  0  0  0
 42 43  1  0  0  0
 42 66  1  0  0  0
 42113  1  0  0  0
 42114  1  0  0  0
 43 44  1  0  0  0
 44115  1  0  0  0
 45 46  2  0  0  0
 45116  1  0  0  0
 46117  1  0  0  0
 47118  1  0  0  0
 47119  1  0  0  0
 48 56  1  0  0  0
 48 65  1  0  0  0
 48120  1  0  0  0
 49 50  1  0  0  0
 49 53  1  0  0  0
 49 64  1  0  0  0
 49121  1  0  0  0
 50 51  1  0  0  0
 50122  1  0  0  0
 50123  1  0  0  0
 51 52  1  0  0  0
 51124  1  0  0  0
 51125  1  0  0  0
 52126  1  0  0  0
 52127  1  0  0  0
 53 54  1  0  0  0
 54 55  2  0  0  0
 54128  1  0  0  0
 55 57  1  0  0  0
 55129  1  0  0  0
 56 69  2  0  0  0
 57 58  2  0  0  0
 57130  1  0  0  0
 58131  1  0  0  0
 59 60  1  0  0  0
 59 61  1  0  0  0
 59 62  1  0  0  0
 60132  1  0  0  0
 60133  1  0  0  0
 60134  1  0  0  0
 61135  1  0  0  0
 61136  1  0  0  0
 61137  1  0  0  0
 62138  1  0  0  0
 62139  1  0  0  0
 62140  1  0  0  0
 63 65  1  0  0  0
 63141  1  0  0  0
 63142  1  0  0  0
 63143  1  0  0  0
 64144  1  0  0  0
 65145  1  0  0  0
 68 82  1  0  0  0
 71 72  2  0  0  0
 71 73  1  0  0  0
 71146  1  0  0  0
 72 74  1  0  0  0
 72147  1  0  0  0
 73 75  2  0  0  0
 73 78  1  0  0  0
 74 76  1  0  0  0
 74 84  2  0  0  0
 75 84  1  0  0  0
 75 85  1  0  0  0
 76148  1  0  0  0
 76149  1  0  0  0
 76150  1  0  0  0
 77151  1  0  0  0
 77152  1  0  0  0
 77153  1  0  0  0
 77 83  1  0  0  0
 78 80  1  0  0  0
 78154  1  0  0  0
 78155  1  0  0  0
 79 82  1  0  0  0
 79 83  1  0  0  0
 79156  1  0  0  0
 79157  1  0  0  0
 80 86  1  0  0  0
 80158  1  0  0  0
 80159  1  0  0  0
 81 83  1  0  0  0
 81 86  1  0  0  0
 81160  1  0  0  0
 81161  1  0  0  0
 82162  1  0  0  0
 82163  1  0  0  0
 83164  1  0  0  0
 85165  1  0  0  0
 86166  1  0  0  0
 86167  1  0  0  0
M  CHG  1  86   1
M  ISO  4   1 100  68 101  82 101  85 100
M  END
> <chiral flag>
0

> <version>
0

> <s_m_source_file>
/data/baiqing/PycharmProjects/Reinvent-master-3.2/result/LINK_invent/BTK/process_docking_weight1_custom_sum_contain_oxygen_bond_distance_aromatic_linkinvent_7_9_3/rearranged_h_0119.sdf

> <i_m_source_file_index>
69

> <r_mmod_Potential_Energy-OPLS-2005>
-368.369201660156

> <r_mmod_Stretch_Energy-OPLS-2005>
38.0676651000977

> <r_mmod_Bend_Energy-OPLS-2005>
96.1281280517578

> <r_mmod_Torsional_Energy-OPLS-2005>
253.973648071289

> <r_mmod_Improper_Torsional_Energy-OPLS-2005>
3.68290686607361

> <r_mmod_Van_der_Waal_Energy-OPLS-2005>
155.408401489258

> <r_mmod_Electrostatic_Energy-OPLS-2005>
-421.714385986328

> <r_mmod_Solvation_Energy-OPLS-2005>
-504.44140625

> <b_mmod_Minimization_Converged-OPLS-2005>
0

> <r_mmod_RMS_Derivative-OPLS-2005>
2.52324533462524

$$$$
69
                    3D
 Structure written by MMmdl.
163171  0  0  1  0            999 V2000
  -30.7701  -14.3784   20.6768 C   0  0  0  0  0  0
  -30.4179  -12.2971   19.3989 C   0  0  0  0  0  0
  -29.4846  -12.5193   18.1946 C   0  0  0  0  0  0
  -28.0096  -12.3774   18.6130 C   0  0  0  0  0  0
  -27.6662  -13.2049   19.8795 C   0  0  2  0  0  0
  -28.7049  -12.9592   20.9959 C   0  0  0  0  0  0
  -25.2603  -13.8164   20.5676 C   0  0  0  0  0  0
  -24.1848  -13.0444   20.9171 C   0  0  0  0  0  0
  -24.6395  -11.6911   20.8731 C   0  0  0  0  0  0
  -23.9063  -10.4297   21.0402 C   0  0  0  0  0  0
  -24.3614   -9.4210   21.9184 C   0  0  0  0  0  0
  -23.6288   -8.2244   22.0753 C   0  0  0  0  0  0
  -22.4271   -8.0283   21.3543 C   0  0  0  0  0  0
  -21.9910   -9.0257   20.4642 C   0  0  0  0  0  0
  -22.7238  -10.2136   20.3051 C   0  0  0  0  0  0
  -21.6855   -6.0735   22.5279 C   0  0  0  0  0  0
  -21.4013   -6.5640   23.8210 C   0  0  0  0  0  0
  -21.3653   -5.6795   24.9173 C   0  0  0  0  0  0
  -21.6046   -4.3054   24.7228 C   0  0  0  0  0  0
  -21.8820   -3.8146   23.4346 C   0  0  0  0  0  0
  -21.9191   -4.6965   22.3403 C   0  0  0  0  0  0
  -22.7866  -13.5240   21.1834 C   0  0  0  0  0  0
  -22.1662   -4.2153   21.0979 F   0  0  0  0  0  0
  -21.5628   -3.4539   25.7739 F   0  0  0  0  0  0
  -30.0462  -13.2500   20.4558 N   0  0  0  0  0  0
  -26.3044  -12.9335   20.3384 N   0  0  0  0  0  0
  -25.9325  -11.6493   20.5761 N   0  0  0  0  0  0
  -22.0501  -12.8234   22.0388 N   0  0  0  0  0  0
  -25.4339  -15.1882   20.4077 N   0  0  0  0  0  0
  -31.7985  -14.6540   20.0516 O   0  0  0  0  0  0
  -21.6635   -6.8879   21.4240 O   0  0  0  0  0  0
  -22.3554  -14.5548   20.6688 O   0  0  0  0  0  0
  -24.6107  -31.8701   23.2117 C   0  0  0  0  0  0
  -25.9020  -32.4831   23.8402 C   0  0  1  0  0  0
  -27.2409  -27.4613   20.0980 C   0  0  0  0  0  0
  -25.5899  -33.8629   24.2337 N   0  0  0  0  0  0
  -23.3979  -30.4906   21.5510 C   0  0  2  0  0  0
  -24.8480  -28.9597   20.1152 C   0  0  0  0  0  0
  -22.7389  -29.4657   22.5009 C   0  0  0  0  0  0
  -18.0269  -28.1369   22.8485 C   0  0  0  0  0  0
  -24.1487  -36.7313   23.2635 C   0  0  0  0  0  0
  -25.9226  -30.8422   21.3633 C   0  0  0  0  0  0
  -26.0026  -29.4767   20.7170 C   0  0  0  0  0  0
  -27.2015  -28.7334   20.7130 C   0  0  0  0  0  0
  -26.0782  -26.9593   19.4804 C   0  0  0  0  0  0
  -24.8788  -27.6964   19.4970 C   0  0  0  0  0  0
  -23.6060  -29.8204   20.1658 C   0  0  0  0  0  0
  -25.4109  -36.3117   24.0339 C   0  0  1  0  0  0
  -20.5854  -28.3654   23.1332 C   0  0  2  0  0  0
  -20.6756  -26.9390   22.5435 C   0  0  0  0  0  0
  -19.5756  -26.6386   21.5206 C   0  0  0  0  0  0
  -18.1918  -26.7929   22.1593 C   0  0  0  0  0  0
  -19.1516  -28.8829   23.2904 C   0  0  0  0  0  0
  -18.9451  -30.1431   23.8919 C   0  0  0  0  0  0
  -17.6458  -30.6578   24.0566 C   0  0  0  0  0  0
  -25.9037  -34.9481   23.5133 C   0  0  0  0  0  0
  -16.5352  -29.9086   23.6318 C   0  0  0  0  0  0
  -16.7263  -28.6503   23.0348 C   0  0  0  0  0  0
  -26.4462  -31.6602   25.0714 C   0  0  0  0  0  0
  -25.3725  -31.3708   26.1457 C   0  0  0  0  0  0
  -27.0291  -30.3049   24.6065 C   0  0  0  0  0  0
  -27.6044  -32.4318   25.7481 C   0  0  0  0  0  0
  -27.5592  -37.1798   24.8455 C   0  0  0  0  0  0
  -21.4126  -29.3017   22.3739 N   0  0  0  0  0  0
  -26.4296  -37.3798   23.9413 N   0  0  0  0  0  0
  -24.6610  -31.0823   22.1004 N   0  0  0  0  0  0
  -23.4160  -28.8215   23.3064 O   0  0  0  0  0  0
  -28.3820  -26.6956   20.0542 O   0  0  0  0  0  0
  -26.5586  -34.8935   22.4687 O   0  0  0  0  0  0
  -23.5306  -32.1453   23.7519 O   0  0  0  0  0  0
  -27.5464  -24.3224   21.6123 C   0  0  0  0  0  0
  -29.9187  -24.0664   20.8202 C   0  0  0  0  0  0
  -27.5348  -22.8557   22.0811 C   0  0  0  0  0  0
  -29.9375  -22.6055   21.3195 C   0  0  0  0  0  0
  -28.9636  -24.9258   21.6679 C   0  0  1  0  0  0
  -28.5329  -21.9623   21.3098 C   0  0  1  0  0  0
  -29.0015  -26.4321   21.3149 C   0  0  0  0  0  0
  -28.5334  -20.5379   21.9099 C   0  0  0  0  0  0
  -30.7881  -17.6483   21.4358 C   0  0  0  0  0  0
  -31.0467  -16.3300   22.2014 C   0  0  0  0  0  0
  -29.4932  -18.3710   21.8395 C   0  0  0  0  0  0
  -30.3266  -15.1719   21.6622 N   0  0  0  0  0  0
  -29.4806  -19.6828   21.2761 O   0  0  0  0  0  0
  -31.4597  -12.3995   19.0895 H   0  0  0  0  0  0
  -30.3230  -11.2766   19.7736 H   0  0  0  0  0  0
  -29.7174  -11.8057   17.4031 H   0  0  0  0  0  0
  -29.6546  -13.5109   17.7722 H   0  0  0  0  0  0
  -27.8164  -11.3203   18.7991 H   0  0  0  0  0  0
  -27.3569  -12.6647   17.7882 H   0  0  0  0  0  0
  -27.7211  -14.2576   19.6011 H   0  0  0  0  0  0
  -28.6697  -11.9184   21.3215 H   0  0  0  0  0  0
  -28.4530  -13.5450   21.8798 H   0  0  0  0  0  0
  -25.2758   -9.5690   22.4762 H   0  0  0  0  0  0
  -24.0001   -7.4640   22.7476 H   0  0  0  0  0  0
  -21.0844   -8.8775   19.8948 H   0  0  0  0  0  0
  -22.3696  -10.9678   19.6159 H   0  0  0  0  0  0
  -21.2005   -7.6147   23.9716 H   0  0  0  0  0  0
  -21.1475   -6.0521   25.9077 H   0  0  0  0  0  0
  -22.0604   -2.7611   23.2847 H   0  0  0  0  0  0
  -22.4101  -11.9885   22.4771 H   0  0  0  0  0  0
  -21.1116  -13.1260   22.2578 H   0  0  0  0  0  0
  -24.6721  -15.8488   20.5152 H   0  0  0  0  0  0
  -26.2944  -15.6230   20.0984 H   0  0  0  0  0  0
  -26.7097  -32.5559   23.1176 H   0  0  0  0  0  0
  -25.0076  -33.9798   25.0499 H   0  0  0  0  0  0
  -22.6840  -31.3048   21.4104 H   0  0  0  0  0  0
  -23.3758  -35.9632   23.3291 H   0  0  0  0  0  0
  -24.3590  -36.8934   22.2052 H   0  0  0  0  0  0
  -23.7224  -37.6508   23.6661 H   0  0  0  0  0  0
  -26.0275  -31.6051   20.5908 H   0  0  0  0  0  0
  -26.8126  -30.9008   21.9774 H   0  0  0  0  0  0
  -28.0926  -29.1374   21.1733 H   0  0  0  0  0  0
  -26.1017  -25.9921   18.9977 H   0  0  0  0  0  0
  -23.9931  -27.2916   19.0268 H   0  0  0  0  0  0
  -23.7068  -30.5946   19.4038 H   0  0  0  0  0  0
  -22.7332  -29.2333   19.8750 H   0  0  0  0  0  0
  -25.1275  -36.1999   25.0829 H   0  0  0  0  0  0
  -20.9934  -28.3233   24.1462 H   0  0  0  0  0  0
  -20.5650  -26.2256   23.3617 H   0  0  0  0  0  0
  -21.6632  -26.7429   22.1238 H   0  0  0  0  0  0
  -19.6916  -25.6302   21.1224 H   0  0  0  0  0  0
  -19.6729  -27.3203   20.6744 H   0  0  0  0  0  0
  -17.4205  -26.6709   21.3973 H   0  0  0  0  0  0
  -18.0292  -26.0047   22.8961 H   0  0  0  0  0  0
  -19.7927  -30.7227   24.2321 H   0  0  0  0  0  0
  -17.5017  -31.6259   24.5165 H   0  0  0  0  0  0
  -15.5357  -30.2997   23.7632 H   0  0  0  0  0  0
  -15.8657  -28.0832   22.7066 H   0  0  0  0  0  0
  -24.5978  -30.6941   25.7829 H   0  0  0  0  0  0
  -24.8803  -32.2847   26.4798 H   0  0  0  0  0  0
  -25.8081  -30.9010   27.0281 H   0  0  0  0  0  0
  -26.2828  -29.6829   24.1096 H   0  0  0  0  0  0
  -27.4054  -29.7269   25.4516 H   0  0  0  0  0  0
  -27.8668  -30.4382   23.9208 H   0  0  0  0  0  0
  -27.2667  -33.3608   26.2091 H   0  0  0  0  0  0
  -28.3839  -32.6888   25.0296 H   0  0  0  0  0  0
  -28.0722  -31.8415   26.5369 H   0  0  0  0  0  0
  -28.2588  -38.0113   24.7531 H   0  0  0  0  0  0
  -28.1103  -36.2648   24.6235 H   0  0  0  0  0  0
  -27.2314  -37.1407   25.8855 H   0  0  0  0  0  0
  -20.9293  -29.8739   21.6958 H   0  0  0  0  0  0
  -26.0193  -38.2870   24.1446 H   0  0  0  0  0  0
  -26.8690  -24.9088   22.2348 H   0  0  0  0  0  0
  -27.1578  -24.3792   20.5950 H   0  0  0  0  0  0
  -29.6159  -24.1011   19.7728 H   0  0  0  0  0  0
  -30.9275  -24.4782   20.8631 H   0  0  0  0  0  0
  -26.5268  -22.4515   21.9841 H   0  0  0  0  0  0
  -27.7697  -22.8277   23.1463 H   0  0  0  0  0  0
  -30.3472  -22.5733   22.3298 H   0  0  0  0  0  0
  -30.6171  -22.0185   20.6995 H   0  0  0  0  0  0
  -29.3102  -24.8549   22.7010 H   0  0  0  0  0  0
  -28.2010  -21.8929   20.2722 H   0  0  0  0  0  0
  -30.0332  -26.7834   21.2733 H   0  0  0  0  0  0
  -28.5344  -26.9854   22.1317 H   0  0  0  0  0  0
  -27.5373  -20.1009   21.8203 H   0  0  0  0  0  0
  -28.7602  -20.5982   22.9755 H   0  0  0  0  0  0
  -30.8161  -17.4841   20.3582 H   0  0  0  0  0  0
  -31.6197  -18.3209   21.6513 H   0  0  0  0  0  0
  -30.7876  -16.4485   23.2542 H   0  0  0  0  0  0
  -32.1177  -16.1178   22.1925 H   0  0  0  0  0  0
  -29.4505  -18.4284   22.9289 H   0  0  0  0  0  0
  -28.6160  -17.8110   21.5118 H   0  0  0  0  0  0
  -29.4900  -14.8736   22.1424 H   0  0  0  0  0  0
  1 25  1  0  0  0
  1 30  2  0  0  0
  1 82  1  0  0  0
  2  3  1  0  0  0
  2 25  1  0  0  0
  2 84  1  0  0  0
  2 85  1  0  0  0
  3  4  1  0  0  0
  3 86  1  0  0  0
  3 87  1  0  0  0
  4  5  1  0  0  0
  4 88  1  0  0  0
  4 89  1  0  0  0
  5  6  1  0  0  0
  5 26  1  0  0  0
  5 90  1  0  0  0
  6 25  1  0  0  0
  6 91  1  0  0  0
  6 92  1  0  0  0
  7  8  2  0  0  0
  7 26  1  0  0  0
  7 29  1  0  0  0
  8  9  1  0  0  0
  8 22  1  0  0  0
  9 10  1  0  0  0
  9 27  2  0  0  0
 10 11  2  0  0  0
 10 15  1  0  0  0
 11 12  1  0  0  0
 11 93  1  0  0  0
 12 13  2  0  0  0
 12 94  1  0  0  0
 13 14  1  0  0  0
 13 31  1  0  0  0
 14 15  2  0  0  0
 14 95  1  0  0  0
 15 96  1  0  0  0
 16 17  2  0  0  0
 16 21  1  0  0  0
 16 31  1  0  0  0
 17 18  1  0  0  0
 17 97  1  0  0  0
 18 19  2  0  0  0
 18 98  1  0  0  0
 19 20  1  0  0  0
 19 24  1  0  0  0
 20 21  2  0  0  0
 20 99  1  0  0  0
 21 23  1  0  0  0
 22 28  1  0  0  0
 22 32  2  0  0  0
 26 27  1  0  0  0
 28100  1  0  0  0
 28101  1  0  0  0
 29102  1  0  0  0
 29103  1  0  0  0
 33 34  1  0  0  0
 33 66  1  0  0  0
 33 70  2  0  0  0
 34 36  1  0  0  0
 34 59  1  0  0  0
 34104  1  0  0  0
 35 44  2  0  0  0
 35 45  1  0  0  0
 35 68  1  0  0  0
 36 56  1  0  0  0
 36105  1  0  0  0
 37 39  1  0  0  0
 37 47  1  0  0  0
 37 66  1  0  0  0
 37106  1  0  0  0
 38 43  2  0  0  0
 38 46  1  0  0  0
 38 47  1  0  0  0
 39 64  1  0  0  0
 39 67  2  0  0  0
 40 52  1  0  0  0
 40 53  2  0  0  0
 40 58  1  0  0  0
 41107  1  0  0  0
 41108  1  0  0  0
 41109  1  0  0  0
 41 48  1  0  0  0
 42 43  1  0  0  0
 42 66  1  0  0  0
 42110  1  0  0  0
 42111  1  0  0  0
 43 44  1  0  0  0
 44112  1  0  0  0
 45 46  2  0  0  0
 45113  1  0  0  0
 46114  1  0  0  0
 47115  1  0  0  0
 47116  1  0  0  0
 48 56  1  0  0  0
 48 65  1  0  0  0
 48117  1  0  0  0
 49 50  1  0  0  0
 49 53  1  0  0  0
 49 64  1  0  0  0
 49118  1  0  0  0
 50 51  1  0  0  0
 50119  1  0  0  0
 50120  1  0  0  0
 51 52  1  0  0  0
 51121  1  0  0  0
 51122  1  0  0  0
 52123  1  0  0  0
 52124  1  0  0  0
 53 54  1  0  0  0
 54 55  2  0  0  0
 54125  1  0  0  0
 55 57  1  0  0  0
 55126  1  0  0  0
 56 69  2  0  0  0
 57 58  2  0  0  0
 57127  1  0  0  0
 58128  1  0  0  0
 59 60  1  0  0  0
 59 61  1  0  0  0
 59 62  1  0  0  0
 60129  1  0  0  0
 60130  1  0  0  0
 60131  1  0  0  0
 61132  1  0  0  0
 61133  1  0  0  0
 61134  1  0  0  0
 62135  1  0  0  0
 62136  1  0  0  0
 62137  1  0  0  0
 63 65  1  0  0  0
 63138  1  0  0  0
 63139  1  0  0  0
 63140  1  0  0  0
 64141  1  0  0  0
 65142  1  0  0  0
 68 77  1  0  0  0
 71 73  1  0  0  0
 71 75  1  0  0  0
 71143  1  0  0  0
 71144  1  0  0  0
 72 74  1  0  0  0
 72 75  1  0  0  0
 72145  1  0  0  0
 72146  1  0  0  0
 73 76  1  0  0  0
 73147  1  0  0  0
 73148  1  0  0  0
 74 76  1  0  0  0
 74149  1  0  0  0
 74150  1  0  0  0
 75 77  1  0  0  0
 75151  1  0  0  0
 76 78  1  0  0  0
 76152  1  0  0  0
 77153  1  0  0  0
 77154  1  0  0  0
 78 83  1  0  0  0
 78155  1  0  0  0
 78156  1  0  0  0
 79 80  1  0  0  0
 79 81  1  0  0  0
 79157  1  0  0  0
 79158  1  0  0  0
 80 82  1  0  0  0
 80159  1  0  0  0
 80160  1  0  0  0
 81 83  1  0  0  0
 81161  1  0  0  0
 81162  1  0  0  0
 82163  1  0  0  0
M  ISO  4   1 100  68 101  77 101  82 100
M  END
> <chiral flag>
0

> <version>
0

> <s_m_source_file>
/data/baiqing/PycharmProjects/Reinvent-master-3.2/result/LINK_invent/BTK/process_docking_weight1_custom_sum_contain_oxygen_bond_distance_aromatic_linkinvent_7_9_3/rearranged_h_0119.sdf

> <i_m_source_file_index>
70

> <r_mmod_Potential_Energy-OPLS-2005>
-41.0552864074707

> <r_mmod_Stretch_Energy-OPLS-2005>
32.6810188293457

> <r_mmod_Bend_Energy-OPLS-2005>
92.7813034057617

> <r_mmod_Torsional_Energy-OPLS-2005>
241.286041259766

> <r_mmod_Improper_Torsional_Energy-OPLS-2005>
1.92527270317078

> <r_mmod_Van_der_Waal_Energy-OPLS-2005>
134.760589599609

> <r_mmod_Electrostatic_Energy-OPLS-2005>
-345.964111328125

> <r_mmod_Solvation_Energy-OPLS-2005>
-205.326293945312

> <b_mmod_Minimization_Converged-OPLS-2005>
0

> <r_mmod_RMS_Derivative-OPLS-2005>
1.17518293857574

$$$$
70
                    3D
 Structure written by MMmdl.
170178  0  0  1  0            999 V2000
  -30.6293  -14.6980   20.4843 C   0  0  0  0  0  0
  -30.4331  -12.4250   19.4797 C   0  0  0  0  0  0
  -29.5156  -12.5058   18.2399 C   0  0  0  0  0  0
  -28.0433  -12.3189   18.6561 C   0  0  0  0  0  0
  -27.6433  -13.2261   19.8500 C   0  0  2  0  0  0
  -28.6828  -13.1496   20.9919 C   0  0  0  0  0  0
  -25.2503  -13.8195   20.5674 C   0  0  0  0  0  0
  -24.1778  -13.0456   20.9181 C   0  0  0  0  0  0
  -24.6356  -11.6922   20.8689 C   0  0  0  0  0  0
  -23.9047  -10.4290   21.0357 C   0  0  0  0  0  0
  -24.3602   -9.4219   21.9131 C   0  0  0  0  0  0
  -23.6288   -8.2253   22.0725 C   0  0  0  0  0  0
  -22.4257   -8.0260   21.3561 C   0  0  0  0  0  0
  -21.9873   -9.0229   20.4651 C   0  0  0  0  0  0
  -22.7208  -10.2108   20.3028 C   0  0  0  0  0  0
  -21.6862   -6.0719   22.5278 C   0  0  0  0  0  0
  -21.4051   -6.5625   23.8216 C   0  0  0  0  0  0
  -21.3650   -5.6784   24.9168 C   0  0  0  0  0  0
  -21.6027   -4.3030   24.7223 C   0  0  0  0  0  0
  -21.8826   -3.8131   23.4339 C   0  0  0  0  0  0
  -21.9202   -4.6960   22.3402 C   0  0  0  0  0  0
  -22.7810  -13.5234   21.1859 C   0  0  0  0  0  0
  -22.1675   -4.2144   21.0978 F   0  0  0  0  0  0
  -21.5605   -3.4512   25.7734 F   0  0  0  0  0  0
  -29.9942  -13.4810   20.4188 N   0  0  0  0  0  0
  -26.2932  -12.9393   20.3262 N   0  0  0  0  0  0
  -25.9277  -11.6553   20.5689 N   0  0  0  0  0  0
  -22.0484  -12.8210   22.0424 N   0  0  0  0  0  0
  -25.4213  -15.1906   20.4130 N   0  0  0  0  0  0
  -31.8051  -14.8103   20.1360 O   0  0  0  0  0  0
  -21.6646   -6.8839   21.4229 O   0  0  0  0  0  0
  -22.3491  -14.5542   20.6712 O   0  0  0  0  0  0
  -24.6267  -31.8619   23.2040 C   0  0  0  0  0  0
  -25.9101  -32.4807   23.8379 C   0  0  1  0  0  0
  -27.2213  -27.3068   20.1256 C   0  0  0  0  0  0
  -25.5916  -33.8608   24.2294 N   0  0  0  0  0  0
  -23.4232  -30.4829   21.5479 C   0  0  2  0  0  0
  -24.8723  -28.9478   20.1083 C   0  0  0  0  0  0
  -22.7509  -29.4621   22.4973 C   0  0  0  0  0  0
  -18.0297  -28.1419   22.8477 C   0  0  0  0  0  0
  -24.1480  -36.7278   23.2639 C   0  0  0  0  0  0
  -25.9661  -30.7910   21.3807 C   0  0  0  0  0  0
  -26.0397  -29.4186   20.7189 C   0  0  0  0  0  0
  -27.2164  -28.6071   20.7215 C   0  0  0  0  0  0
  -26.0348  -26.9118   19.4601 C   0  0  0  0  0  0
  -24.8741  -27.7013   19.4671 C   0  0  0  0  0  0
  -23.6397  -29.8238   20.1614 C   0  0  0  0  0  0
  -25.4112  -36.3097   24.0341 C   0  0  1  0  0  0
  -20.5891  -28.3713   23.1309 C   0  0  2  0  0  0
  -20.6797  -26.9443   22.5422 C   0  0  0  0  0  0
  -19.5768  -26.6413   21.5227 C   0  0  0  0  0  0
  -18.1945  -26.7966   22.1621 C   0  0  0  0  0  0
  -19.1544  -28.8885   23.2886 C   0  0  0  0  0  0
  -18.9463  -30.1490   23.8908 C   0  0  0  0  0  0
  -17.6461  -30.6611   24.0569 C   0  0  0  0  0  0
  -25.9052  -34.9475   23.5116 C   0  0  0  0  0  0
  -16.5357  -29.9109   23.6332 C   0  0  0  0  0  0
  -16.7289  -28.6528   23.0342 C   0  0  0  0  0  0
  -26.4485  -31.6626   25.0757 C   0  0  0  0  0  0
  -25.3710  -31.3749   26.1480 C   0  0  0  0  0  0
  -27.0328  -30.3059   24.6209 C   0  0  0  0  0  0
  -27.6079  -32.4362   25.7481 C   0  0  0  0  0  0
  -27.5587  -37.1789   24.8468 C   0  0  0  0  0  0
  -21.4220  -29.3033   22.3692 N   0  0  0  0  0  0
  -26.4292  -37.3795   23.9424 N   0  0  0  0  0  0
  -24.6902  -31.0619   22.1007 N   0  0  0  0  0  0
  -23.4224  -28.8181   23.3083 O   0  0  0  0  0  0
  -28.3233  -26.4336   20.2233 O   0  0  0  0  0  0
  -26.5614  -34.8931   22.4682 O   0  0  0  0  0  0
  -23.5424  -32.1432   23.7346 O   0  0  0  0  0  0
  -29.0551  -17.9480   18.5530 C   0  0  0  0  0  0
  -30.4502  -19.8638   18.6612 C   0  0  0  0  0  0
  -29.2313  -18.3434   20.0344 C   0  0  1  0  0  0
  -30.6749  -21.2420   21.4859 C   0  0  0  0  0  0
  -31.7102  -19.2764   16.0357 C   0  0  0  0  0  0
  -30.2436  -17.2373   15.8376 C   0  0  0  0  0  0
  -30.2517  -17.2962   20.7158 C   0  0  0  0  0  0
  -29.0153  -23.8370   20.5852 C   0  0  0  0  0  0
  -28.9013  -22.3708   19.9329 C   0  0  0  0  0  0
  -28.1357  -24.9883   19.9113 C   0  0  0  0  0  0
  -29.3854  -21.0225   20.6848 C   0  0  1  0  0  0
  -30.8998  -18.2221   16.8302 C   0  0  0  0  0  0
  -29.5654  -19.8021   19.8141 N   0  0  0  0  0  0
  -29.8625  -15.8163   20.7467 N   0  0  0  0  0  0
  -29.8949  -18.8612   17.7326 N   0  3  1  0  0  0
  -31.4804  -12.5347   19.1942 H   0  0  0  0  0  0
  -30.3551  -11.4470   19.9562 H   0  0  0  0  0  0
  -29.8040  -11.7566   17.5031 H   0  0  0  0  0  0
  -29.6402  -13.4750   17.7533 H   0  0  0  0  0  0
  -27.9080  -11.2741   18.9409 H   0  0  0  0  0  0
  -27.3845  -12.4888   17.8033 H   0  0  0  0  0  0
  -27.6466  -14.2447   19.4635 H   0  0  0  0  0  0
  -28.6980  -12.1564   21.4434 H   0  0  0  0  0  0
  -28.4195  -13.8394   21.7948 H   0  0  0  0  0  0
  -25.2751   -9.5721   22.4695 H   0  0  0  0  0  0
  -24.0031   -7.4639   22.7423 H   0  0  0  0  0  0
  -21.0811   -8.8725   19.8956 H   0  0  0  0  0  0
  -22.3636  -10.9630   19.6122 H   0  0  0  0  0  0
  -21.2088   -7.6144   23.9724 H   0  0  0  0  0  0
  -21.1453   -6.0499   25.9072 H   0  0  0  0  0  0
  -22.0612   -2.7600   23.2831 H   0  0  0  0  0  0
  -22.4136  -11.9903   22.4835 H   0  0  0  0  0  0
  -21.1103  -13.1210   22.2674 H   0  0  0  0  0  0
  -24.6464  -15.8385   20.5008 H   0  0  0  0  0  0
  -26.2606  -15.6234   20.0520 H   0  0  0  0  0  0
  -26.7184  -32.5471   23.1146 H   0  0  0  0  0  0
  -25.0043  -33.9753   25.0423 H   0  0  0  0  0  0
  -22.7151  -31.3028   21.4064 H   0  0  0  0  0  0
  -23.3776  -35.9572   23.3294 H   0  0  0  0  0  0
  -24.3571  -36.8911   22.2055 H   0  0  0  0  0  0
  -23.7196  -37.6463   23.6667 H   0  0  0  0  0  0
  -26.1030  -31.5625   20.6209 H   0  0  0  0  0  0
  -26.8418  -30.8341   22.0167 H   0  0  0  0  0  0
  -28.1091  -28.9581   21.2190 H   0  0  0  0  0  0
  -25.9648  -25.9728   18.9328 H   0  0  0  0  0  0
  -23.9802  -27.3448   18.9730 H   0  0  0  0  0  0
  -23.7617  -30.6034   19.4082 H   0  0  0  0  0  0
  -22.7614  -29.2539   19.8534 H   0  0  0  0  0  0
  -25.1292  -36.1942   25.0836 H   0  0  0  0  0  0
  -20.9966  -28.3284   24.1441 H   0  0  0  0  0  0
  -20.5748  -26.2312   23.3611 H   0  0  0  0  0  0
  -21.6667  -26.7519   22.1188 H   0  0  0  0  0  0
  -19.6929  -25.6321   21.1267 H   0  0  0  0  0  0
  -19.6714  -27.3223   20.6757 H   0  0  0  0  0  0
  -17.4224  -26.6739   21.4012 H   0  0  0  0  0  0
  -18.0326  -26.0121   22.9024 H   0  0  0  0  0  0
  -19.7931  -30.7305   24.2304 H   0  0  0  0  0  0
  -17.5007  -31.6290   24.5179 H   0  0  0  0  0  0
  -15.5352  -30.3004   23.7664 H   0  0  0  0  0  0
  -15.8692  -28.0854   22.7052 H   0  0  0  0  0  0
  -24.5873  -30.7133   25.7768 H   0  0  0  0  0  0
  -24.8902  -32.2904   26.4942 H   0  0  0  0  0  0
  -25.8010  -30.8871   27.0240 H   0  0  0  0  0  0
  -26.2893  -29.6821   24.1234 H   0  0  0  0  0  0
  -27.4039  -29.7321   25.4712 H   0  0  0  0  0  0
  -27.8765  -30.4376   23.9433 H   0  0  0  0  0  0
  -27.2731  -33.3660   26.2099 H   0  0  0  0  0  0
  -28.3817  -32.6950   25.0237 H   0  0  0  0  0  0
  -28.0844  -31.8479   26.5338 H   0  0  0  0  0  0
  -28.2618  -38.0075   24.7543 H   0  0  0  0  0  0
  -28.1071  -36.2621   24.6253 H   0  0  0  0  0  0
  -27.2320  -37.1403   25.8874 H   0  0  0  0  0  0
  -20.9449  -29.8677   21.6800 H   0  0  0  0  0  0
  -26.0177  -38.2870   24.1442 H   0  0  0  0  0  0
  -28.0132  -18.0744   18.2605 H   0  0  0  0  0  0
  -29.2883  -16.8985   18.3923 H   0  0  0  0  0  0
  -31.4608  -19.5916   18.9690 H   0  0  0  0  0  0
  -30.5009  -20.8436   18.1860 H   0  0  0  0  0  0
  -28.2765  -18.2789   20.5549 H   0  0  0  0  0  0
  -30.5442  -22.0562   22.1997 H   0  0  0  0  0  0
  -31.5244  -21.4875   20.8473 H   0  0  0  0  0  0
  -30.9333  -20.3529   22.0621 H   0  0  0  0  0  0
  -32.4303  -18.7961   15.3707 H   0  0  0  0  0  0
  -32.2811  -19.9451   16.6825 H   0  0  0  0  0  0
  -31.0608  -19.8946   15.4143 H   0  0  0  0  0  0
  -30.9809  -16.8642   15.1263 H   0  0  0  0  0  0
  -29.4478  -17.7145   15.2657 H   0  0  0  0  0  0
  -29.8185  -16.3613   16.3286 H   0  0  0  0  0  0
  -30.4224  -17.6028   21.7482 H   0  0  0  0  0  0
  -31.2212  -17.3836   20.2227 H   0  0  0  0  0  0
  -30.0616  -24.1449   20.5708 H   0  0  0  0  0  0
  -28.7439  -23.7857   21.6401 H   0  0  0  0  0  0
  -29.3927  -22.4558   18.9661 H   0  0  0  0  0  0
  -27.8498  -22.2185   19.6881 H   0  0  0  0  0  0
  -27.1169  -24.6926   20.1599 H   0  0  0  0  0  0
  -28.2302  -24.8981   18.8289 H   0  0  0  0  0  0
  -28.6007  -20.7811   21.4036 H   0  0  0  0  0  0
  -31.5995  -17.6601   17.4514 H   0  0  0  0  0  0
  -28.9137  -15.6217   21.0295 H   0  0  0  0  0  0
  -29.2458  -19.3688   17.1491 H   0  0  0  0  0  0
  1 25  1  0  0  0
  1 30  2  0  0  0
  1 84  1  0  0  0
  2  3  1  0  0  0
  2 25  1  0  0  0
  2 86  1  0  0  0
  2 87  1  0  0  0
  3  4  1  0  0  0
  3 88  1  0  0  0
  3 89  1  0  0  0
  4  5  1  0  0  0
  4 90  1  0  0  0
  4 91  1  0  0  0
  5  6  1  0  0  0
  5 26  1  0  0  0
  5 92  1  0  0  0
  6 25  1  0  0  0
  6 93  1  0  0  0
  6 94  1  0  0  0
  7  8  2  0  0  0
  7 26  1  0  0  0
  7 29  1  0  0  0
  8  9  1  0  0  0
  8 22  1  0  0  0
  9 10  1  0  0  0
  9 27  2  0  0  0
 10 11  2  0  0  0
 10 15  1  0  0  0
 11 12  1  0  0  0
 11 95  1  0  0  0
 12 13  2  0  0  0
 12 96  1  0  0  0
 13 14  1  0  0  0
 13 31  1  0  0  0
 14 15  2  0  0  0
 14 97  1  0  0  0
 15 98  1  0  0  0
 16 17  2  0  0  0
 16 21  1  0  0  0
 16 31  1  0  0  0
 17 18  1  0  0  0
 17 99  1  0  0  0
 18 19  2  0  0  0
 18100  1  0  0  0
 19 20  1  0  0  0
 19 24  1  0  0  0
 20 21  2  0  0  0
 20101  1  0  0  0
 21 23  1  0  0  0
 22 28  1  0  0  0
 22 32  2  0  0  0
 26 27  1  0  0  0
 28102  1  0  0  0
 28103  1  0  0  0
 29104  1  0  0  0
 29105  1  0  0  0
 33 34  1  0  0  0
 33 66  1  0  0  0
 33 70  2  0  0  0
 34 36  1  0  0  0
 34 59  1  0  0  0
 34106  1  0  0  0
 35 44  2  0  0  0
 35 45  1  0  0  0
 35 68  1  0  0  0
 36 56  1  0  0  0
 36107  1  0  0  0
 37 39  1  0  0  0
 37 47  1  0  0  0
 37 66  1  0  0  0
 37108  1  0  0  0
 38 43  2  0  0  0
 38 46  1  0  0  0
 38 47  1  0  0  0
 39 64  1  0  0  0
 39 67  2  0  0  0
 40 52  1  0  0  0
 40 53  2  0  0  0
 40 58  1  0  0  0
 41109  1  0  0  0
 41110  1  0  0  0
 41111  1  0  0  0
 41 48  1  0  0  0
 42 43  1  0  0  0
 42 66  1  0  0  0
 42112  1  0  0  0
 42113  1  0  0  0
 43 44  1  0  0  0
 44114  1  0  0  0
 45 46  2  0  0  0
 45115  1  0  0  0
 46116  1  0  0  0
 47117  1  0  0  0
 47118  1  0  0  0
 48 56  1  0  0  0
 48 65  1  0  0  0
 48119  1  0  0  0
 49 50  1  0  0  0
 49 53  1  0  0  0
 49 64  1  0  0  0
 49120  1  0  0  0
 50 51  1  0  0  0
 50121  1  0  0  0
 50122  1  0  0  0
 51 52  1  0  0  0
 51123  1  0  0  0
 51124  1  0  0  0
 52125  1  0  0  0
 52126  1  0  0  0
 53 54  1  0  0  0
 54 55  2  0  0  0
 54127  1  0  0  0
 55 57  1  0  0  0
 55128  1  0  0  0
 56 69  2  0  0  0
 57 58  2  0  0  0
 57129  1  0  0  0
 58130  1  0  0  0
 59 60  1  0  0  0
 59 61  1  0  0  0
 59 62  1  0  0  0
 60131  1  0  0  0
 60132  1  0  0  0
 60133  1  0  0  0
 61134  1  0  0  0
 61135  1  0  0  0
 61136  1  0  0  0
 62137  1  0  0  0
 62138  1  0  0  0
 62139  1  0  0  0
 63 65  1  0  0  0
 63140  1  0  0  0
 63141  1  0  0  0
 63142  1  0  0  0
 64143  1  0  0  0
 65144  1  0  0  0
 68 80  1  0  0  0
 71 73  1  0  0  0
 71145  1  0  0  0
 71146  1  0  0  0
 71 85  1  0  0  0
 72 83  1  0  0  0
 72 85  1  0  0  0
 72147  1  0  0  0
 72148  1  0  0  0
 73 77  1  0  0  0
 73 83  1  0  0  0
 73149  1  0  0  0
 74150  1  0  0  0
 74151  1  0  0  0
 74152  1  0  0  0
 74 81  1  0  0  0
 75153  1  0  0  0
 75154  1  0  0  0
 75155  1  0  0  0
 75 82  1  0  0  0
 76 82  1  0  0  0
 76156  1  0  0  0
 76157  1  0  0  0
 76158  1  0  0  0
 77 84  1  0  0  0
 77159  1  0  0  0
 77160  1  0  0  0
 78 79  1  0  0  0
 78 80  1  0  0  0
 78161  1  0  0  0
 78162  1  0  0  0
 79 81  1  0  0  0
 79163  1  0  0  0
 79164  1  0  0  0
 80165  1  0  0  0
 80166  1  0  0  0
 81 83  1  0  0  0
 81167  1  0  0  0
 82 85  1  0  0  0
 82168  1  0  0  0
 84169  1  0  0  0
 85170  1  0  0  0
M  CHG  1  85   1
M  ISO  4   1 100  68 101  80 101  84 100
M  END
> <chiral flag>
0

> <version>
0

> <s_m_source_file>
/data/baiqing/PycharmProjects/Reinvent-master-3.2/result/LINK_invent/BTK/process_docking_weight1_custom_sum_contain_oxygen_bond_distance_aromatic_linkinvent_7_9_3/rearranged_h_0119.sdf

> <i_m_source_file_index>
71

> <r_mmod_Potential_Energy-OPLS-2005>
102.523368835449

> <r_mmod_Stretch_Energy-OPLS-2005>
105.935615539551

> <r_mmod_Bend_Energy-OPLS-2005>
228.906494140625

> <r_mmod_Torsional_Energy-OPLS-2005>
280.270568847656

> <r_mmod_Improper_Torsional_Energy-OPLS-2005>
4.64688873291016

> <r_mmod_Van_der_Waal_Energy-OPLS-2005>
121.00301361084

> <r_mmod_Electrostatic_Energy-OPLS-2005>
-282.128875732422

> <r_mmod_Solvation_Energy-OPLS-2005>
-423.401763916016

> <b_mmod_Minimization_Converged-OPLS-2005>
0

> <r_mmod_RMS_Derivative-OPLS-2005>
4.29611539840698

$$$$
71
                    3D
 Structure written by MMmdl.
162170  0  0  1  0            999 V2000
  -30.5463  -14.7485   20.4949 C   0  0  0  0  0  0
  -30.4541  -12.4600   19.4717 C   0  0  0  0  0  0
  -29.5093  -12.5124   18.2453 C   0  0  0  0  0  0
  -28.0379  -12.3261   18.6612 C   0  0  0  0  0  0
  -27.6503  -13.2081   19.8751 C   0  0  2  0  0  0
  -28.6975  -13.0861   21.0065 C   0  0  0  0  0  0
  -25.2502  -13.8109   20.5657 C   0  0  0  0  0  0
  -24.1781  -13.0384   20.9198 C   0  0  0  0  0  0
  -24.6361  -11.6870   20.8757 C   0  0  0  0  0  0
  -23.9031  -10.4263   21.0420 C   0  0  0  0  0  0
  -24.3588   -9.4192   21.9201 C   0  0  0  0  0  0
  -23.6279   -8.2220   22.0757 C   0  0  0  0  0  0
  -22.4261   -8.0268   21.3544 C   0  0  0  0  0  0
  -21.9890   -9.0243   20.4646 C   0  0  0  0  0  0
  -22.7204  -10.2128   20.3072 C   0  0  0  0  0  0
  -21.6842   -6.0729   22.5285 C   0  0  0  0  0  0
  -21.4011   -6.5631   23.8225 C   0  0  0  0  0  0
  -21.3665   -5.6790   24.9184 C   0  0  0  0  0  0
  -21.6036   -4.3051   24.7236 C   0  0  0  0  0  0
  -21.8820   -3.8142   23.4359 C   0  0  0  0  0  0
  -21.9193   -4.6955   22.3411 C   0  0  0  0  0  0
  -22.7800  -13.5199   21.1851 C   0  0  0  0  0  0
  -22.1652   -4.2143   21.0989 F   0  0  0  0  0  0
  -21.5640   -3.4533   25.7752 F   0  0  0  0  0  0
  -30.0039  -13.4798   20.4486 N   0  0  0  0  0  0
  -26.2955  -12.9292   20.3382 N   0  0  0  0  0  0
  -25.9298  -11.6451   20.5833 N   0  0  0  0  0  0
  -22.0431  -12.8219   22.0438 N   0  0  0  0  0  0
  -25.4148  -15.1825   20.4021 N   0  0  0  0  0  0
  -31.6676  -14.9698   20.0261 O   0  0  0  0  0  0
  -21.6628   -6.8865   21.4241 O   0  0  0  0  0  0
  -22.3483  -14.5499   20.6694 O   0  0  0  0  0  0
  -24.6308  -31.8552   23.1993 C   0  0  0  0  0  0
  -25.9132  -32.4759   23.8333 C   0  0  1  0  0  0
  -27.2299  -27.2528   20.1364 C   0  0  0  0  0  0
  -25.5932  -33.8566   24.2262 N   0  0  0  0  0  0
  -23.4295  -30.4769   21.5413 C   0  0  2  0  0  0
  -24.8813  -28.9265   20.1083 C   0  0  0  0  0  0
  -22.7505  -29.4608   22.4910 C   0  0  0  0  0  0
  -18.0296  -28.1393   22.8491 C   0  0  0  0  0  0
  -24.1492  -36.7283   23.2641 C   0  0  0  0  0  0
  -25.9768  -30.7635   21.3847 C   0  0  0  0  0  0
  -26.0501  -29.3858   20.7272 C   0  0  0  0  0  0
  -27.2218  -28.5600   20.7349 C   0  0  0  0  0  0
  -26.0436  -26.8796   19.4608 C   0  0  0  0  0  0
  -24.8854  -27.6806   19.4631 C   0  0  0  0  0  0
  -23.6492  -29.8096   20.1581 C   0  0  0  0  0  0
  -25.4118  -36.3076   24.0327 C   0  0  1  0  0  0
  -20.5900  -28.3703   23.1272 C   0  0  2  0  0  0
  -20.6794  -26.9420   22.5415 C   0  0  0  0  0  0
  -19.5770  -26.6382   21.5228 C   0  0  0  0  0  0
  -18.1943  -26.7934   22.1631 C   0  0  0  0  0  0
  -19.1551  -28.8866   23.2874 C   0  0  0  0  0  0
  -18.9467  -30.1468   23.8892 C   0  0  0  0  0  0
  -17.6467  -30.6594   24.0559 C   0  0  0  0  0  0
  -25.9057  -34.9443   23.5092 C   0  0  0  0  0  0
  -16.5356  -29.9085   23.6344 C   0  0  0  0  0  0
  -16.7278  -28.6506   23.0355 C   0  0  0  0  0  0
  -26.4487  -31.6588   25.0729 C   0  0  0  0  0  0
  -25.3696  -31.3750   26.1439 C   0  0  0  0  0  0
  -27.0347  -30.2997   24.6251 C   0  0  0  0  0  0
  -27.6036  -32.4329   25.7500 C   0  0  0  0  0  0
  -27.5584  -37.1805   24.8464 C   0  0  0  0  0  0
  -21.4212  -29.3035   22.3649 N   0  0  0  0  0  0
  -26.4299  -37.3769   23.9399 N   0  0  0  0  0  0
  -24.6975  -31.0499   22.0977 N   0  0  0  0  0  0
  -23.4191  -28.8150   23.3026 O   0  0  0  0  0  0
  -28.3283  -26.3559   20.2430 O   0  0  0  0  0  0
  -26.5628  -34.8913   22.4662 O   0  0  0  0  0  0
  -23.5453  -32.1383   23.7277 O   0  0  0  0  0  0
  -28.1502  -17.3213   19.6854 C   0  0  0  0  0  0
  -27.9144  -17.4960   21.1592 C   0  0  0  0  0  0
  -29.3129  -17.1825   20.6490 C   0  0  0  0  0  0
  -31.4897  -18.0440   21.6761 C   0  0  0  0  0  0
  -30.6783  -22.4214   19.1373 C   0  0  0  0  0  0
  -28.9406  -23.6586   20.6167 C   0  0  0  0  0  0
  -28.9640  -20.7430   20.1899 C   0  0  0  0  0  0
  -28.2211  -24.9014   19.8459 C   0  0  0  0  0  0
  -30.3724  -18.3891   20.6800 C   0  0  2  0  0  0
  -29.2880  -22.3000   19.7807 C   0  0  2  0  0  0
  -29.6764  -15.7341   20.9324 N   0  0  0  0  0  0
  -29.9472  -19.8642   20.9782 N   0  3  0  0  0  0
  -31.4857  -12.6225   19.1567 H   0  0  0  0  0  0
  -30.4403  -11.4703   19.9288 H   0  0  0  0  0  0
  -29.7899  -11.7435   17.5227 H   0  0  0  0  0  0
  -29.6218  -13.4692   17.7362 H   0  0  0  0  0  0
  -27.8952  -11.2729   18.9086 H   0  0  0  0  0  0
  -27.3744  -12.5286   17.8214 H   0  0  0  0  0  0
  -27.6593  -14.2339   19.5177 H   0  0  0  0  0  0
  -28.7393  -12.0600   21.3753 H   0  0  0  0  0  0
  -28.4182  -13.6935   21.8683 H   0  0  0  0  0  0
  -25.2736   -9.5660   22.4776 H   0  0  0  0  0  0
  -23.9984   -7.4598   22.7465 H   0  0  0  0  0  0
  -21.0827   -8.8762   19.8941 H   0  0  0  0  0  0
  -22.3668  -10.9670   19.6184 H   0  0  0  0  0  0
  -21.2003   -7.6142   23.9722 H   0  0  0  0  0  0
  -21.1476   -6.0522   25.9087 H   0  0  0  0  0  0
  -22.0598   -2.7608   23.2865 H   0  0  0  0  0  0
  -22.4039  -11.9888   22.4834 H   0  0  0  0  0  0
  -21.1063  -13.1274   22.2666 H   0  0  0  0  0  0
  -24.6451  -15.8329   20.5182 H   0  0  0  0  0  0
  -26.2701  -15.6306   20.1013 H   0  0  0  0  0  0
  -26.7201  -32.5405   23.1074 H   0  0  0  0  0  0
  -25.0082  -33.9697   25.0412 H   0  0  0  0  0  0
  -22.7263  -31.2994   21.3942 H   0  0  0  0  0  0
  -23.3765  -35.9610   23.3303 H   0  0  0  0  0  0
  -24.3587  -36.8905   22.2059 H   0  0  0  0  0  0
  -23.7240  -37.6481   23.6661 H   0  0  0  0  0  0
  -26.1208  -31.5252   20.6164 H   0  0  0  0  0  0
  -26.8513  -30.8094   22.0219 H   0  0  0  0  0  0
  -28.1087  -28.9052   21.2460 H   0  0  0  0  0  0
  -25.9674  -25.9466   18.9258 H   0  0  0  0  0  0
  -23.9953  -27.3283   18.9588 H   0  0  0  0  0  0
  -23.7685  -30.5850   19.4010 H   0  0  0  0  0  0
  -22.7696  -29.2380   19.8549 H   0  0  0  0  0  0
  -25.1310  -36.1931   25.0824 H   0  0  0  0  0  0
  -20.9995  -28.3292   24.1395 H   0  0  0  0  0  0
  -20.5732  -26.2309   23.3620 H   0  0  0  0  0  0
  -21.6654  -26.7469   22.1188 H   0  0  0  0  0  0
  -19.6929  -25.6292   21.1264 H   0  0  0  0  0  0
  -19.6706  -27.3193   20.6760 H   0  0  0  0  0  0
  -17.4218  -26.6694   21.4016 H   0  0  0  0  0  0
  -18.0321  -26.0071   22.9022 H   0  0  0  0  0  0
  -19.7933  -30.7290   24.2249 H   0  0  0  0  0  0
  -17.5010  -31.6271   24.5157 H   0  0  0  0  0  0
  -15.5352  -30.2974   23.7672 H   0  0  0  0  0  0
  -15.8682  -28.0818   22.7070 H   0  0  0  0  0  0
  -24.5883  -30.7079   25.7767 H   0  0  0  0  0  0
  -24.8863  -32.2921   26.4815 H   0  0  0  0  0  0
  -25.7993  -30.8963   27.0246 H   0  0  0  0  0  0
  -26.2948  -29.6735   24.1243 H   0  0  0  0  0  0
  -27.3977  -29.7270   25.4796 H   0  0  0  0  0  0
  -27.8844  -30.4263   23.9539 H   0  0  0  0  0  0
  -27.2648  -33.3645   26.2041 H   0  0  0  0  0  0
  -28.3857  -32.6862   25.0333 H   0  0  0  0  0  0
  -28.0681  -31.8476   26.5445 H   0  0  0  0  0  0
  -28.2604  -38.0101   24.7514 H   0  0  0  0  0  0
  -28.1080  -36.2631   24.6292 H   0  0  0  0  0  0
  -27.2294  -37.1455   25.8866 H   0  0  0  0  0  0
  -20.9412  -29.8721   21.6819 H   0  0  0  0  0  0
  -26.0186  -38.2851   24.1380 H   0  0  0  0  0  0
  -28.0878  -18.2028   19.0552 H   0  0  0  0  0  0
  -27.7987  -16.4132   19.2039 H   0  0  0  0  0  0
  -27.6813  -18.4956   21.5155 H   0  0  0  0  0  0
  -27.3716  -16.7060   21.6777 H   0  0  0  0  0  0
  -32.0063  -17.1279   21.4005 H   0  0  0  0  0  0
  -31.0888  -17.9107   22.6811 H   0  0  0  0  0  0
  -32.2505  -18.8230   21.7163 H   0  0  0  0  0  0
  -30.7762  -23.3722   18.6100 H   0  0  0  0  0  0
  -30.8568  -21.6309   18.4070 H   0  0  0  0  0  0
  -31.4753  -22.3797   19.8805 H   0  0  0  0  0  0
  -28.3269  -23.3979   21.4791 H   0  0  0  0  0  0
  -29.8722  -24.0269   21.0502 H   0  0  0  0  0  0
  -28.8201  -20.2297   19.2406 H   0  0  0  0  0  0
  -27.9920  -20.7022   20.6837 H   0  0  0  0  0  0
  -27.1781  -24.5971   19.8487 H   0  0  0  0  0  0
  -28.5345  -24.8671   18.8019 H   0  0  0  0  0  0
  -30.8307  -18.4151   19.6906 H   0  0  0  0  0  0
  -28.6000  -22.4091   18.9408 H   0  0  0  0  0  0
  -28.9233  -15.2757   21.4240 H   0  0  0  0  0  0
  -29.6428  -19.8969   21.9380 H   0  0  0  0  0  0
  -30.8130  -20.3761   20.9556 H   0  0  0  0  0  0
  1 25  1  0  0  0
  1 30  2  0  0  0
  1 81  1  0  0  0
  2  3  1  0  0  0
  2 25  1  0  0  0
  2 83  1  0  0  0
  2 84  1  0  0  0
  3  4  1  0  0  0
  3 85  1  0  0  0
  3 86  1  0  0  0
  4  5  1  0  0  0
  4 87  1  0  0  0
  4 88  1  0  0  0
  5  6  1  0  0  0
  5 26  1  0  0  0
  5 89  1  0  0  0
  6 25  1  0  0  0
  6 90  1  0  0  0
  6 91  1  0  0  0
  7  8  2  0  0  0
  7 26  1  0  0  0
  7 29  1  0  0  0
  8  9  1  0  0  0
  8 22  1  0  0  0
  9 10  1  0  0  0
  9 27  2  0  0  0
 10 11  2  0  0  0
 10 15  1  0  0  0
 11 12  1  0  0  0
 11 92  1  0  0  0
 12 13  2  0  0  0
 12 93  1  0  0  0
 13 14  1  0  0  0
 13 31  1  0  0  0
 14 15  2  0  0  0
 14 94  1  0  0  0
 15 95  1  0  0  0
 16 17  2  0  0  0
 16 21  1  0  0  0
 16 31  1  0  0  0
 17 18  1  0  0  0
 17 96  1  0  0  0
 18 19  2  0  0  0
 18 97  1  0  0  0
 19 20  1  0  0  0
 19 24  1  0  0  0
 20 21  2  0  0  0
 20 98  1  0  0  0
 21 23  1  0  0  0
 22 28  1  0  0  0
 22 32  2  0  0  0
 26 27  1  0  0  0
 28 99  1  0  0  0
 28100  1  0  0  0
 29101  1  0  0  0
 29102  1  0  0  0
 33 34  1  0  0  0
 33 66  1  0  0  0
 33 70  2  0  0  0
 34 36  1  0  0  0
 34 59  1  0  0  0
 34103  1  0  0  0
 35 44  2  0  0  0
 35 45  1  0  0  0
 35 68  1  0  0  0
 36 56  1  0  0  0
 36104  1  0  0  0
 37 39  1  0  0  0
 37 47  1  0  0  0
 37 66  1  0  0  0
 37105  1  0  0  0
 38 43  2  0  0  0
 38 46  1  0  0  0
 38 47  1  0  0  0
 39 64  1  0  0  0
 39 67  2  0  0  0
 40 52  1  0  0  0
 40 53  2  0  0  0
 40 58  1  0  0  0
 41106  1  0  0  0
 41107  1  0  0  0
 41108  1  0  0  0
 41 48  1  0  0  0
 42 43  1  0  0  0
 42 66  1  0  0  0
 42109  1  0  0  0
 42110  1  0  0  0
 43 44  1  0  0  0
 44111  1  0  0  0
 45 46  2  0  0  0
 45112  1  0  0  0
 46113  1  0  0  0
 47114  1  0  0  0
 47115  1  0  0  0
 48 56  1  0  0  0
 48 65  1  0  0  0
 48116  1  0  0  0
 49 50  1  0  0  0
 49 53  1  0  0  0
 49 64  1  0  0  0
 49117  1  0  0  0
 50 51  1  0  0  0
 50118  1  0  0  0
 50119  1  0  0  0
 51 52  1  0  0  0
 51120  1  0  0  0
 51121  1  0  0  0
 52122  1  0  0  0
 52123  1  0  0  0
 53 54  1  0  0  0
 54 55  2  0  0  0
 54124  1  0  0  0
 55 57  1  0  0  0
 55125  1  0  0  0
 56 69  2  0  0  0
 57 58  2  0  0  0
 57126  1  0  0  0
 58127  1  0  0  0
 59 60  1  0  0  0
 59 61  1  0  0  0
 59 62  1  0  0  0
 60128  1  0  0  0
 60129  1  0  0  0
 60130  1  0  0  0
 61131  1  0  0  0
 61132  1  0  0  0
 61133  1  0  0  0
 62134  1  0  0  0
 62135  1  0  0  0
 62136  1  0  0  0
 63 65  1  0  0  0
 63137  1  0  0  0
 63138  1  0  0  0
 63139  1  0  0  0
 64140  1  0  0  0
 65141  1  0  0  0
 68 78  1  0  0  0
 71 72  1  0  0  0
 71 73  1  0  0  0
 71142  1  0  0  0
 71143  1  0  0  0
 72 73  1  0  0  0
 72144  1  0  0  0
 72145  1  0  0  0
 73 79  1  0  0  0
 73 81  1  0  0  0
 74146  1  0  0  0
 74147  1  0  0  0
 74148  1  0  0  0
 74 79  1  0  0  0
 75149  1  0  0  0
 75150  1  0  0  0
 75151  1  0  0  0
 75 80  1  0  0  0
 76 78  1  0  0  0
 76 80  1  0  0  0
 76152  1  0  0  0
 76153  1  0  0  0
 77 80  1  0  0  0
 77 82  1  0  0  0
 77154  1  0  0  0
 77155  1  0  0  0
 78156  1  0  0  0
 78157  1  0  0  0
 79 82  1  0  0  0
 79158  1  0  0  0
 80159  1  0  0  0
 81160  1  0  0  0
 82161  1  0  0  0
 82162  1  0  0  0
M  CHG  1  82   1
M  ISO  4   1 100  68 101  78 101  81 100
M  END
> <chiral flag>
0

> <version>
0

> <s_m_source_file>
/data/baiqing/PycharmProjects/Reinvent-master-3.2/result/LINK_invent/BTK/process_docking_weight1_custom_sum_contain_oxygen_bond_distance_aromatic_linkinvent_7_9_3/rearranged_h_0119.sdf

> <i_m_source_file_index>
72

> <r_mmod_Potential_Energy-OPLS-2005>
222.572906494141

> <r_mmod_Stretch_Energy-OPLS-2005>
147.527435302734

> <r_mmod_Bend_Energy-OPLS-2005>
274.666625976562

> <r_mmod_Torsional_Energy-OPLS-2005>
358.410888671875

> <r_mmod_Improper_Torsional_Energy-OPLS-2005>
4.98008251190186

> <r_mmod_Van_der_Waal_Energy-OPLS-2005>
118.440948486328

> <r_mmod_Electrostatic_Energy-OPLS-2005>
-317.588928222656

> <r_mmod_Solvation_Energy-OPLS-2005>
-456.455322265625

> <b_mmod_Minimization_Converged-OPLS-2005>
0

> <r_mmod_RMS_Derivative-OPLS-2005>
2.91100645065308

$$$$
72
                    3D
 Structure written by MMmdl.
163172  0  0  1  0            999 V2000
  -30.5772  -14.6817   20.5094 C   0  0  0  0  0  0
  -30.4510  -12.4220   19.4487 C   0  0  0  0  0  0
  -29.5121  -12.5181   18.2233 C   0  0  0  0  0  0
  -28.0340  -12.3488   18.6331 C   0  0  0  0  0  0
  -27.6544  -13.2122   19.8645 C   0  0  2  0  0  0
  -28.7004  -13.0523   20.9911 C   0  0  0  0  0  0
  -25.2558  -13.8133   20.5630 C   0  0  0  0  0  0
  -24.1841  -13.0421   20.9201 C   0  0  0  0  0  0
  -24.6405  -11.6892   20.8752 C   0  0  0  0  0  0
  -23.9069  -10.4283   21.0415 C   0  0  0  0  0  0
  -24.3617   -9.4197   21.9195 C   0  0  0  0  0  0
  -23.6288   -8.2234   22.0762 C   0  0  0  0  0  0
  -22.4274   -8.0276   21.3546 C   0  0  0  0  0  0
  -21.9910   -9.0252   20.4652 C   0  0  0  0  0  0
  -22.7239  -10.2131   20.3067 C   0  0  0  0  0  0
  -21.6852   -6.0736   22.5278 C   0  0  0  0  0  0
  -21.4009   -6.5640   23.8210 C   0  0  0  0  0  0
  -21.3657   -5.6795   24.9172 C   0  0  0  0  0  0
  -21.6047   -4.3058   24.7224 C   0  0  0  0  0  0
  -21.8819   -3.8147   23.4345 C   0  0  0  0  0  0
  -21.9191   -4.6964   22.3400 C   0  0  0  0  0  0
  -22.7868  -13.5233   21.1845 C   0  0  0  0  0  0
  -22.1662   -4.2154   21.0979 F   0  0  0  0  0  0
  -21.5631   -3.4541   25.7735 F   0  0  0  0  0  0
  -30.0113  -13.4309   20.4352 N   0  0  0  0  0  0
  -26.2994  -12.9315   20.3297 N   0  0  0  0  0  0
  -25.9332  -11.6482   20.5766 N   0  0  0  0  0  0
  -22.0498  -12.8235   22.0395 N   0  0  0  0  0  0
  -25.4229  -15.1840   20.3907 N   0  0  0  0  0  0
  -31.7247  -14.8912   20.1008 O   0  0  0  0  0  0
  -21.6634   -6.8874   21.4240 O   0  0  0  0  0  0
  -22.3580  -14.5546   20.6685 O   0  0  0  0  0  0
  -24.6268  -31.8560   23.1982 C   0  0  0  0  0  0
  -25.9107  -32.4761   23.8317 C   0  0  1  0  0  0
  -27.2342  -27.2987   20.1352 C   0  0  0  0  0  0
  -25.5910  -33.8561   24.2249 N   0  0  0  0  0  0
  -23.4212  -30.4764   21.5415 C   0  0  2  0  0  0
  -24.8690  -28.9124   20.1247 C   0  0  0  0  0  0
  -22.7477  -29.4600   22.4942 C   0  0  0  0  0  0
  -18.0283  -28.1388   22.8479 C   0  0  0  0  0  0
  -24.1489  -36.7284   23.2643 C   0  0  0  0  0  0
  -25.9612  -30.7827   21.3680 C   0  0  0  0  0  0
  -26.0365  -29.4013   20.7233 C   0  0  0  0  0  0
  -27.2219  -28.6092   20.7099 C   0  0  0  0  0  0
  -26.0422  -26.8494   19.5315 C   0  0  0  0  0  0
  -24.8731  -27.6416   19.5212 C   0  0  0  0  0  0
  -23.6392  -29.7989   20.1615 C   0  0  0  0  0  0
  -25.4108  -36.3072   24.0334 C   0  0  1  0  0  0
  -20.5884  -28.3675   23.1295 C   0  0  2  0  0  0
  -20.6776  -26.9401   22.5411 C   0  0  0  0  0  0
  -19.5758  -26.6379   21.5213 C   0  0  0  0  0  0
  -18.1931  -26.7930   22.1614 C   0  0  0  0  0  0
  -19.1535  -28.8848   23.2883 C   0  0  0  0  0  0
  -18.9464  -30.1450   23.8891 C   0  0  0  0  0  0
  -17.6465  -30.6587   24.0564 C   0  0  0  0  0  0
  -25.9040  -34.9443   23.5091 C   0  0  0  0  0  0
  -16.5356  -29.9085   23.6331 C   0  0  0  0  0  0
  -16.7270  -28.6511   23.0339 C   0  0  0  0  0  0
  -26.4494  -31.6579   25.0691 C   0  0  0  0  0  0
  -25.3734  -31.3726   26.1422 C   0  0  0  0  0  0
  -27.0329  -30.3006   24.6130 C   0  0  0  0  0  0
  -27.6051  -32.4312   25.7468 C   0  0  0  0  0  0
  -27.5577  -37.1792   24.8472 C   0  0  0  0  0  0
  -21.4189  -29.3038   22.3701 N   0  0  0  0  0  0
  -26.4287  -37.3765   23.9412 N   0  0  0  0  0  0
  -24.6887  -31.0558   22.0936 N   0  0  0  0  0  0
  -23.4197  -28.8144   23.3029 O   0  0  0  0  0  0
  -28.3991  -26.5250   20.0462 O   0  0  0  0  0  0
  -26.5618  -34.8925   22.4665 O   0  0  0  0  0  0
  -23.5428  -32.1366   23.7304 O   0  0  0  0  0  0
  -30.2644  -19.4228   20.0679 C   0  0  0  0  0  0
  -30.4456  -17.9990   20.0920 C   0  0  0  0  0  0
  -28.4479  -19.2431   21.6356 C   0  0  0  0  0  0
  -28.6567  -17.8137   21.6955 C   0  0  0  0  0  0
  -29.2683  -20.1001   20.8325 C   0  0  0  0  0  0
  -29.6511  -17.1469   20.9083 C   0  0  0  0  0  0
  -27.3704  -19.8747   22.5235 C   0  0  0  0  0  0
  -27.8004  -16.9607   22.6483 C   0  0  0  0  0  0
  -26.3750  -18.8733   23.1183 C   0  0  0  0  0  0
  -29.1993  -21.6979   20.9412 C   0  0  0  0  0  0
  -27.9725  -23.8404   19.8759 C   0  0  0  0  0  0
  -28.5373  -25.1480   20.6001 C   0  0  0  0  0  0
  -29.7265  -15.6685   20.9533 N   0  0  0  0  0  0
  -27.1041  -17.7346   23.6873 N   0  3  0  0  0  0
  -28.8113  -22.5522   19.7519 N   0  3  0  0  0  0
  -31.4868  -12.5758   19.1421 H   0  0  0  0  0  0
  -30.4138  -11.4225   19.8853 H   0  0  0  0  0  0
  -29.7807  -11.7639   17.4822 H   0  0  0  0  0  0
  -29.6459  -13.4850   17.7355 H   0  0  0  0  0  0
  -27.8708  -11.2939   18.8579 H   0  0  0  0  0  0
  -27.3802  -12.5837   17.7921 H   0  0  0  0  0  0
  -27.6748  -14.2499   19.5315 H   0  0  0  0  0  0
  -28.7266  -12.0193   21.3424 H   0  0  0  0  0  0
  -28.4340  -13.6479   21.8646 H   0  0  0  0  0  0
  -25.2762   -9.5673   22.4767 H   0  0  0  0  0  0
  -23.9999   -7.4628   22.7478 H   0  0  0  0  0  0
  -21.0846   -8.8770   19.8954 H   0  0  0  0  0  0
  -22.3698  -10.9674   19.6178 H   0  0  0  0  0  0
  -21.1996   -7.6150   23.9714 H   0  0  0  0  0  0
  -21.1481   -6.0525   25.9077 H   0  0  0  0  0  0
  -22.0599   -2.7613   23.2841 H   0  0  0  0  0  0
  -22.4098  -11.9880   22.4765 H   0  0  0  0  0  0
  -21.1123  -13.1273   22.2594 H   0  0  0  0  0  0
  -24.6002  -15.7766   20.3739 H   0  0  0  0  0  0
  -26.1779  -15.5539   19.8275 H   0  0  0  0  0  0
  -26.7162  -32.5422   23.1047 H   0  0  0  0  0  0
  -25.0079  -33.9700   25.0414 H   0  0  0  0  0  0
  -22.7151  -31.2962   21.3894 H   0  0  0  0  0  0
  -23.3754  -35.9612   23.3303 H   0  0  0  0  0  0
  -24.3588  -36.8904   22.2059 H   0  0  0  0  0  0
  -23.7245  -37.6485   23.6667 H   0  0  0  0  0  0
  -26.0849  -31.5385   20.5916 H   0  0  0  0  0  0
  -26.8447  -30.8411   21.9925 H   0  0  0  0  0  0
  -28.1300  -28.9948   21.1507 H   0  0  0  0  0  0
  -26.0162  -25.8839   19.0479 H   0  0  0  0  0  0
  -23.9772  -27.2630   19.0484 H   0  0  0  0  0  0
  -23.7668  -30.5686   19.3998 H   0  0  0  0  0  0
  -22.7592  -29.2299   19.8567 H   0  0  0  0  0  0
  -25.1292  -36.1911   25.0826 H   0  0  0  0  0  0
  -20.9949  -28.3239   24.1430 H   0  0  0  0  0  0
  -20.5672  -26.2282   23.3611 H   0  0  0  0  0  0
  -21.6645  -26.7441   22.1207 H   0  0  0  0  0  0
  -19.6927  -25.6292   21.1239 H   0  0  0  0  0  0
  -19.6702  -27.3195   20.6754 H   0  0  0  0  0  0
  -17.4203  -26.6672   21.4017 H   0  0  0  0  0  0
  -18.0325  -26.0078   22.9013 H   0  0  0  0  0  0
  -19.7944  -30.7261   24.2258 H   0  0  0  0  0  0
  -17.5031  -31.6273   24.5154 H   0  0  0  0  0  0
  -15.5356  -30.2991   23.7675 H   0  0  0  0  0  0
  -15.8671  -28.0842   22.7043 H   0  0  0  0  0  0
  -24.5905  -30.7076   25.7761 H   0  0  0  0  0  0
  -24.8934  -32.2904   26.4829 H   0  0  0  0  0  0
  -25.8060  -30.8917   27.0208 H   0  0  0  0  0  0
  -26.2892  -29.6754   24.1174 H   0  0  0  0  0  0
  -27.4076  -29.7247   25.4603 H   0  0  0  0  0  0
  -27.8735  -30.4299   23.9310 H   0  0  0  0  0  0
  -27.2655  -33.3618   26.2023 H   0  0  0  0  0  0
  -28.3876  -32.6852   25.0309 H   0  0  0  0  0  0
  -28.0698  -31.8450   26.5406 H   0  0  0  0  0  0
  -28.2580  -38.0099   24.7500 H   0  0  0  0  0  0
  -28.1079  -36.2623   24.6302 H   0  0  0  0  0  0
  -27.2303  -37.1446   25.8880 H   0  0  0  0  0  0
  -20.9372  -29.8757   21.6908 H   0  0  0  0  0  0
  -26.0168  -38.2838   24.1415 H   0  0  0  0  0  0
  -30.9385  -20.0082   19.4577 H   0  0  0  0  0  0
  -31.2187  -17.5667   19.4722 H   0  0  0  0  0  0
  -26.8007  -20.6078   21.9517 H   0  0  0  0  0  0
  -27.8625  -20.4133   23.3342 H   0  0  0  0  0  0
  -28.4219  -16.2215   23.1554 H   0  0  0  0  0  0
  -27.0657  -16.4113   22.0626 H   0  0  0  0  0  0
  -25.6860  -18.5160   22.3519 H   0  0  0  0  0  0
  -25.7698  -19.3535   23.8880 H   0  0  0  0  0  0
  -30.1930  -22.0295   21.2430 H   0  0  0  0  0  0
  -28.5682  -22.0009   21.7731 H   0  0  0  0  0  0
  -27.7435  -24.1305   18.8503 H   0  0  0  0  0  0
  -27.0097  -23.5842   20.3183 H   0  0  0  0  0  0
  -29.6144  -25.0103   20.6891 H   0  0  0  0  0  0
  -28.1826  -25.1577   21.6308 H   0  0  0  0  0  0
  -28.8960  -15.2332   21.3198 H   0  0  0  0  0  0
  -27.7770  -18.0664   24.3579 H   0  0  0  0  0  0
  -26.4619  -17.1273   24.1699 H   0  0  0  0  0  0
  -28.2849  -21.9387   19.1516 H   0  0  0  0  0  0
  -29.6583  -22.7613   19.2479 H   0  0  0  0  0  0
  1 25  1  0  0  0
  1 30  2  0  0  0
  1 83  1  0  0  0
  2  3  1  0  0  0
  2 25  1  0  0  0
  2 86  1  0  0  0
  2 87  1  0  0  0
  3  4  1  0  0  0
  3 88  1  0  0  0
  3 89  1  0  0  0
  4  5  1  0  0  0
  4 90  1  0  0  0
  4 91  1  0  0  0
  5  6  1  0  0  0
  5 26  1  0  0  0
  5 92  1  0  0  0
  6 25  1  0  0  0
  6 93  1  0  0  0
  6 94  1  0  0  0
  7  8  2  0  0  0
  7 26  1  0  0  0
  7 29  1  0  0  0
  8  9  1  0  0  0
  8 22  1  0  0  0
  9 10  1  0  0  0
  9 27  2  0  0  0
 10 11  2  0  0  0
 10 15  1  0  0  0
 11 12  1  0  0  0
 11 95  1  0  0  0
 12 13  2  0  0  0
 12 96  1  0  0  0
 13 14  1  0  0  0
 13 31  1  0  0  0
 14 15  2  0  0  0
 14 97  1  0  0  0
 15 98  1  0  0  0
 16 17  2  0  0  0
 16 21  1  0  0  0
 16 31  1  0  0  0
 17 18  1  0  0  0
 17 99  1  0  0  0
 18 19  2  0  0  0
 18100  1  0  0  0
 19 20  1  0  0  0
 19 24  1  0  0  0
 20 21  2  0  0  0
 20101  1  0  0  0
 21 23  1  0  0  0
 22 28  1  0  0  0
 22 32  2  0  0  0
 26 27  1  0  0  0
 28102  1  0  0  0
 28103  1  0  0  0
 29104  1  0  0  0
 29105  1  0  0  0
 33 34  1  0  0  0
 33 66  1  0  0  0
 33 70  2  0  0  0
 34 36  1  0  0  0
 34 59  1  0  0  0
 34106  1  0  0  0
 35 44  2  0  0  0
 35 45  1  0  0  0
 35 68  1  0  0  0
 36 56  1  0  0  0
 36107  1  0  0  0
 37 39  1  0  0  0
 37 47  1  0  0  0
 37 66  1  0  0  0
 37108  1  0  0  0
 38 43  2  0  0  0
 38 46  1  0  0  0
 38 47  1  0  0  0
 39 64  1  0  0  0
 39 67  2  0  0  0
 40 52  1  0  0  0
 40 53  2  0  0  0
 40 58  1  0  0  0
 41109  1  0  0  0
 41110  1  0  0  0
 41111  1  0  0  0
 41 48  1  0  0  0
 42 43  1  0  0  0
 42 66  1  0  0  0
 42112  1  0  0  0
 42113  1  0  0  0
 43 44  1  0  0  0
 44114  1  0  0  0
 45 46  2  0  0  0
 45115  1  0  0  0
 46116  1  0  0  0
 47117  1  0  0  0
 47118  1  0  0  0
 48 56  1  0  0  0
 48 65  1  0  0  0
 48119  1  0  0  0
 49 50  1  0  0  0
 49 53  1  0  0  0
 49 64  1  0  0  0
 49120  1  0  0  0
 50 51  1  0  0  0
 50121  1  0  0  0
 50122  1  0  0  0
 51 52  1  0  0  0
 51123  1  0  0  0
 51124  1  0  0  0
 52125  1  0  0  0
 52126  1  0  0  0
 53 54  1  0  0  0
 54 55  2  0  0  0
 54127  1  0  0  0
 55 57  1  0  0  0
 55128  1  0  0  0
 56 69  2  0  0  0
 57 58  2  0  0  0
 57129  1  0  0  0
 58130  1  0  0  0
 59 60  1  0  0  0
 59 61  1  0  0  0
 59 62  1  0  0  0
 60131  1  0  0  0
 60132  1  0  0  0
 60133  1  0  0  0
 61134  1  0  0  0
 61135  1  0  0  0
 61136  1  0  0  0
 62137  1  0  0  0
 62138  1  0  0  0
 62139  1  0  0  0
 63 65  1  0  0  0
 63140  1  0  0  0
 63141  1  0  0  0
 63142  1  0  0  0
 64143  1  0  0  0
 65144  1  0  0  0
 68 82  1  0  0  0
 71 72  2  0  0  0
 71 75  1  0  0  0
 71145  1  0  0  0
 72 76  1  0  0  0
 72146  1  0  0  0
 73 74  1  0  0  0
 73 75  2  0  0  0
 73 77  1  0  0  0
 74 76  2  0  0  0
 74 78  1  0  0  0
 75 80  1  0  0  0
 76 83  1  0  0  0
 77 79  1  0  0  0
 77147  1  0  0  0
 77148  1  0  0  0
 78 84  1  0  0  0
 78149  1  0  0  0
 78150  1  0  0  0
 79 84  1  0  0  0
 79151  1  0  0  0
 79152  1  0  0  0
 80 85  1  0  0  0
 80153  1  0  0  0
 80154  1  0  0  0
 81 82  1  0  0  0
 81 85  1  0  0  0
 81155  1  0  0  0
 81156  1  0  0  0
 82157  1  0  0  0
 82158  1  0  0  0
 83159  1  0  0  0
 84160  1  0  0  0
 84161  1  0  0  0
 85162  1  0  0  0
 85163  1  0  0  0
M  CHG  2  84   1  85   1
M  ISO  4   1 100  68 101  82 101  83 100
M  END
> <chiral flag>
0

> <version>
0

> <s_m_source_file>
/data/baiqing/PycharmProjects/Reinvent-master-3.2/result/LINK_invent/BTK/process_docking_weight1_custom_sum_contain_oxygen_bond_distance_aromatic_linkinvent_7_9_3/rearranged_h_0119.sdf

> <i_m_source_file_index>
73

> <r_mmod_Potential_Energy-OPLS-2005>
-202.358856201172

> <r_mmod_Stretch_Energy-OPLS-2005>
102.261054992676

> <r_mmod_Bend_Energy-OPLS-2005>
189.640533447266

> <r_mmod_Torsional_Energy-OPLS-2005>
257.640869140625

> <r_mmod_Improper_Torsional_Energy-OPLS-2005>
6.87444353103638

> <r_mmod_Van_der_Waal_Energy-OPLS-2005>
138.189788818359

> <r_mmod_Electrostatic_Energy-OPLS-2005>
4.20390033721924

> <r_mmod_Solvation_Energy-OPLS-2005>
-955.537109375

> <b_mmod_Minimization_Converged-OPLS-2005>
0

> <r_mmod_RMS_Derivative-OPLS-2005>
1.41410255432129

$$$$
73
                    3D
 Structure written by MMmdl.
163171  0  0  1  0            999 V2000
  -30.6631  -14.5199   20.5762 C   0  0  0  0  0  0
  -30.4372  -12.3384   19.4260 C   0  0  0  0  0  0
  -29.5025  -12.5162   18.2099 C   0  0  0  0  0  0
  -28.0240  -12.3639   18.6222 C   0  0  0  0  0  0
  -27.6638  -13.2046   19.8759 C   0  0  2  0  0  0
  -28.7054  -12.9843   20.9964 C   0  0  0  0  0  0
  -25.2606  -13.8150   20.5679 C   0  0  0  0  0  0
  -24.1852  -13.0434   20.9178 C   0  0  0  0  0  0
  -24.6401  -11.6897   20.8729 C   0  0  0  0  0  0
  -23.9063  -10.4288   21.0400 C   0  0  0  0  0  0
  -24.3618   -9.4206   21.9179 C   0  0  0  0  0  0
  -23.6292   -8.2242   22.0752 C   0  0  0  0  0  0
  -22.4272   -8.0282   21.3546 C   0  0  0  0  0  0
  -21.9903   -9.0257   20.4652 C   0  0  0  0  0  0
  -22.7231  -10.2135   20.3057 C   0  0  0  0  0  0
  -21.6852   -6.0737   22.5282 C   0  0  0  0  0  0
  -21.4014   -6.5642   23.8215 C   0  0  0  0  0  0
  -21.3657   -5.6793   24.9177 C   0  0  0  0  0  0
  -21.6042   -4.3055   24.7224 C   0  0  0  0  0  0
  -21.8820   -3.8149   23.4345 C   0  0  0  0  0  0
  -21.9193   -4.6966   22.3403 C   0  0  0  0  0  0
  -22.7875  -13.5241   21.1839 C   0  0  0  0  0  0
  -22.1663   -4.2154   21.0979 F   0  0  0  0  0  0
  -21.5625   -3.4538   25.7736 F   0  0  0  0  0  0
  -30.0335  -13.3166   20.4502 N   0  0  0  0  0  0
  -26.3038  -12.9312   20.3356 N   0  0  0  0  0  0
  -25.9327  -11.6474   20.5752 N   0  0  0  0  0  0
  -22.0512  -12.8246   22.0402 N   0  0  0  0  0  0
  -25.4336  -15.1867   20.4089 N   0  0  0  0  0  0
  -31.7774  -14.7459   20.0923 O   0  0  0  0  0  0
  -21.6637   -6.8880   21.4243 O   0  0  0  0  0  0
  -22.3566  -14.5548   20.6688 O   0  0  0  0  0  0
  -24.6186  -31.8654   23.2077 C   0  0  0  0  0  0
  -25.9067  -32.4808   23.8380 C   0  0  1  0  0  0
  -27.2304  -27.3962   20.1087 C   0  0  0  0  0  0
  -25.5914  -33.8608   24.2314 N   0  0  0  0  0  0
  -23.4089  -30.4890   21.5487 C   0  0  2  0  0  0
  -24.8569  -28.9528   20.1125 C   0  0  0  0  0  0
  -22.7436  -29.4646   22.4966 C   0  0  0  0  0  0
  -18.0281  -28.1378   22.8477 C   0  0  0  0  0  0
  -24.1492  -36.7309   23.2631 C   0  0  0  0  0  0
  -25.9423  -30.8195   21.3681 C   0  0  0  0  0  0
  -26.0201  -29.4521   20.7133 C   0  0  0  0  0  0
  -27.2124  -28.6833   20.7050 C   0  0  0  0  0  0
  -26.0531  -26.9312   19.4825 C   0  0  0  0  0  0
  -24.8704  -27.6931   19.4911 C   0  0  0  0  0  0
  -23.6204  -29.8235   20.1630 C   0  0  0  0  0  0
  -25.4111  -36.3100   24.0330 C   0  0  1  0  0  0
  -20.5874  -28.3672   23.1300 C   0  0  2  0  0  0
  -20.6771  -26.9401   22.5415 C   0  0  0  0  0  0
  -19.5755  -26.6381   21.5207 C   0  0  0  0  0  0
  -18.1932  -26.7922   22.1614 C   0  0  0  0  0  0
  -19.1530  -28.8842   23.2886 C   0  0  0  0  0  0
  -18.9457  -30.1445   23.8900 C   0  0  0  0  0  0
  -17.6458  -30.6579   24.0567 C   0  0  0  0  0  0
  -25.9040  -34.9467   23.5118 C   0  0  0  0  0  0
  -16.5351  -29.9081   23.6324 C   0  0  0  0  0  0
  -16.7271  -28.6502   23.0335 C   0  0  0  0  0  0
  -26.4478  -31.6588   25.0719 C   0  0  0  0  0  0
  -25.3733  -31.3728   26.1465 C   0  0  0  0  0  0
  -27.0279  -30.3008   24.6118 C   0  0  0  0  0  0
  -27.6063  -32.4292   25.7476 C   0  0  0  0  0  0
  -27.5585  -37.1805   24.8456 C   0  0  0  0  0  0
  -21.4159  -29.3033   22.3703 N   0  0  0  0  0  0
  -26.4294  -37.3788   23.9408 N   0  0  0  0  0  0
  -24.6748  -31.0728   22.0994 N   0  0  0  0  0  0
  -23.4189  -28.8185   23.3021 O   0  0  0  0  0  0
  -28.3639  -26.5975   20.1239 O   0  0  0  0  0  0
  -26.5602  -34.8922   22.4679 O   0  0  0  0  0  0
  -23.5371  -32.1426   23.7447 O   0  0  0  0  0  0
  -29.8774  -17.8120   20.0701 C   0  0  0  0  0  0
  -30.3853  -19.0108   20.9096 C   0  0  2  0  0  0
  -30.5681  -17.9518   22.0220 C   0  0  2  0  0  0
  -32.4958  -18.9962   23.2893 C   0  0  0  0  0  0
  -31.9399  -16.5755   23.6751 C   0  0  0  0  0  0
  -29.3895  -20.1969   21.1109 C   0  0  0  0  0  0
  -29.7396  -21.5488   20.4013 C   0  0  0  0  0  0
  -28.8118  -22.7419   20.8075 C   0  0  0  0  0  0
  -29.1166  -24.1463   20.1834 C   0  0  0  0  0  0
  -28.1835  -25.2806   20.7144 C   0  0  0  0  0  0
  -31.9533  -17.7131   22.6409 C   0  0  0  0  0  0
  -30.2018  -16.8968   21.0512 N   0  0  0  0  0  0
  -29.9274  -15.4905   21.1627 N   0  0  0  0  0  0
  -29.3563  -17.6478   18.9866 O   0  0  0  0  0  0
  -31.4788  -12.4612   19.1239 H   0  0  0  0  0  0
  -30.3610  -11.3255   19.8245 H   0  0  0  0  0  0
  -29.7508  -11.7901   17.4348 H   0  0  0  0  0  0
  -29.6595  -13.5009   17.7667 H   0  0  0  0  0  0
  -27.8438  -11.3069   18.8229 H   0  0  0  0  0  0
  -27.3717  -12.6298   17.7898 H   0  0  0  0  0  0
  -27.7073  -14.2520   19.5771 H   0  0  0  0  0  0
  -28.6946  -11.9438   21.3242 H   0  0  0  0  0  0
  -28.4555  -13.5668   21.8841 H   0  0  0  0  0  0
  -25.2764   -9.5682   22.4749 H   0  0  0  0  0  0
  -24.0008   -7.4631   22.7463 H   0  0  0  0  0  0
  -21.0833   -8.8775   19.8956 H   0  0  0  0  0  0
  -22.3688  -10.9676   19.6167 H   0  0  0  0  0  0
  -21.2009   -7.6150   23.9721 H   0  0  0  0  0  0
  -21.1475   -6.0521   25.9079 H   0  0  0  0  0  0
  -22.0600   -2.7612   23.2845 H   0  0  0  0  0  0
  -22.4115  -11.9909   22.4802 H   0  0  0  0  0  0
  -21.1134  -13.1285   22.2600 H   0  0  0  0  0  0
  -24.6646  -15.8402   20.5103 H   0  0  0  0  0  0
  -26.2808  -15.6243   20.0692 H   0  0  0  0  0  0
  -26.7135  -32.5508   23.1138 H   0  0  0  0  0  0
  -25.0081  -33.9766   25.0471 H   0  0  0  0  0  0
  -22.6990  -31.3067   21.4082 H   0  0  0  0  0  0
  -23.3748  -35.9646   23.3294 H   0  0  0  0  0  0
  -24.3597  -36.8923   22.2044 H   0  0  0  0  0  0
  -23.7248  -37.6516   23.6647 H   0  0  0  0  0  0
  -26.0621  -31.5847   20.5998 H   0  0  0  0  0  0
  -26.8271  -30.8703   21.9908 H   0  0  0  0  0  0
  -28.1077  -29.0613   21.1785 H   0  0  0  0  0  0
  -26.0445  -25.9703   18.9879 H   0  0  0  0  0  0
  -23.9798  -27.3059   19.0157 H   0  0  0  0  0  0
  -23.7338  -30.5997   19.4055 H   0  0  0  0  0  0
  -22.7433  -29.2471   19.8633 H   0  0  0  0  0  0
  -25.1285  -36.1958   25.0821 H   0  0  0  0  0  0
  -20.9968  -28.3246   24.1420 H   0  0  0  0  0  0
  -20.5661  -26.2281   23.3607 H   0  0  0  0  0  0
  -21.6644  -26.7436   22.1217 H   0  0  0  0  0  0
  -19.6920  -25.6294   21.1232 H   0  0  0  0  0  0
  -19.6699  -27.3194   20.6738 H   0  0  0  0  0  0
  -17.4203  -26.6661   21.4016 H   0  0  0  0  0  0
  -18.0339  -26.0066   22.9011 H   0  0  0  0  0  0
  -19.7936  -30.7258   24.2269 H   0  0  0  0  0  0
  -17.5016  -31.6259   24.5167 H   0  0  0  0  0  0
  -15.5351  -30.2985   23.7645 H   0  0  0  0  0  0
  -15.8670  -28.0830   22.7034 H   0  0  0  0  0  0
  -24.5923  -30.7044   25.7827 H   0  0  0  0  0  0
  -24.8905  -32.2893   26.4864 H   0  0  0  0  0  0
  -25.8084  -30.8950   27.0252 H   0  0  0  0  0  0
  -26.2820  -29.6800   24.1141 H   0  0  0  0  0  0
  -27.3983  -29.7222   25.4590 H   0  0  0  0  0  0
  -27.8695  -30.4292   23.9307 H   0  0  0  0  0  0
  -27.2697  -33.3585   26.2084 H   0  0  0  0  0  0
  -28.3858  -32.6858   25.0289 H   0  0  0  0  0  0
  -28.0744  -31.8390   26.5365 H   0  0  0  0  0  0
  -28.2601  -38.0106   24.7511 H   0  0  0  0  0  0
  -28.1085  -36.2641   24.6264 H   0  0  0  0  0  0
  -27.2314  -37.1432   25.8862 H   0  0  0  0  0  0
  -20.9324  -29.8759   21.6925 H   0  0  0  0  0  0
  -26.0180  -38.2863   24.1417 H   0  0  0  0  0  0
  -31.3603  -19.3546   20.5633 H   0  0  0  0  0  0
  -29.7973  -18.0746   22.7874 H   0  0  0  0  0  0
  -32.5950  -19.8030   22.5629 H   0  0  0  0  0  0
  -33.4823  -18.8317   23.7241 H   0  0  0  0  0  0
  -31.8370  -19.3474   24.0842 H   0  0  0  0  0  0
  -31.6434  -15.6260   23.2332 H   0  0  0  0  0  0
  -31.2492  -16.7896   24.4911 H   0  0  0  0  0  0
  -32.9293  -16.4281   24.1088 H   0  0  0  0  0  0
  -29.3112  -20.3995   22.1795 H   0  0  0  0  0  0
  -28.3843  -19.8975   20.8097 H   0  0  0  0  0  0
  -29.7058  -21.4100   19.3200 H   0  0  0  0  0  0
  -30.7699  -21.8155   20.6407 H   0  0  0  0  0  0
  -28.8407  -22.8406   21.8936 H   0  0  0  0  0  0
  -27.7822  -22.4740   20.5663 H   0  0  0  0  0  0
  -29.0209  -24.0838   19.0991 H   0  0  0  0  0  0
  -30.1537  -24.4176   20.3836 H   0  0  0  0  0  0
  -28.3471  -25.3909   21.7874 H   0  0  0  0  0  0
  -27.1565  -24.9273   20.6219 H   0  0  0  0  0  0
  -32.6538  -17.4323   21.8522 H   0  0  0  0  0  0
  -28.9943  -15.3218   21.5089 H   0  0  0  0  0  0
  1 25  1  0  0  0
  1 30  2  0  0  0
  1 83  1  0  0  0
  2  3  1  0  0  0
  2 25  1  0  0  0
  2 85  1  0  0  0
  2 86  1  0  0  0
  3  4  1  0  0  0
  3 87  1  0  0  0
  3 88  1  0  0  0
  4  5  1  0  0  0
  4 89  1  0  0  0
  4 90  1  0  0  0
  5  6  1  0  0  0
  5 26  1  0  0  0
  5 91  1  0  0  0
  6 25  1  0  0  0
  6 92  1  0  0  0
  6 93  1  0  0  0
  7  8  2  0  0  0
  7 26  1  0  0  0
  7 29  1  0  0  0
  8  9  1  0  0  0
  8 22  1  0  0  0
  9 10  1  0  0  0
  9 27  2  0  0  0
 10 11  2  0  0  0
 10 15  1  0  0  0
 11 12  1  0  0  0
 11 94  1  0  0  0
 12 13  2  0  0  0
 12 95  1  0  0  0
 13 14  1  0  0  0
 13 31  1  0  0  0
 14 15  2  0  0  0
 14 96  1  0  0  0
 15 97  1  0  0  0
 16 17  2  0  0  0
 16 21  1  0  0  0
 16 31  1  0  0  0
 17 18  1  0  0  0
 17 98  1  0  0  0
 18 19  2  0  0  0
 18 99  1  0  0  0
 19 20  1  0  0  0
 19 24  1  0  0  0
 20 21  2  0  0  0
 20100  1  0  0  0
 21 23  1  0  0  0
 22 28  1  0  0  0
 22 32  2  0  0  0
 26 27  1  0  0  0
 28101  1  0  0  0
 28102  1  0  0  0
 29103  1  0  0  0
 29104  1  0  0  0
 33 34  1  0  0  0
 33 66  1  0  0  0
 33 70  2  0  0  0
 34 36  1  0  0  0
 34 59  1  0  0  0
 34105  1  0  0  0
 35 44  2  0  0  0
 35 45  1  0  0  0
 35 68  1  0  0  0
 36 56  1  0  0  0
 36106  1  0  0  0
 37 39  1  0  0  0
 37 47  1  0  0  0
 37 66  1  0  0  0
 37107  1  0  0  0
 38 43  2  0  0  0
 38 46  1  0  0  0
 38 47  1  0  0  0
 39 64  1  0  0  0
 39 67  2  0  0  0
 40 52  1  0  0  0
 40 53  2  0  0  0
 40 58  1  0  0  0
 41108  1  0  0  0
 41109  1  0  0  0
 41110  1  0  0  0
 41 48  1  0  0  0
 42 43  1  0  0  0
 42 66  1  0  0  0
 42111  1  0  0  0
 42112  1  0  0  0
 43 44  1  0  0  0
 44113  1  0  0  0
 45 46  2  0  0  0
 45114  1  0  0  0
 46115  1  0  0  0
 47116  1  0  0  0
 47117  1  0  0  0
 48 56  1  0  0  0
 48 65  1  0  0  0
 48118  1  0  0  0
 49 50  1  0  0  0
 49 53  1  0  0  0
 49 64  1  0  0  0
 49119  1  0  0  0
 50 51  1  0  0  0
 50120  1  0  0  0
 50121  1  0  0  0
 51 52  1  0  0  0
 51122  1  0  0  0
 51123  1  0  0  0
 52124  1  0  0  0
 52125  1  0  0  0
 53 54  1  0  0  0
 54 55  2  0  0  0
 54126  1  0  0  0
 55 57  1  0  0  0
 55127  1  0  0  0
 56 69  2  0  0  0
 57 58  2  0  0  0
 57128  1  0  0  0
 58129  1  0  0  0
 59 60  1  0  0  0
 59 61  1  0  0  0
 59 62  1  0  0  0
 60130  1  0  0  0
 60131  1  0  0  0
 60132  1  0  0  0
 61133  1  0  0  0
 61134  1  0  0  0
 61135  1  0  0  0
 62136  1  0  0  0
 62137  1  0  0  0
 62138  1  0  0  0
 63 65  1  0  0  0
 63139  1  0  0  0
 63140  1  0  0  0
 63141  1  0  0  0
 64142  1  0  0  0
 65143  1  0  0  0
 68 80  1  0  0  0
 71 72  1  0  0  0
 71 82  1  0  0  0
 71 84  2  0  0  0
 72 73  1  0  0  0
 72 76  1  0  0  0
 72144  1  0  0  0
 73 81  1  0  0  0
 73 82  1  0  0  0
 73145  1  0  0  0
 74146  1  0  0  0
 74147  1  0  0  0
 74148  1  0  0  0
 74 81  1  0  0  0
 75 81  1  0  0  0
 75149  1  0  0  0
 75150  1  0  0  0
 75151  1  0  0  0
 76 77  1  0  0  0
 76152  1  0  0  0
 76153  1  0  0  0
 77 78  1  0  0  0
 77154  1  0  0  0
 77155  1  0  0  0
 78 79  1  0  0  0
 78156  1  0  0  0
 78157  1  0  0  0
 79 80  1  0  0  0
 79158  1  0  0  0
 79159  1  0  0  0
 80160  1  0  0  0
 80161  1  0  0  0
 81162  1  0  0  0
 82 83  1  0  0  0
 83163  1  0  0  0
M  ISO  4   1 100  68 101  80 101  83 100
M  END
> <chiral flag>
0

> <version>
0

> <s_m_source_file>
/data/baiqing/PycharmProjects/Reinvent-master-3.2/result/LINK_invent/BTK/process_docking_weight1_custom_sum_contain_oxygen_bond_distance_aromatic_linkinvent_7_9_3/rearranged_h_0119.sdf

> <i_m_source_file_index>
74

> <r_mmod_Potential_Energy-OPLS-2005>
-65.8173980712891

> <r_mmod_Stretch_Energy-OPLS-2005>
46.8202896118164

> <r_mmod_Bend_Energy-OPLS-2005>
105.049263000488

> <r_mmod_Torsional_Energy-OPLS-2005>
243.496826171875

> <r_mmod_Improper_Torsional_Energy-OPLS-2005>
4.28097438812256

> <r_mmod_Van_der_Waal_Energy-OPLS-2005>
117.774871826172

> <r_mmod_Electrostatic_Energy-OPLS-2005>
-396.62646484375

> <r_mmod_Solvation_Energy-OPLS-2005>
-206.463394165039

> <b_mmod_Minimization_Converged-OPLS-2005>
0

> <r_mmod_RMS_Derivative-OPLS-2005>
0.700906932353973

$$$$
74
                    3D
 Structure written by MMmdl.
167175  0  0  1  0            999 V2000
  -30.6275  -14.6162   20.5342 C   0  0  0  0  0  0
  -30.4409  -12.3858   19.4481 C   0  0  0  0  0  0
  -29.5066  -12.5129   18.2234 C   0  0  0  0  0  0
  -28.0295  -12.3518   18.6351 C   0  0  0  0  0  0
  -27.6574  -13.2127   19.8712 C   0  0  2  0  0  0
  -28.7012  -13.0421   20.9987 C   0  0  0  0  0  0
  -25.2574  -13.8160   20.5682 C   0  0  0  0  0  0
  -24.1835  -13.0431   20.9182 C   0  0  0  0  0  0
  -24.6395  -11.6900   20.8735 C   0  0  0  0  0  0
  -23.9066  -10.4283   21.0405 C   0  0  0  0  0  0
  -24.3616   -9.4198   21.9185 C   0  0  0  0  0  0
  -23.6288   -8.2238   22.0759 C   0  0  0  0  0  0
  -22.4273   -8.0276   21.3545 C   0  0  0  0  0  0
  -21.9906   -9.0254   20.4648 C   0  0  0  0  0  0
  -22.7240  -10.2129   20.3057 C   0  0  0  0  0  0
  -21.6850   -6.0735   22.5279 C   0  0  0  0  0  0
  -21.4014   -6.5639   23.8212 C   0  0  0  0  0  0
  -21.3657   -5.6794   24.9175 C   0  0  0  0  0  0
  -21.6042   -4.3056   24.7224 C   0  0  0  0  0  0
  -21.8818   -3.8147   23.4345 C   0  0  0  0  0  0
  -21.9192   -4.6962   22.3403 C   0  0  0  0  0  0
  -22.7857  -13.5224   21.1844 C   0  0  0  0  0  0
  -22.1659   -4.2152   21.0982 F   0  0  0  0  0  0
  -21.5629   -3.4539   25.7733 F   0  0  0  0  0  0
  -30.0210  -13.3910   20.4451 N   0  0  0  0  0  0
  -26.3008  -12.9336   20.3355 N   0  0  0  0  0  0
  -25.9328  -11.6491   20.5780 N   0  0  0  0  0  0
  -22.0503  -12.8219   22.0405 N   0  0  0  0  0  0
  -25.4271  -15.1878   20.4073 N   0  0  0  0  0  0
  -31.7609  -14.8158   20.0890 O   0  0  0  0  0  0
  -21.6634   -6.8875   21.4241 O   0  0  0  0  0  0
  -22.3541  -14.5529   20.6689 O   0  0  0  0  0  0
  -24.6230  -31.8616   23.2035 C   0  0  0  0  0  0
  -25.9079  -32.4802   23.8355 C   0  0  1  0  0  0
  -27.2297  -27.3368   20.1126 C   0  0  0  0  0  0
  -25.5907  -33.8599   24.2285 N   0  0  0  0  0  0
  -23.4171  -30.4860   21.5447 C   0  0  2  0  0  0
  -24.8649  -28.9446   20.1107 C   0  0  0  0  0  0
  -22.7462  -29.4631   22.4915 C   0  0  0  0  0  0
  -18.0281  -28.1394   22.8469 C   0  0  0  0  0  0
  -24.1488  -36.7291   23.2640 C   0  0  0  0  0  0
  -25.9565  -30.7990   21.3714 C   0  0  0  0  0  0
  -26.0321  -29.4274   20.7142 C   0  0  0  0  0  0
  -27.2164  -28.6346   20.7064 C   0  0  0  0  0  0
  -26.0351  -26.9018   19.4885 C   0  0  0  0  0  0
  -24.8672  -27.6864   19.4912 C   0  0  0  0  0  0
  -23.6320  -29.8224   20.1598 C   0  0  0  0  0  0
  -25.4111  -36.3093   24.0333 C   0  0  1  0  0  0
  -20.5882  -28.3684   23.1281 C   0  0  2  0  0  0
  -20.6779  -26.9414   22.5404 C   0  0  0  0  0  0
  -19.5758  -26.6376   21.5212 C   0  0  0  0  0  0
  -18.1931  -26.7932   22.1615 C   0  0  0  0  0  0
  -19.1536  -28.8851   23.2875 C   0  0  0  0  0  0
  -18.9475  -30.1450   23.8897 C   0  0  0  0  0  0
  -17.6482  -30.6598   24.0558 C   0  0  0  0  0  0
  -25.9045  -34.9468   23.5110 C   0  0  0  0  0  0
  -16.5365  -29.9101   23.6337 C   0  0  0  0  0  0
  -16.7274  -28.6523   23.0345 C   0  0  0  0  0  0
  -26.4478  -31.6603   25.0716 C   0  0  0  0  0  0
  -25.3720  -31.3733   26.1449 C   0  0  0  0  0  0
  -27.0321  -30.3041   24.6126 C   0  0  0  0  0  0
  -27.6035  -32.4329   25.7489 C   0  0  0  0  0  0
  -27.5578  -37.1796   24.8466 C   0  0  0  0  0  0
  -21.4173  -29.3047   22.3679 N   0  0  0  0  0  0
  -26.4288  -37.3790   23.9419 N   0  0  0  0  0  0
  -24.6846  -31.0637   22.0982 N   0  0  0  0  0  0
  -23.4195  -28.8159   23.2973 O   0  0  0  0  0  0
  -28.3611  -26.5084   20.1630 O   0  0  0  0  0  0
  -26.5611  -34.8925   22.4671 O   0  0  0  0  0  0
  -23.5387  -32.1396   23.7361 O   0  0  0  0  0  0
  -29.3418  -19.3065   21.8295 C   0  0  0  0  0  0
  -30.5943  -17.7896   19.8797 C   0  0  0  0  0  0
  -29.3260  -17.8814   21.9340 C   0  0  0  0  0  0
  -29.9638  -17.0810   20.9421 C   0  0  0  0  0  0
  -29.9953  -19.9628   20.7596 C   0  0  0  0  0  0
  -29.5401  -18.3205   25.0763 C   0  0  0  0  0  0
  -27.3502  -17.0570   25.0495 C   0  0  0  0  0  0
  -30.2078  -21.5183   20.7352 C   0  0  0  0  0  0
  -29.0809  -22.5114   20.2220 C   0  0  0  0  0  0
  -28.1646  -25.0543   19.9913 C   0  0  0  0  0  0
  -28.3175  -17.9214   24.2327 C   0  0  0  0  0  0
  -29.3617  -24.0851   20.3677 C   0  0  2  0  0  0
  -30.5831  -19.1589   19.8295 N   0  3  0  0  0  0
  -29.8549  -15.6249   21.0285 N   0  0  0  0  0  0
  -28.7175  -17.2165   23.0185 N   0  0  0  0  0  0
  -30.5549  -24.4883   19.5892 N   0  3  0  0  0  0
  -31.4811  -12.5168   19.1443 H   0  0  0  0  0  0
  -30.3812  -11.3836   19.8745 H   0  0  0  0  0  0
  -29.7664  -11.7661   17.4720 H   0  0  0  0  0  0
  -29.6508  -13.4855   17.7511 H   0  0  0  0  0  0
  -27.8613  -11.2974   18.8565 H   0  0  0  0  0  0
  -27.3751  -12.5939   17.7964 H   0  0  0  0  0  0
  -27.6842  -14.2530   19.5463 H   0  0  0  0  0  0
  -28.7090  -12.0115   21.3572 H   0  0  0  0  0  0
  -28.4428  -13.6497   21.8668 H   0  0  0  0  0  0
  -25.2761   -9.5669   22.4762 H   0  0  0  0  0  0
  -23.9993   -7.4626   22.7478 H   0  0  0  0  0  0
  -21.0840   -8.8771   19.8955 H   0  0  0  0  0  0
  -22.3699  -10.9668   19.6167 H   0  0  0  0  0  0
  -21.2006   -7.6148   23.9715 H   0  0  0  0  0  0
  -21.1480   -6.0525   25.9076 H   0  0  0  0  0  0
  -22.0599   -2.7610   23.2846 H   0  0  0  0  0  0
  -22.4113  -11.9866   22.4775 H   0  0  0  0  0  0
  -21.1130  -13.1256   22.2634 H   0  0  0  0  0  0
  -24.6568  -15.8391   20.5117 H   0  0  0  0  0  0
  -26.2746  -15.6298   20.0760 H   0  0  0  0  0  0
  -26.7144  -32.5483   23.1099 H   0  0  0  0  0  0
  -25.0069  -33.9750   25.0436 H   0  0  0  0  0  0
  -22.7097  -31.3057   21.4013 H   0  0  0  0  0  0
  -23.3764  -35.9613   23.3306 H   0  0  0  0  0  0
  -24.3582  -36.8906   22.2057 H   0  0  0  0  0  0
  -23.7227  -37.6485   23.6658 H   0  0  0  0  0  0
  -26.0794  -31.5638   20.6033 H   0  0  0  0  0  0
  -26.8397  -30.8515   21.9963 H   0  0  0  0  0  0
  -28.1121  -29.0007   21.1880 H   0  0  0  0  0  0
  -25.9689  -25.9428   18.9973 H   0  0  0  0  0  0
  -23.9718  -27.3090   19.0171 H   0  0  0  0  0  0
  -23.7478  -30.5998   19.4036 H   0  0  0  0  0  0
  -22.7537  -29.2507   19.8576 H   0  0  0  0  0  0
  -25.1294  -36.1945   25.0828 H   0  0  0  0  0  0
  -20.9966  -28.3260   24.1404 H   0  0  0  0  0  0
  -20.5679  -26.2304   23.3599 H   0  0  0  0  0  0
  -21.6649  -26.7446   22.1198 H   0  0  0  0  0  0
  -19.6929  -25.6287   21.1246 H   0  0  0  0  0  0
  -19.6707  -27.3178   20.6740 H   0  0  0  0  0  0
  -17.4201  -26.6670   21.4021 H   0  0  0  0  0  0
  -18.0328  -26.0084   22.9020 H   0  0  0  0  0  0
  -19.7966  -30.7248   24.2267 H   0  0  0  0  0  0
  -17.5058  -31.6283   24.5150 H   0  0  0  0  0  0
  -15.5372  -30.3012   23.7673 H   0  0  0  0  0  0
  -15.8670  -28.0848   22.7063 H   0  0  0  0  0  0
  -24.5897  -30.7082   25.7775 H   0  0  0  0  0  0
  -24.8911  -32.2909   26.4861 H   0  0  0  0  0  0
  -25.8050  -30.8919   27.0230 H   0  0  0  0  0  0
  -26.2881  -29.6801   24.1166 H   0  0  0  0  0  0
  -27.4083  -29.7284   25.4591 H   0  0  0  0  0  0
  -27.8719  -30.4371   23.9300 H   0  0  0  0  0  0
  -27.2650  -33.3634   26.2058 H   0  0  0  0  0  0
  -28.3856  -32.6883   25.0327 H   0  0  0  0  0  0
  -28.0693  -31.8466   26.5419 H   0  0  0  0  0  0
  -28.2581  -38.0104   24.7523 H   0  0  0  0  0  0
  -28.1092  -36.2636   24.6285 H   0  0  0  0  0  0
  -27.2298  -37.1417   25.8869 H   0  0  0  0  0  0
  -20.9327  -29.8796   21.6931 H   0  0  0  0  0  0
  -26.0176  -38.2866   24.1441 H   0  0  0  0  0  0
  -28.8962  -19.9271   22.5885 H   0  0  0  0  0  0
  -31.1039  -17.3033   19.0601 H   0  0  0  0  0  0
  -29.2347  -18.8686   25.9686 H   0  0  0  0  0  0
  -30.2282  -18.9648   24.5278 H   0  0  0  0  0  0
  -30.1022  -17.4464   25.4072 H   0  0  0  0  0  0
  -27.0129  -17.5885   25.9407 H   0  0  0  0  0  0
  -27.8143  -16.1269   25.3780 H   0  0  0  0  0  0
  -26.4605  -16.8029   24.4715 H   0  0  0  0  0  0
  -31.1172  -21.7049   20.1638 H   0  0  0  0  0  0
  -30.4619  -21.8008   21.7575 H   0  0  0  0  0  0
  -28.1678  -22.2857   20.7750 H   0  0  0  0  0  0
  -28.8491  -22.2795   19.1818 H   0  0  0  0  0  0
  -27.3046  -24.7506   20.5911 H   0  0  0  0  0  0
  -27.8994  -24.8636   18.9508 H   0  0  0  0  0  0
  -27.7632  -18.8213   23.9637 H   0  0  0  0  0  0
  -29.5956  -24.2754   21.4162 H   0  0  0  0  0  0
  -31.0817  -19.6020   19.0549 H   0  0  0  0  0  0
  -29.0011  -15.3029   21.4568 H   0  0  0  0  0  0
  -28.9992  -16.2514   23.1362 H   0  0  0  0  0  0
  -30.4529  -24.2872   18.6080 H   0  0  0  0  0  0
  -31.3900  -24.0426   19.9245 H   0  0  0  0  0  0
  -30.6916  -25.4815   19.6835 H   0  0  0  0  0  0
  1 25  1  0  0  0
  1 30  2  0  0  0
  1 84  1  0  0  0
  2  3  1  0  0  0
  2 25  1  0  0  0
  2 87  1  0  0  0
  2 88  1  0  0  0
  3  4  1  0  0  0
  3 89  1  0  0  0
  3 90  1  0  0  0
  4  5  1  0  0  0
  4 91  1  0  0  0
  4 92  1  0  0  0
  5  6  1  0  0  0
  5 26  1  0  0  0
  5 93  1  0  0  0
  6 25  1  0  0  0
  6 94  1  0  0  0
  6 95  1  0  0  0
  7  8  2  0  0  0
  7 26  1  0  0  0
  7 29  1  0  0  0
  8  9  1  0  0  0
  8 22  1  0  0  0
  9 10  1  0  0  0
  9 27  2  0  0  0
 10 11  2  0  0  0
 10 15  1  0  0  0
 11 12  1  0  0  0
 11 96  1  0  0  0
 12 13  2  0  0  0
 12 97  1  0  0  0
 13 14  1  0  0  0
 13 31  1  0  0  0
 14 15  2  0  0  0
 14 98  1  0  0  0
 15 99  1  0  0  0
 16 17  2  0  0  0
 16 21  1  0  0  0
 16 31  1  0  0  0
 17 18  1  0  0  0
 17100  1  0  0  0
 18 19  2  0  0  0
 18101  1  0  0  0
 19 20  1  0  0  0
 19 24  1  0  0  0
 20 21  2  0  0  0
 20102  1  0  0  0
 21 23  1  0  0  0
 22 28  1  0  0  0
 22 32  2  0  0  0
 26 27  1  0  0  0
 28103  1  0  0  0
 28104  1  0  0  0
 29105  1  0  0  0
 29106  1  0  0  0
 33 34  1  0  0  0
 33 66  1  0  0  0
 33 70  2  0  0  0
 34 36  1  0  0  0
 34 59  1  0  0  0
 34107  1  0  0  0
 35 44  2  0  0  0
 35 45  1  0  0  0
 35 68  1  0  0  0
 36 56  1  0  0  0
 36108  1  0  0  0
 37 39  1  0  0  0
 37 47  1  0  0  0
 37 66  1  0  0  0
 37109  1  0  0  0
 38 43  2  0  0  0
 38 46  1  0  0  0
 38 47  1  0  0  0
 39 64  1  0  0  0
 39 67  2  0  0  0
 40 52  1  0  0  0
 40 53  2  0  0  0
 40 58  1  0  0  0
 41110  1  0  0  0
 41111  1  0  0  0
 41112  1  0  0  0
 41 48  1  0  0  0
 42 43  1  0  0  0
 42 66  1  0  0  0
 42113  1  0  0  0
 42114  1  0  0  0
 43 44  1  0  0  0
 44115  1  0  0  0
 45 46  2  0  0  0
 45116  1  0  0  0
 46117  1  0  0  0
 47118  1  0  0  0
 47119  1  0  0  0
 48 56  1  0  0  0
 48 65  1  0  0  0
 48120  1  0  0  0
 49 50  1  0  0  0
 49 53  1  0  0  0
 49 64  1  0  0  0
 49121  1  0  0  0
 50 51  1  0  0  0
 50122  1  0  0  0
 50123  1  0  0  0
 51 52  1  0  0  0
 51124  1  0  0  0
 51125  1  0  0  0
 52126  1  0  0  0
 52127  1  0  0  0
 53 54  1  0  0  0
 54 55  2  0  0  0
 54128  1  0  0  0
 55 57  1  0  0  0
 55129  1  0  0  0
 56 69  2  0  0  0
 57 58  2  0  0  0
 57130  1  0  0  0
 58131  1  0  0  0
 59 60  1  0  0  0
 59 61  1  0  0  0
 59 62  1  0  0  0
 60132  1  0  0  0
 60133  1  0  0  0
 60134  1  0  0  0
 61135  1  0  0  0
 61136  1  0  0  0
 61137  1  0  0  0
 62138  1  0  0  0
 62139  1  0  0  0
 62140  1  0  0  0
 63 65  1  0  0  0
 63141  1  0  0  0
 63142  1  0  0  0
 63143  1  0  0  0
 64144  1  0  0  0
 65145  1  0  0  0
 68 80  1  0  0  0
 71 73  2  0  0  0
 71 75  1  0  0  0
 71146  1  0  0  0
 72 74  2  0  0  0
 72 83  1  0  0  0
 72147  1  0  0  0
 73 74  1  0  0  0
 73 85  1  0  0  0
 74 84  1  0  0  0
 75 78  1  0  0  0
 75 83  2  0  0  0
 76148  1  0  0  0
 76149  1  0  0  0
 76150  1  0  0  0
 76 81  1  0  0  0
 77 81  1  0  0  0
 77151  1  0  0  0
 77152  1  0  0  0
 77153  1  0  0  0
 78 79  1  0  0  0
 78154  1  0  0  0
 78155  1  0  0  0
 79 82  1  0  0  0
 79156  1  0  0  0
 79157  1  0  0  0
 80 82  1  0  0  0
 80158  1  0  0  0
 80159  1  0  0  0
 81 85  1  0  0  0
 81160  1  0  0  0
 82 86  1  0  0  0
 82161  1  0  0  0
 83162  1  0  0  0
 84163  1  0  0  0
 85164  1  0  0  0
 86165  1  0  0  0
 86166  1  0  0  0
 86167  1  0  0  0
M  CHG  2  83   1  86   1
M  ISO  4   1 100  68 101  80 101  84 100
M  END
> <chiral flag>
0

> <version>
0

> <s_m_source_file>
/data/baiqing/PycharmProjects/Reinvent-master-3.2/result/LINK_invent/BTK/process_docking_weight1_custom_sum_contain_oxygen_bond_distance_aromatic_linkinvent_7_9_3/rearranged_h_0119.sdf

> <i_m_source_file_index>
75

> <r_mmod_Potential_Energy-OPLS-2005>
-372.323669433594

> <r_mmod_Stretch_Energy-OPLS-2005>
76.4854049682617

> <r_mmod_Bend_Energy-OPLS-2005>
141.612365722656

> <r_mmod_Torsional_Energy-OPLS-2005>
218.712860107422

> <r_mmod_Improper_Torsional_Energy-OPLS-2005>
6.20780658721924

> <r_mmod_Van_der_Waal_Energy-OPLS-2005>
148.154251098633

> <r_mmod_Electrostatic_Energy-OPLS-2005>
-87.8720626831055

> <r_mmod_Solvation_Energy-OPLS-2005>
-916.071960449219

> <b_mmod_Minimization_Converged-OPLS-2005>
0

> <r_mmod_RMS_Derivative-OPLS-2005>
1.57279002666473

$$$$
75
                    3D
 Structure written by MMmdl.
170178  0  0  1  0            999 V2000
  -30.6180  -14.7151   20.4661 C   0  0  0  0  0  0
  -30.4332  -12.4341   19.4800 C   0  0  0  0  0  0
  -29.5151  -12.5093   18.2397 C   0  0  0  0  0  0
  -28.0379  -12.3417   18.6453 C   0  0  0  0  0  0
  -27.6460  -13.2298   19.8562 C   0  0  2  0  0  0
  -28.6887  -13.1436   20.9948 C   0  0  0  0  0  0
  -25.2519  -13.8191   20.5695 C   0  0  0  0  0  0
  -24.1810  -13.0441   20.9207 C   0  0  0  0  0  0
  -24.6394  -11.6909   20.8749 C   0  0  0  0  0  0
  -23.9076  -10.4295   21.0406 C   0  0  0  0  0  0
  -24.3618   -9.4204   21.9182 C   0  0  0  0  0  0
  -23.6292   -8.2244   22.0750 C   0  0  0  0  0  0
  -22.4275   -8.0284   21.3547 C   0  0  0  0  0  0
  -21.9916   -9.0261   20.4650 C   0  0  0  0  0  0
  -22.7244  -10.2143   20.3055 C   0  0  0  0  0  0
  -21.6861   -6.0734   22.5276 C   0  0  0  0  0  0
  -21.4017   -6.5639   23.8208 C   0  0  0  0  0  0
  -21.3659   -5.6795   24.9175 C   0  0  0  0  0  0
  -21.6041   -4.3054   24.7228 C   0  0  0  0  0  0
  -21.8820   -3.8145   23.4347 C   0  0  0  0  0  0
  -21.9193   -4.6964   22.3401 C   0  0  0  0  0  0
  -22.7830  -13.5221   21.1867 C   0  0  0  0  0  0
  -22.1661   -4.2146   21.0979 F   0  0  0  0  0  0
  -21.5631   -3.4536   25.7740 F   0  0  0  0  0  0
  -29.9984  -13.4880   20.4251 N   0  0  0  0  0  0
  -26.2950  -12.9395   20.3276 N   0  0  0  0  0  0
  -25.9324  -11.6543   20.5745 N   0  0  0  0  0  0
  -22.0465  -12.8226   22.0424 N   0  0  0  0  0  0
  -25.4216  -15.1915   20.4032 N   0  0  0  0  0  0
  -31.7886  -14.8304   20.0913 O   0  0  0  0  0  0
  -21.6635   -6.8879   21.4240 O   0  0  0  0  0  0
  -22.3519  -14.5535   20.6712 O   0  0  0  0  0  0
  -24.6270  -31.8596   23.1970 C   0  0  0  0  0  0
  -25.9097  -32.4795   23.8335 C   0  0  1  0  0  0
  -27.2242  -27.2873   20.1537 C   0  0  0  0  0  0
  -25.5912  -33.8596   24.2257 N   0  0  0  0  0  0
  -23.4226  -30.4786   21.5403 C   0  0  2  0  0  0
  -24.8734  -28.9214   20.1177 C   0  0  0  0  0  0
  -22.7479  -29.4622   22.4920 C   0  0  0  0  0  0
  -18.0295  -28.1385   22.8501 C   0  0  0  0  0  0
  -24.1483  -36.7291   23.2631 C   0  0  0  0  0  0
  -25.9644  -30.7845   21.3697 C   0  0  0  0  0  0
  -26.0420  -29.4039   20.7215 C   0  0  0  0  0  0
  -27.2240  -28.6011   20.7218 C   0  0  0  0  0  0
  -26.0388  -26.8596   19.5246 C   0  0  0  0  0  0
  -24.8757  -27.6566   19.5061 C   0  0  0  0  0  0
  -23.6423  -29.8064   20.1581 C   0  0  0  0  0  0
  -25.4113  -36.3093   24.0321 C   0  0  1  0  0  0
  -20.5888  -28.3691   23.1290 C   0  0  2  0  0  0
  -20.6770  -26.9411   22.5423 C   0  0  0  0  0  0
  -19.5752  -26.6383   21.5223 C   0  0  0  0  0  0
  -18.1926  -26.7932   22.1631 C   0  0  0  0  0  0
  -19.1540  -28.8855   23.2891 C   0  0  0  0  0  0
  -18.9468  -30.1450   23.8911 C   0  0  0  0  0  0
  -17.6465  -30.6590   24.0558 C   0  0  0  0  0  0
  -25.9059  -34.9466   23.5092 C   0  0  0  0  0  0
  -16.5356  -29.9089   23.6330 C   0  0  0  0  0  0
  -16.7276  -28.6503   23.0363 C   0  0  0  0  0  0
  -26.4456  -31.6625   25.0721 C   0  0  0  0  0  0
  -25.3683  -31.3785   26.1447 C   0  0  0  0  0  0
  -27.0274  -30.3046   24.6175 C   0  0  0  0  0  0
  -27.6012  -32.4350   25.7512 C   0  0  0  0  0  0
  -27.5576  -37.1806   24.8462 C   0  0  0  0  0  0
  -21.4185  -29.3044   22.3675 N   0  0  0  0  0  0
  -26.4288  -37.3790   23.9399 N   0  0  0  0  0  0
  -24.6899  -31.0586   22.0930 N   0  0  0  0  0  0
  -23.4207  -28.8169   23.3005 O   0  0  0  0  0  0
  -28.3397  -26.4334   20.1562 O   0  0  0  0  0  0
  -26.5622  -34.8928   22.4656 O   0  0  0  0  0  0
  -23.5431  -32.1374   23.7304 O   0  0  0  0  0  0
  -28.0643  -18.3980   21.4925 C   0  0  0  0  0  0
  -29.5036  -18.5605   20.9387 C   0  0  1  0  0  0
  -29.3149  -21.0924   21.0335 C   0  0  2  0  0  0
  -28.1925  -20.8748   22.0996 C   0  0  2  0  0  0
  -29.5477  -22.0545   23.9654 C   0  0  0  0  0  0
  -27.5595  -20.6596   24.5871 C   0  0  0  0  0  0
  -27.0594  -23.0773   19.6378 C   0  0  0  0  0  0
  -29.5163  -22.5911   20.4291 C   0  0  0  0  0  0
  -30.0602  -17.2510   20.1655 C   0  0  0  0  0  0
  -28.2531  -25.0934   20.8139 C   0  0  0  0  0  0
  -28.7096  -20.8190   23.5707 C   0  0  0  0  0  0
  -28.4166  -23.7055   19.9948 C   0  0  2  0  0  0
  -29.5607  -19.8682   20.1828 N   0  0  0  0  0  0
  -29.8389  -15.8350   20.6934 N   0  0  0  0  0  0
  -27.3631  -19.6865   21.7582 N   0  3  0  0  0  0
  -31.4778  -12.5471   19.1844 H   0  0  0  0  0  0
  -30.3637  -11.4538   19.9521 H   0  0  0  0  0  0
  -29.7949  -11.7417   17.5176 H   0  0  0  0  0  0
  -29.6527  -13.4670   17.7357 H   0  0  0  0  0  0
  -27.8816  -11.2908   18.8917 H   0  0  0  0  0  0
  -27.3870  -12.5521   17.7968 H   0  0  0  0  0  0
  -27.6473  -14.2553   19.4884 H   0  0  0  0  0  0
  -28.7125  -12.1398   21.4223 H   0  0  0  0  0  0
  -28.4244  -13.8159   21.8126 H   0  0  0  0  0  0
  -25.2768   -9.5684   22.4750 H   0  0  0  0  0  0
  -24.0007   -7.4636   22.7464 H   0  0  0  0  0  0
  -21.0843   -8.8782   19.8952 H   0  0  0  0  0  0
  -22.3702  -10.9677   19.6163 H   0  0  0  0  0  0
  -21.2012   -7.6147   23.9720 H   0  0  0  0  0  0
  -21.1478   -6.0515   25.9078 H   0  0  0  0  0  0
  -22.0599   -2.7602   23.2845 H   0  0  0  0  0  0
  -22.4071  -11.9898   22.4841 H   0  0  0  0  0  0
  -21.1076  -13.1247   22.2598 H   0  0  0  0  0  0
  -24.6318  -15.8257   20.4579 H   0  0  0  0  0  0
  -26.2300  -15.6030   19.9572 H   0  0  0  0  0  0
  -26.7177  -32.5454   23.1104 H   0  0  0  0  0  0
  -25.0077  -33.9756   25.0415 H   0  0  0  0  0  0
  -22.7171  -31.2986   21.3932 H   0  0  0  0  0  0
  -23.3764  -35.9609   23.3305 H   0  0  0  0  0  0
  -24.3569  -36.8902   22.2044 H   0  0  0  0  0  0
  -23.7236  -37.6490   23.6657 H   0  0  0  0  0  0
  -26.0908  -31.5420   20.5941 H   0  0  0  0  0  0
  -26.8463  -30.8450   21.9956 H   0  0  0  0  0  0
  -28.1249  -28.9713   21.1913 H   0  0  0  0  0  0
  -26.0085  -25.8922   19.0489 H   0  0  0  0  0  0
  -23.9820  -27.2823   19.0266 H   0  0  0  0  0  0
  -23.7652  -30.5796   19.3986 H   0  0  0  0  0  0
  -22.7621  -29.2365   19.8557 H   0  0  0  0  0  0
  -25.1308  -36.1928   25.0820 H   0  0  0  0  0  0
  -21.0000  -28.3261   24.1402 H   0  0  0  0  0  0
  -20.5656  -26.2298   23.3619 H   0  0  0  0  0  0
  -21.6636  -26.7423   22.1218 H   0  0  0  0  0  0
  -19.6888  -25.6289   21.1251 H   0  0  0  0  0  0
  -19.6676  -27.3193   20.6750 H   0  0  0  0  0  0
  -17.4186  -26.6689   21.4030 H   0  0  0  0  0  0
  -18.0313  -26.0072   22.9029 H   0  0  0  0  0  0
  -19.7933  -30.7260   24.2293 H   0  0  0  0  0  0
  -17.5014  -31.6273   24.5149 H   0  0  0  0  0  0
  -15.5348  -30.2991   23.7642 H   0  0  0  0  0  0
  -15.8677  -28.0809   22.7098 H   0  0  0  0  0  0
  -24.5891  -30.7082   25.7794 H   0  0  0  0  0  0
  -24.8828  -32.2959   26.4796 H   0  0  0  0  0  0
  -25.8009  -30.9043   27.0273 H   0  0  0  0  0  0
  -26.2847  -29.6852   24.1135 H   0  0  0  0  0  0
  -27.3891  -29.7247   25.4678 H   0  0  0  0  0  0
  -27.8756  -30.4321   23.9443 H   0  0  0  0  0  0
  -27.2641  -33.3685   26.2039 H   0  0  0  0  0  0
  -28.3878  -32.6859   25.0381 H   0  0  0  0  0  0
  -28.0622  -31.8502   26.5485 H   0  0  0  0  0  0
  -28.2600  -38.0096   24.7514 H   0  0  0  0  0  0
  -28.1068  -36.2635   24.6293 H   0  0  0  0  0  0
  -27.2290  -37.1458   25.8861 H   0  0  0  0  0  0
  -20.9348  -29.8785   21.6907 H   0  0  0  0  0  0
  -26.0167  -38.2858   24.1417 H   0  0  0  0  0  0
  -28.1033  -17.8170   22.4144 H   0  0  0  0  0  0
  -27.4538  -17.8177   20.8001 H   0  0  0  0  0  0
  -30.1612  -18.6917   21.8000 H   0  0  0  0  0  0
  -30.2303  -21.0158   21.6191 H   0  0  0  0  0  0
  -27.5165  -21.7272   22.0505 H   0  0  0  0  0  0
  -30.5087  -22.0879   23.4510 H   0  0  0  0  0  0
  -29.7803  -22.0480   25.0308 H   0  0  0  0  0  0
  -29.0239  -22.9867   23.7504 H   0  0  0  0  0  0
  -27.0069  -19.7304   24.4467 H   0  0  0  0  0  0
  -26.8517  -21.4865   24.5261 H   0  0  0  0  0  0
  -27.9437  -20.6390   25.6074 H   0  0  0  0  0  0
  -27.1906  -22.1299   19.1147 H   0  0  0  0  0  0
  -26.4846  -23.7257   18.9789 H   0  0  0  0  0  0
  -26.4443  -22.8987   20.5189 H   0  0  0  0  0  0
  -30.1474  -22.4474   19.5500 H   0  0  0  0  0  0
  -30.1856  -23.1063   21.1188 H   0  0  0  0  0  0
  -31.1306  -17.3924   20.0085 H   0  0  0  0  0  0
  -29.6298  -17.2539   19.1625 H   0  0  0  0  0  0
  -27.3345  -25.0506   21.4048 H   0  0  0  0  0  0
  -29.0386  -25.1151   21.5706 H   0  0  0  0  0  0
  -29.3589  -19.9491   23.6760 H   0  0  0  0  0  0
  -28.8064  -24.0577   19.0385 H   0  0  0  0  0  0
  -28.9264  -19.8511   19.3886 H   0  0  0  0  0  0
  -28.9067  -15.6249   21.0175 H   0  0  0  0  0  0
  -26.6539  -19.5463   22.4587 H   0  0  0  0  0  0
  -26.8882  -19.9194   20.9029 H   0  0  0  0  0  0
  1 25  1  0  0  0
  1 30  2  0  0  0
  1 84  1  0  0  0
  2  3  1  0  0  0
  2 25  1  0  0  0
  2 86  1  0  0  0
  2 87  1  0  0  0
  3  4  1  0  0  0
  3 88  1  0  0  0
  3 89  1  0  0  0
  4  5  1  0  0  0
  4 90  1  0  0  0
  4 91  1  0  0  0
  5  6  1  0  0  0
  5 26  1  0  0  0
  5 92  1  0  0  0
  6 25  1  0  0  0
  6 93  1  0  0  0
  6 94  1  0  0  0
  7  8  2  0  0  0
  7 26  1  0  0  0
  7 29  1  0  0  0
  8  9  1  0  0  0
  8 22  1  0  0  0
  9 10  1  0  0  0
  9 27  2  0  0  0
 10 11  2  0  0  0
 10 15  1  0  0  0
 11 12  1  0  0  0
 11 95  1  0  0  0
 12 13  2  0  0  0
 12 96  1  0  0  0
 13 14  1  0  0  0
 13 31  1  0  0  0
 14 15  2  0  0  0
 14 97  1  0  0  0
 15 98  1  0  0  0
 16 17  2  0  0  0
 16 21  1  0  0  0
 16 31  1  0  0  0
 17 18  1  0  0  0
 17 99  1  0  0  0
 18 19  2  0  0  0
 18100  1  0  0  0
 19 20  1  0  0  0
 19 24  1  0  0  0
 20 21  2  0  0  0
 20101  1  0  0  0
 21 23  1  0  0  0
 22 28  1  0  0  0
 22 32  2  0  0  0
 26 27  1  0  0  0
 28102  1  0  0  0
 28103  1  0  0  0
 29104  1  0  0  0
 29105  1  0  0  0
 33 34  1  0  0  0
 33 66  1  0  0  0
 33 70  2  0  0  0
 34 36  1  0  0  0
 34 59  1  0  0  0
 34106  1  0  0  0
 35 44  2  0  0  0
 35 45  1  0  0  0
 35 68  1  0  0  0
 36 56  1  0  0  0
 36107  1  0  0  0
 37 39  1  0  0  0
 37 47  1  0  0  0
 37 66  1  0  0  0
 37108  1  0  0  0
 38 43  2  0  0  0
 38 46  1  0  0  0
 38 47  1  0  0  0
 39 64  1  0  0  0
 39 67  2  0  0  0
 40 52  1  0  0  0
 40 53  2  0  0  0
 40 58  1  0  0  0
 41109  1  0  0  0
 41110  1  0  0  0
 41111  1  0  0  0
 41 48  1  0  0  0
 42 43  1  0  0  0
 42 66  1  0  0  0
 42112  1  0  0  0
 42113  1  0  0  0
 43 44  1  0  0  0
 44114  1  0  0  0
 45 46  2  0  0  0
 45115  1  0  0  0
 46116  1  0  0  0
 47117  1  0  0  0
 47118  1  0  0  0
 48 56  1  0  0  0
 48 65  1  0  0  0
 48119  1  0  0  0
 49 50  1  0  0  0
 49 53  1  0  0  0
 49 64  1  0  0  0
 49120  1  0  0  0
 50 51  1  0  0  0
 50121  1  0  0  0
 50122  1  0  0  0
 51 52  1  0  0  0
 51123  1  0  0  0
 51124  1  0  0  0
 52125  1  0  0  0
 52126  1  0  0  0
 53 54  1  0  0  0
 54 55  2  0  0  0
 54127  1  0  0  0
 55 57  1  0  0  0
 55128  1  0  0  0
 56 69  2  0  0  0
 57 58  2  0  0  0
 57129  1  0  0  0
 58130  1  0  0  0
 59 60  1  0  0  0
 59 61  1  0  0  0
 59 62  1  0  0  0
 60131  1  0  0  0
 60132  1  0  0  0
 60133  1  0  0  0
 61134  1  0  0  0
 61135  1  0  0  0
 61136  1  0  0  0
 62137  1  0  0  0
 62138  1  0  0  0
 62139  1  0  0  0
 63 65  1  0  0  0
 63140  1  0  0  0
 63141  1  0  0  0
 63142  1  0  0  0
 64143  1  0  0  0
 65144  1  0  0  0
 68 80  1  0  0  0
 71 72  1  0  0  0
 71 85  1  0  0  0
 71145  1  0  0  0
 71146  1  0  0  0
 72 79  1  0  0  0
 72 83  1  0  0  0
 72147  1  0  0  0
 73 74  1  0  0  0
 73 78  1  0  0  0
 73 83  1  0  0  0
 73148  1  0  0  0
 74 81  1  0  0  0
 74 85  1  0  0  0
 74149  1  0  0  0
 75150  1  0  0  0
 75151  1  0  0  0
 75152  1  0  0  0
 75 81  1  0  0  0
 76 81  1  0  0  0
 76153  1  0  0  0
 76154  1  0  0  0
 76155  1  0  0  0
 77156  1  0  0  0
 77157  1  0  0  0
 77158  1  0  0  0
 77 82  1  0  0  0
 78 82  1  0  0  0
 78159  1  0  0  0
 78160  1  0  0  0
 79 84  1  0  0  0
 79161  1  0  0  0
 79162  1  0  0  0
 80 82  1  0  0  0
 80163  1  0  0  0
 80164  1  0  0  0
 81165  1  0  0  0
 82166  1  0  0  0
 83167  1  0  0  0
 84168  1  0  0  0
 85169  1  0  0  0
 85170  1  0  0  0
M  CHG  1  85   1
M  ISO  4   1 100  68 101  80 101  84 100
M  END
> <chiral flag>
0

> <version>
0

> <s_m_source_file>
/data/baiqing/PycharmProjects/Reinvent-master-3.2/result/LINK_invent/BTK/process_docking_weight1_custom_sum_contain_oxygen_bond_distance_aromatic_linkinvent_7_9_3/rearranged_h_0119.sdf

> <i_m_source_file_index>
76

> <r_mmod_Potential_Energy-OPLS-2005>
123.404434204102

> <r_mmod_Stretch_Energy-OPLS-2005>
119.781829833984

> <r_mmod_Bend_Energy-OPLS-2005>
219.205978393555

> <r_mmod_Torsional_Energy-OPLS-2005>
338.417114257812

> <r_mmod_Improper_Torsional_Energy-OPLS-2005>
7.28078174591064

> <r_mmod_Van_der_Waal_Energy-OPLS-2005>
122.599563598633

> <r_mmod_Electrostatic_Energy-OPLS-2005>
-268.903137207031

> <r_mmod_Solvation_Energy-OPLS-2005>
-483.721954345703

> <b_mmod_Minimization_Converged-OPLS-2005>
0

> <r_mmod_RMS_Derivative-OPLS-2005>
2.46932077407837

$$$$
76
                    3D
 Structure written by MMmdl.
179189  0  0  1  0            999 V2000
  -31.0191  -14.5819   21.0088 C   0  0  0  0  0  0
  -31.5520  -12.7396   18.8262 C   0  0  0  0  0  0
  -29.7165  -11.9182   17.2710 C   0  0  0  0  0  0
  -27.4899  -11.7878   18.0394 C   0  0  0  0  0  0
  -27.1221  -12.2449   20.3777 C   0  0  2  0  0  0
  -28.9061  -12.9785   21.4544 C   0  0  0  0  0  0
  -25.4459  -14.3875   20.6962 C   0  0  0  0  0  0
  -24.2241  -13.5722   21.0752 C   0  0  0  0  0  0
  -24.3660  -12.0787   21.0175 C   0  0  0  0  0  0
  -23.7039  -10.7094   21.1626 C   0  0  0  0  0  0
  -24.2568   -9.6548   21.9606 C   0  0  0  0  0  0
  -23.6330   -8.3777   22.0746 C   0  0  0  0  0  0
  -22.4439   -8.1027   21.3570 C   0  0  0  0  0  0
  -21.9670   -9.0921   20.4742 C   0  0  0  0  0  0
  -22.5921  -10.3567   20.3682 C   0  0  0  0  0  0
  -21.7259   -6.0966   22.5174 C   0  0  0  0  0  0
  -21.4286   -6.5818   23.8113 C   0  0  0  0  0  0
  -21.3740   -5.6942   24.9068 C   0  0  0  0  0  0
  -21.6031   -4.3183   24.7151 C   0  0  0  0  0  0
  -21.8777   -3.8269   23.4278 C   0  0  0  0  0  0
  -21.9315   -4.7109   22.3339 C   0  0  0  0  0  0
  -22.7820  -13.9166   21.2721 C   0  0  0  0  0  0
  -22.1716   -4.2231   21.0931 F   0  0  0  0  0  0
  -21.5561   -3.4649   25.7657 F   0  0  0  0  0  0
  -30.6802  -13.3528   20.6733 N   0  0  0  0  0  0
  -25.9619  -12.9606   20.6812 N   0  0  0  0  0  0
  -25.2705  -11.9596   20.2320 N   0  0  0  0  0  0
  -22.0620  -13.1248   22.0769 N   0  0  0  0  0  0
  -26.6274  -16.5397   19.5970 N   0  0  0  0  0  0
  -32.0019  -15.0773   20.4602 O   0  0  0  0  0  0
  -21.7405   -6.9135   21.4075 O   0  0  0  0  0  0
  -22.2519  -14.8413   20.6887 O   0  0  0  0  0  0
  -24.6670  -31.8221   23.1778 C   0  0  0  0  0  0
  -25.9356  -32.4558   23.8166 C   0  0  1  0  0  0
  -26.7897  -26.6787   20.2761 C   0  0  0  0  0  0
  -25.6027  -33.8389   24.2051 N   0  0  0  0  0  0
  -23.4654  -30.4615   21.5364 C   0  0  2  0  0  0
  -24.8510  -28.8571   20.0770 C   0  0  0  0  0  0
  -22.7618  -29.4464   22.4764 C   0  0  0  0  0  0
  -18.0308  -28.1420   22.8460 C   0  0  0  0  0  0
  -24.1498  -36.7192   23.2639 C   0  0  0  0  0  0
  -26.0427  -30.5355   21.4492 C   0  0  0  0  0  0
  -26.0322  -29.1200   20.7807 C   0  0  0  0  0  0
  -27.0283  -28.0351   20.8650 C   0  0  0  0  0  0
  -25.7183  -26.6743   19.3885 C   0  0  0  0  0  0
  -24.7459  -27.6812   19.3343 C   0  0  0  0  0  0
  -23.6913  -29.8378   20.1367 C   0  0  0  0  0  0
  -25.4156  -36.2981   24.0287 C   0  0  1  0  0  0
  -20.5926  -28.3764   23.1187 C   0  0  2  0  0  0
  -20.6811  -26.9454   22.5398 C   0  0  0  0  0  0
  -19.5778  -26.6386   21.5225 C   0  0  0  0  0  0
  -18.1954  -26.7951   22.1624 C   0  0  0  0  0  0
  -19.1564  -28.8915   23.2808 C   0  0  0  0  0  0
  -18.9475  -30.1508   23.8838 C   0  0  0  0  0  0
  -17.6466  -30.6604   24.0559 C   0  0  0  0  0  0
  -25.9135  -34.9345   23.4999 C   0  0  0  0  0  0
  -16.5358  -29.9085   23.6354 C   0  0  0  0  0  0
  -16.7289  -28.6518   23.0350 C   0  0  0  0  0  0
  -26.4559  -31.6540   25.0734 C   0  0  0  0  0  0
  -25.3618  -31.3813   26.1343 C   0  0  0  0  0  0
  -27.0477  -30.2886   24.6595 C   0  0  0  0  0  0
  -27.6084  -32.4339   25.7481 C   0  0  0  0  0  0
  -27.5589  -37.1760   24.8455 C   0  0  0  0  0  0
  -21.4295  -29.3042   22.3510 N   0  0  0  0  0  0
  -26.4293  -37.3730   23.9411 N   0  0  0  0  0  0
  -24.7512  -30.9747   22.1025 N   0  0  0  0  0  0
  -23.4184  -28.7994   23.2966 O   0  0  0  0  0  0
  -27.3280  -25.2879   20.4941 O   0  0  0  0  0  0
  -26.5749  -34.8877   22.4600 O   0  0  0  0  0  0
  -23.5740  -32.1327   23.6825 O   0  0  0  0  0  0
  -27.4155  -14.4710   19.4655 C   0  0  0  0  0  0
  -25.7184  -14.8242   18.4947 C   0  0  0  0  0  0
  -27.5459  -15.2786   21.1980 C   0  0  0  0  0  0
  -24.8253  -16.8097   20.8874 C   0  0  0  0  0  0
  -29.8803  -11.5197   19.5013 C   0  0  0  0  0  0
  -23.6861  -14.2639   16.9703 C   0  0  0  0  0  0
  -24.4668  -12.9909   16.9644 C   0  0  0  0  0  0
  -29.5963  -13.7905   18.5909 C   0  0  0  0  0  0
  -29.0870  -11.6219   19.5943 C   0  0  0  0  0  0
  -25.1925  -14.3093   17.1783 C   0  0  0  0  0  0
  -28.5453  -14.4351   17.9704 C   0  0  1  0  0  0
  -28.2918  -14.2364   16.4261 C   0  0  0  0  0  0
  -27.2072  -21.9823   22.2124 C   0  0  0  0  0  0
  -28.9328  -15.8961   21.6583 C   0  0  0  0  0  0
  -25.0415  -18.6313   20.4936 C   0  0  0  0  0  0
  -25.3643  -20.4091   21.1000 C   0  0  0  0  0  0
  -26.3814  -23.8149   20.5042 C   0  0  0  0  0  0
  -26.4887  -21.9420   20.8534 C   0  0  1  0  0  0
  -24.4913  -15.9703   19.3203 N   0  0  0  0  0  0
  -26.2003  -16.2889   21.8263 N   0  0  0  0  0  0
  -28.5525  -13.5445   19.1023 N   0  0  0  0  0  0
  -30.2363  -15.1998   21.9201 N   0  0  0  0  0  0
  -32.1666  -13.5288   18.3796 H   0  0  0  0  0  0
  -32.2908  -11.9549   19.0150 H   0  0  0  0  0  0
  -29.9730  -10.9035   16.9559 H   0  0  0  0  0  0
  -29.8202  -12.3561   16.2813 H   0  0  0  0  0  0
  -27.1087  -10.7867   17.8212 H   0  0  0  0  0  0
  -26.8057  -12.3768   17.4614 H   0  0  0  0  0  0
  -27.0769  -11.2900   20.9571 H   0  0  0  0  0  0
  -29.1886  -12.1490   22.1036 H   0  0  0  0  0  0
  -28.6207  -13.5174   22.3527 H   0  0  0  0  0  0
  -25.1584   -9.8519   22.5245 H   0  0  0  0  0  0
  -24.0693   -7.6309   22.7220 H   0  0  0  0  0  0
  -21.0903   -8.8917   19.8740 H   0  0  0  0  0  0
  -22.1841  -11.0921   19.6901 H   0  0  0  0  0  0
  -21.2380   -7.6335   23.9664 H   0  0  0  0  0  0
  -21.1533   -6.0656   25.8978 H   0  0  0  0  0  0
  -22.0406   -2.7704   23.2770 H   0  0  0  0  0  0
  -22.4770  -12.3522   22.5767 H   0  0  0  0  0  0
  -21.0805  -13.3206   22.2050 H   0  0  0  0  0  0
  -25.6956  -16.6303   19.1378 H   0  0  0  0  0  0
  -27.3437  -16.1675   18.9845 H   0  0  0  0  0  0
  -26.7347  -32.4945   23.0774 H   0  0  0  0  0  0
  -25.0109  -33.9487   25.0157 H   0  0  0  0  0  0
  -22.7807  -31.3029   21.4024 H   0  0  0  0  0  0
  -23.3812  -35.9463   23.3262 H   0  0  0  0  0  0
  -24.3561  -36.8894   22.2058 H   0  0  0  0  0  0
  -23.7172  -37.6327   23.6729 H   0  0  0  0  0  0
  -26.2853  -31.2660   20.6768 H   0  0  0  0  0  0
  -26.8916  -30.5492   22.1206 H   0  0  0  0  0  0
  -27.8895  -28.1761   21.5042 H   0  0  0  0  0  0
  -25.5064  -25.7847   18.8158 H   0  0  0  0  0  0
  -23.8657  -27.5120   18.7287 H   0  0  0  0  0  0
  -23.8971  -30.6351   19.4222 H   0  0  0  0  0  0
  -22.7758  -29.3560   19.7870 H   0  0  0  0  0  0
  -25.1351  -36.1801   25.0775 H   0  0  0  0  0  0
  -20.9997  -28.3396   24.1315 H   0  0  0  0  0  0
  -20.5753  -26.2375   23.3632 H   0  0  0  0  0  0
  -21.6667  -26.7483   22.1159 H   0  0  0  0  0  0
  -19.6935  -25.6282   21.1293 H   0  0  0  0  0  0
  -19.6718  -27.3169   20.6733 H   0  0  0  0  0  0
  -17.4225  -26.6691   21.4022 H   0  0  0  0  0  0
  -18.0343  -26.0117   22.9043 H   0  0  0  0  0  0
  -19.7944  -30.7355   24.2170 H   0  0  0  0  0  0
  -17.5006  -31.6270   24.5181 H   0  0  0  0  0  0
  -15.5349  -30.2953   23.7729 H   0  0  0  0  0  0
  -15.8696  -28.0825   22.7078 H   0  0  0  0  0  0
  -24.5830  -30.7171   25.7582 H   0  0  0  0  0  0
  -24.8762  -32.3008   26.4604 H   0  0  0  0  0  0
  -25.7757  -30.9029   27.0225 H   0  0  0  0  0  0
  -26.3163  -29.6493   24.1654 H   0  0  0  0  0  0
  -27.3988  -29.7345   25.5306 H   0  0  0  0  0  0
  -27.9129  -30.4062   24.0074 H   0  0  0  0  0  0
  -27.2738  -33.3719   26.1912 H   0  0  0  0  0  0
  -28.3921  -32.6755   25.0287 H   0  0  0  0  0  0
  -28.0710  -31.8540   26.5477 H   0  0  0  0  0  0
  -28.2572  -38.0101   24.7598 H   0  0  0  0  0  0
  -28.1140  -36.2638   24.6203 H   0  0  0  0  0  0
  -27.2309  -37.1290   25.8854 H   0  0  0  0  0  0
  -20.9527  -29.8717   21.6647 H   0  0  0  0  0  0
  -26.0158  -38.2791   24.1442 H   0  0  0  0  0  0
  -30.5545  -11.2125   20.3529 H   0  0  0  0  0  0
  -30.3182  -10.6408   18.9575 H   0  0  0  0  0  0
  -23.0177  -14.4082   17.8207 H   0  0  0  0  0  0
  -23.3217  -14.6481   16.0208 H   0  0  0  0  0  0
  -24.6088  -12.5019   16.0027 H   0  0  0  0  0  0
  -24.3276  -12.3194   17.8092 H   0  0  0  0  0  0
  -30.2032  -14.0330   17.6742 H   0  0  0  0  0  0
  -30.2710  -14.6732   18.8044 H   0  0  0  0  0  0
  -28.8871  -11.0362   20.5180 H   0  0  0  0  0  0
  -28.6289  -10.6510   19.2987 H   0  0  0  0  0  0
  -25.7005  -14.7868   16.3517 H   0  0  0  0  0  0
  -28.7472  -15.5138   18.1038 H   0  0  0  0  0  0
  -27.8050  -13.3485   16.0491 H   0  0  0  0  0  0
  -29.2005  -14.3616   15.8395 H   0  0  0  0  0  0
  -27.7109  -15.0824   16.0716 H   0  0  0  0  0  0
  -27.5684  -20.9982   22.5141 H   0  0  0  0  0  0
  -26.5301  -22.3363   22.9894 H   0  0  0  0  0  0
  -28.0624  -22.6579   22.2028 H   0  0  0  0  0  0
  -29.1757  -16.6471   20.9082 H   0  0  0  0  0  0
  -28.7208  -16.4661   22.5615 H   0  0  0  0  0  0
  -24.0139  -18.7645   20.1686 H   0  0  0  0  0  0
  -25.5521  -18.6724   19.5333 H   0  0  0  0  0  0
  -25.2693  -20.3075   22.1813 H   0  0  0  0  0  0
  -24.4051  -20.8656   20.8582 H   0  0  0  0  0  0
  -25.5294  -24.1265   21.1094 H   0  0  0  0  0  0
  -25.9831  -23.7987   19.4894 H   0  0  0  0  0  0
  -27.2224  -21.5886   20.1298 H   0  0  0  0  0  0
  -30.7924  -15.8059   22.5019 H   0  0  0  0  0  0
  1 25  1  0  0  0
  1 30  2  0  0  0
  1 92  1  0  0  0
  2  3  1  0  0  0
  2 25  1  0  0  0
  2 93  1  0  0  0
  2 94  1  0  0  0
  3  4  1  0  0  0
  3 95  1  0  0  0
  3 96  1  0  0  0
  4  5  1  0  0  0
  4 97  1  0  0  0
  4 98  1  0  0  0
  5  6  1  0  0  0
  5 26  1  0  0  0
  5 99  1  0  0  0
  6 25  1  0  0  0
  6100  1  0  0  0
  6101  1  0  0  0
  7  8  2  0  0  0
  7 26  1  0  0  0
  7 29  1  0  0  0
  8  9  1  0  0  0
  8 22  1  0  0  0
  9 10  1  0  0  0
  9 27  2  0  0  0
 10 11  2  0  0  0
 10 15  1  0  0  0
 11 12  1  0  0  0
 11102  1  0  0  0
 12 13  2  0  0  0
 12103  1  0  0  0
 13 14  1  0  0  0
 13 31  1  0  0  0
 14 15  2  0  0  0
 14104  1  0  0  0
 15105  1  0  0  0
 16 17  2  0  0  0
 16 21  1  0  0  0
 16 31  1  0  0  0
 17 18  1  0  0  0
 17106  1  0  0  0
 18 19  2  0  0  0
 18107  1  0  0  0
 19 20  1  0  0  0
 19 24  1  0  0  0
 20 21  2  0  0  0
 20108  1  0  0  0
 21 23  1  0  0  0
 22 28  1  0  0  0
 22 32  2  0  0  0
 26 27  1  0  0  0
 28109  1  0  0  0
 28110  1  0  0  0
 29111  1  0  0  0
 29112  1  0  0  0
 33 34  1  0  0  0
 33 66  1  0  0  0
 33 70  2  0  0  0
 34 36  1  0  0  0
 34 59  1  0  0  0
 34113  1  0  0  0
 35 44  2  0  0  0
 35 45  1  0  0  0
 35 68  1  0  0  0
 36 56  1  0  0  0
 36114  1  0  0  0
 37 39  1  0  0  0
 37 47  1  0  0  0
 37 66  1  0  0  0
 37115  1  0  0  0
 38 43  2  0  0  0
 38 46  1  0  0  0
 38 47  1  0  0  0
 39 64  1  0  0  0
 39 67  2  0  0  0
 40 52  1  0  0  0
 40 53  2  0  0  0
 40 58  1  0  0  0
 41116  1  0  0  0
 41117  1  0  0  0
 41118  1  0  0  0
 41 48  1  0  0  0
 42 43  1  0  0  0
 42 66  1  0  0  0
 42119  1  0  0  0
 42120  1  0  0  0
 43 44  1  0  0  0
 44121  1  0  0  0
 45 46  2  0  0  0
 45122  1  0  0  0
 46123  1  0  0  0
 47124  1  0  0  0
 47125  1  0  0  0
 48 56  1  0  0  0
 48 65  1  0  0  0
 48126  1  0  0  0
 49 50  1  0  0  0
 49 53  1  0  0  0
 49 64  1  0  0  0
 49127  1  0  0  0
 50 51  1  0  0  0
 50128  1  0  0  0
 50129  1  0  0  0
 51 52  1  0  0  0
 51130  1  0  0  0
 51131  1  0  0  0
 52132  1  0  0  0
 52133  1  0  0  0
 53 54  1  0  0  0
 54 55  2  0  0  0
 54134  1  0  0  0
 55 57  1  0  0  0
 55135  1  0  0  0
 56 69  2  0  0  0
 57 58  2  0  0  0
 57136  1  0  0  0
 58137  1  0  0  0
 59 60  1  0  0  0
 59 61  1  0  0  0
 59 62  1  0  0  0
 60138  1  0  0  0
 60139  1  0  0  0
 60140  1  0  0  0
 61141  1  0  0  0
 61142  1  0  0  0
 61143  1  0  0  0
 62144  1  0  0  0
 62145  1  0  0  0
 62146  1  0  0  0
 63 65  1  0  0  0
 63147  1  0  0  0
 63148  1  0  0  0
 63149  1  0  0  0
 64150  1  0  0  0
 65151  1  0  0  0
 68 87  1  0  0  0
 71 72  1  0  0  0
 71 73  2  0  0  0
 71 91  1  0  0  0
 72 89  2  0  0  0
 72 80  1  0  0  0
 73 84  1  0  0  0
 73 90  1  0  0  0
 74 85  1  0  0  0
 74 89  1  0  0  0
 74 90  2  0  0  0
 75 78  1  0  0  0
 75 79  1  0  0  0
 75152  1  0  0  0
 75153  1  0  0  0
 76 77  1  0  0  0
 76 80  1  0  0  0
 76154  1  0  0  0
 76155  1  0  0  0
 77 80  1  0  0  0
 77156  1  0  0  0
 77157  1  0  0  0
 78 81  1  0  0  0
 78158  1  0  0  0
 78159  1  0  0  0
 79 91  1  0  0  0
 79160  1  0  0  0
 79161  1  0  0  0
 80162  1  0  0  0
 81 82  1  0  0  0
 81 91  1  0  0  0
 81163  1  0  0  0
 82164  1  0  0  0
 82165  1  0  0  0
 82166  1  0  0  0
 83167  1  0  0  0
 83168  1  0  0  0
 83169  1  0  0  0
 83 88  1  0  0  0
 84 92  1  0  0  0
 84170  1  0  0  0
 84171  1  0  0  0
 85 86  1  0  0  0
 85172  1  0  0  0
 85173  1  0  0  0
 86 88  1  0  0  0
 86174  1  0  0  0
 86175  1  0  0  0
 87 88  1  0  0  0
 87176  1  0  0  0
 87177  1  0  0  0
 88178  1  0  0  0
 92179  1  0  0  0
M  ISO  4   1 100  68 101  87 101  92 100
M  END
> <chiral flag>
0

> <version>
0

> <s_m_source_file>
/data/baiqing/PycharmProjects/Reinvent-master-3.2/result/LINK_invent/BTK/process_docking_weight1_custom_sum_contain_oxygen_bond_distance_aromatic_linkinvent_7_9_3/rearranged_h_0119.sdf

> <i_m_source_file_index>
77

> <r_mmod_Potential_Energy-OPLS-2005>
23236.31640625

> <r_mmod_Stretch_Energy-OPLS-2005>
13673.6220703125

> <r_mmod_Bend_Energy-OPLS-2005>
2119.1845703125

> <r_mmod_Torsional_Energy-OPLS-2005>
710.401794433594

> <r_mmod_Improper_Torsional_Energy-OPLS-2005>
76.0371322631836

> <r_mmod_Van_der_Waal_Energy-OPLS-2005>
5819.15673828125

> <r_mmod_Electrostatic_Energy-OPLS-2005>
-827.674926757812

> <r_mmod_Solvation_Energy-OPLS-2005>
-232.397735595703

> <b_mmod_Minimization_Converged-OPLS-2005>
0

> <r_mmod_RMS_Derivative-OPLS-2005>
9.11868762969971

$$$$
77
                    3D
 Structure written by MMmdl.
155164  0  0  1  0            999 V2000
  -30.6737  -14.5352   20.5374 C   0  0  0  0  0  0
  -30.4239  -12.3343   19.4377 C   0  0  0  0  0  0
  -29.5019  -12.5091   18.2132 C   0  0  0  0  0  0
  -28.0207  -12.3687   18.6220 C   0  0  0  0  0  0
  -27.6583  -13.2144   19.8720 C   0  0  2  0  0  0
  -28.7007  -13.0287   20.9980 C   0  0  0  0  0  0
  -25.2577  -13.8166   20.5686 C   0  0  0  0  0  0
  -24.1837  -13.0437   20.9177 C   0  0  0  0  0  0
  -24.6404  -11.6908   20.8732 C   0  0  0  0  0  0
  -23.9079  -10.4289   21.0400 C   0  0  0  0  0  0
  -24.3622   -9.4206   21.9187 C   0  0  0  0  0  0
  -23.6288   -8.2247   22.0764 C   0  0  0  0  0  0
  -22.4271   -8.0289   21.3548 C   0  0  0  0  0  0
  -21.9924   -9.0259   20.4642 C   0  0  0  0  0  0
  -22.7257  -10.2133   20.3042 C   0  0  0  0  0  0
  -21.6851   -6.0737   22.5280 C   0  0  0  0  0  0
  -21.4013   -6.5648   23.8219 C   0  0  0  0  0  0
  -21.3654   -5.6804   24.9177 C   0  0  0  0  0  0
  -21.6045   -4.3062   24.7228 C   0  0  0  0  0  0
  -21.8821   -3.8152   23.4349 C   0  0  0  0  0  0
  -21.9195   -4.6965   22.3404 C   0  0  0  0  0  0
  -22.7856  -13.5226   21.1854 C   0  0  0  0  0  0
  -22.1662   -4.2153   21.0980 F   0  0  0  0  0  0
  -21.5632   -3.4540   25.7738 F   0  0  0  0  0  0
  -30.0237  -13.3398   20.4374 N   0  0  0  0  0  0
  -26.3014  -12.9351   20.3343 N   0  0  0  0  0  0
  -25.9333  -11.6507   20.5759 N   0  0  0  0  0  0
  -22.0517  -12.8184   22.0400 N   0  0  0  0  0  0
  -25.4308  -15.1890   20.4100 N   0  0  0  0  0  0
  -31.8226  -14.6946   20.1156 O   0  0  0  0  0  0
  -21.6636   -6.8879   21.4241 O   0  0  0  0  0  0
  -22.3540  -14.5543   20.6724 O   0  0  0  0  0  0
  -24.6183  -31.8641   23.2080 C   0  0  0  0  0  0
  -25.9063  -32.4801   23.8378 C   0  0  1  0  0  0
  -27.2362  -27.3936   20.0963 C   0  0  0  0  0  0
  -25.5892  -33.8603   24.2288 N   0  0  0  0  0  0
  -23.4076  -30.4891   21.5464 C   0  0  2  0  0  0
  -24.8537  -28.9473   20.1130 C   0  0  0  0  0  0
  -22.7416  -29.4658   22.4944 C   0  0  0  0  0  0
  -18.0265  -28.1411   22.8488 C   0  0  0  0  0  0
  -24.1468  -36.7295   23.2637 C   0  0  0  0  0  0
  -25.9403  -30.8155   21.3684 C   0  0  0  0  0  0
  -26.0145  -29.4463   20.7149 C   0  0  0  0  0  0
  -27.2024  -28.6742   20.7085 C   0  0  0  0  0  0
  -26.0491  -26.9163   19.4934 C   0  0  0  0  0  0
  -24.8674  -27.6824   19.5014 C   0  0  0  0  0  0
  -23.6194  -29.8216   20.1611 C   0  0  0  0  0  0
  -25.4094  -36.3099   24.0337 C   0  0  1  0  0  0
  -20.5853  -28.3714   23.1303 C   0  0  2  0  0  0
  -20.6746  -26.9433   22.5446 C   0  0  0  0  0  0
  -19.5743  -26.6401   21.5223 C   0  0  0  0  0  0
  -18.1906  -26.7965   22.1607 C   0  0  0  0  0  0
  -19.1514  -28.8870   23.2890 C   0  0  0  0  0  0
  -18.9452  -30.1466   23.8916 C   0  0  0  0  0  0
  -17.6460  -30.6613   24.0582 C   0  0  0  0  0  0
  -25.9042  -34.9470   23.5115 C   0  0  0  0  0  0
  -16.5345  -29.9134   23.6331 C   0  0  0  0  0  0
  -16.7253  -28.6546   23.0351 C   0  0  0  0  0  0
  -26.4469  -31.6601   25.0734 C   0  0  0  0  0  0
  -25.3693  -31.3663   26.1425 C   0  0  0  0  0  0
  -27.0361  -30.3057   24.6161 C   0  0  0  0  0  0
  -27.6008  -32.4342   25.7533 C   0  0  0  0  0  0
  -27.5587  -37.1756   24.8434 C   0  0  0  0  0  0
  -21.4135  -29.3064   22.3684 N   0  0  0  0  0  0
  -26.4248  -37.3816   23.9465 N   0  0  0  0  0  0
  -24.6736  -31.0717   22.0991 N   0  0  0  0  0  0
  -23.4160  -28.8194   23.3003 O   0  0  0  0  0  0
  -28.4080  -26.6489   20.1453 O   0  0  0  0  0  0
  -26.5635  -34.8940   22.4695 O   0  0  0  0  0  0
  -23.5367  -32.1411   23.7456 O   0  0  0  0  0  0
  -27.4405  -23.5600   20.4676 C   0  0  0  0  0  0
  -27.4271  -22.1906   20.8282 C   0  0  0  0  0  0
  -29.6844  -23.2185   19.6904 C   0  0  0  0  0  0
  -28.5914  -24.1011   19.8611 C   0  0  0  0  0  0
  -28.5568  -21.3785   20.5879 C   0  0  0  0  0  0
  -29.6528  -17.9503   21.9242 C   0  0  0  0  0  0
  -29.5662  -17.8902   19.8396 C   0  0  0  0  0  0
  -29.6573  -19.0675   20.8476 C   0  0  1  0  0  0
  -30.3246  -17.0246   20.8816 C   0  0  2  0  0  0
  -28.6318  -25.5265   19.2598 C   0  0  0  0  0  0
  -29.6758  -21.9032   20.0430 N   0  0  0  0  0  0
  -28.5092  -19.9971   20.8953 N   0  0  0  0  0  0
  -29.9293  -15.5926   20.9479 N   0  0  0  0  0  0
  -31.4702  -12.4324   19.1419 H   0  0  0  0  0  0
  -30.3232  -11.3322   19.8557 H   0  0  0  0  0  0
  -29.7471  -11.7752   17.4441 H   0  0  0  0  0  0
  -29.6686  -13.4909   17.7661 H   0  0  0  0  0  0
  -27.8300  -11.3132   18.8220 H   0  0  0  0  0  0
  -27.3754  -12.6426   17.7855 H   0  0  0  0  0  0
  -27.6942  -14.2578   19.5575 H   0  0  0  0  0  0
  -28.6904  -12.0026   21.3666 H   0  0  0  0  0  0
  -28.4650  -13.6553   21.8597 H   0  0  0  0  0  0
  -25.2762   -9.5674   22.4763 H   0  0  0  0  0  0
  -23.9999   -7.4641   22.7488 H   0  0  0  0  0  0
  -21.0873   -8.8771   19.8933 H   0  0  0  0  0  0
  -22.3726  -10.9666   19.6137 H   0  0  0  0  0  0
  -21.2009   -7.6155   23.9713 H   0  0  0  0  0  0
  -21.1474   -6.0530   25.9080 H   0  0  0  0  0  0
  -22.0606   -2.7613   23.2850 H   0  0  0  0  0  0
  -22.4141  -11.9800   22.4686 H   0  0  0  0  0  0
  -21.1140  -13.1179   22.2651 H   0  0  0  0  0  0
  -24.6674  -15.8471   20.5232 H   0  0  0  0  0  0
  -26.2820  -15.6262   20.0801 H   0  0  0  0  0  0
  -26.7134  -32.5516   23.1132 H   0  0  0  0  0  0
  -24.9984  -33.9748   25.0391 H   0  0  0  0  0  0
  -22.7000  -31.3088   21.4044 H   0  0  0  0  0  0
  -23.3790  -35.9555   23.3178 H   0  0  0  0  0  0
  -24.3574  -36.9068   22.2084 H   0  0  0  0  0  0
  -23.7140  -37.6408   23.6767 H   0  0  0  0  0  0
  -26.0582  -31.5768   20.5959 H   0  0  0  0  0  0
  -26.8266  -30.8693   21.9886 H   0  0  0  0  0  0
  -28.0974  -29.0528   21.1831 H   0  0  0  0  0  0
  -26.0040  -25.9415   19.0316 H   0  0  0  0  0  0
  -23.9713  -27.2884   19.0414 H   0  0  0  0  0  0
  -23.7390  -30.5964   19.4028 H   0  0  0  0  0  0
  -22.7399  -29.2486   19.8611 H   0  0  0  0  0  0
  -25.1254  -36.1922   25.0815 H   0  0  0  0  0  0
  -20.9953  -28.3322   24.1424 H   0  0  0  0  0  0
  -20.5631  -26.2333   23.3653 H   0  0  0  0  0  0
  -21.6622  -26.7475   22.1261 H   0  0  0  0  0  0
  -19.6907  -25.6309   21.1262 H   0  0  0  0  0  0
  -19.6700  -27.3192   20.6741 H   0  0  0  0  0  0
  -17.4206  -26.6758   21.3966 H   0  0  0  0  0  0
  -18.0253  -26.0091   22.8972 H   0  0  0  0  0  0
  -19.7942  -30.7253   24.2292 H   0  0  0  0  0  0
  -17.5046  -31.6296   24.5195 H   0  0  0  0  0  0
  -15.5350  -30.3053   23.7644 H   0  0  0  0  0  0
  -15.8646  -28.0877   22.7066 H   0  0  0  0  0  0
  -24.6094  -30.6729   25.7801 H   0  0  0  0  0  0
  -24.8583  -32.2756   26.4603 H   0  0  0  0  0  0
  -25.8054  -30.9136   27.0345 H   0  0  0  0  0  0
  -26.2962  -29.6771   24.1199 H   0  0  0  0  0  0
  -27.4121  -29.7335   25.4656 H   0  0  0  0  0  0
  -27.8784  -30.4393   23.9369 H   0  0  0  0  0  0
  -27.2631  -33.3691   26.2019 H   0  0  0  0  0  0
  -28.3873  -32.6800   25.0388 H   0  0  0  0  0  0
  -28.0602  -31.8520   26.5526 H   0  0  0  0  0  0
  -28.2461  -38.0195   24.7724 H   0  0  0  0  0  0
  -28.1231  -36.2751   24.5957 H   0  0  0  0  0  0
  -27.2352  -37.1041   25.8831 H   0  0  0  0  0  0
  -20.9291  -29.8813   21.6936 H   0  0  0  0  0  0
  -26.0123  -38.2848   24.1650 H   0  0  0  0  0  0
  -26.5634  -24.1728   20.6195 H   0  0  0  0  0  0
  -26.5306  -21.7740   21.2694 H   0  0  0  0  0  0
  -30.5924  -23.5680   19.2199 H   0  0  0  0  0  0
  -28.6499  -17.6230   22.2092 H   0  0  0  0  0  0
  -30.2646  -18.1655   22.8012 H   0  0  0  0  0  0
  -30.1072  -18.0546   18.9072 H   0  0  0  0  0  0
  -28.5435  -17.5547   19.6532 H   0  0  0  0  0  0
  -30.6221  -19.5779   20.7998 H   0  0  0  0  0  0
  -31.4043  -17.1885   20.8372 H   0  0  0  0  0  0
  -28.0035  -25.5585   18.3709 H   0  0  0  0  0  0
  -29.6391  -25.6757   18.8704 H   0  0  0  0  0  0
  -27.6497  -19.6483   21.3044 H   0  0  0  0  0  0
  -28.9933  -15.3818   21.2600 H   0  0  0  0  0  0
  1 25  1  0  0  0
  1 30  2  0  0  0
  1 83  1  0  0  0
  2  3  1  0  0  0
  2 25  1  0  0  0
  2 84  1  0  0  0
  2 85  1  0  0  0
  3  4  1  0  0  0
  3 86  1  0  0  0
  3 87  1  0  0  0
  4  5  1  0  0  0
  4 88  1  0  0  0
  4 89  1  0  0  0
  5  6  1  0  0  0
  5 26  1  0  0  0
  5 90  1  0  0  0
  6 25  1  0  0  0
  6 91  1  0  0  0
  6 92  1  0  0  0
  7  8  2  0  0  0
  7 26  1  0  0  0
  7 29  1  0  0  0
  8  9  1  0  0  0
  8 22  1  0  0  0
  9 10  1  0  0  0
  9 27  2  0  0  0
 10 11  2  0  0  0
 10 15  1  0  0  0
 11 12  1  0  0  0
 11 93  1  0  0  0
 12 13  2  0  0  0
 12 94  1  0  0  0
 13 14  1  0  0  0
 13 31  1  0  0  0
 14 15  2  0  0  0
 14 95  1  0  0  0
 15 96  1  0  0  0
 16 17  2  0  0  0
 16 21  1  0  0  0
 16 31  1  0  0  0
 17 18  1  0  0  0
 17 97  1  0  0  0
 18 19  2  0  0  0
 18 98  1  0  0  0
 19 20  1  0  0  0
 19 24  1  0  0  0
 20 21  2  0  0  0
 20 99  1  0  0  0
 21 23  1  0  0  0
 22 28  1  0  0  0
 22 32  2  0  0  0
 26 27  1  0  0  0
 28100  1  0  0  0
 28101  1  0  0  0
 29102  1  0  0  0
 29103  1  0  0  0
 33 34  1  0  0  0
 33 66  1  0  0  0
 33 70  2  0  0  0
 34 36  1  0  0  0
 34 59  1  0  0  0
 34104  1  0  0  0
 35 44  2  0  0  0
 35 45  1  0  0  0
 35 68  1  0  0  0
 36 56  1  0  0  0
 36105  1  0  0  0
 37 39  1  0  0  0
 37 47  1  0  0  0
 37 66  1  0  0  0
 37106  1  0  0  0
 38 43  2  0  0  0
 38 46  1  0  0  0
 38 47  1  0  0  0
 39 64  1  0  0  0
 39 67  2  0  0  0
 40 52  1  0  0  0
 40 53  2  0  0  0
 40 58  1  0  0  0
 41107  1  0  0  0
 41108  1  0  0  0
 41109  1  0  0  0
 41 48  1  0  0  0
 42 43  1  0  0  0
 42 66  1  0  0  0
 42110  1  0  0  0
 42111  1  0  0  0
 43 44  1  0  0  0
 44112  1  0  0  0
 45 46  2  0  0  0
 45113  1  0  0  0
 46114  1  0  0  0
 47115  1  0  0  0
 47116  1  0  0  0
 48 56  1  0  0  0
 48 65  1  0  0  0
 48117  1  0  0  0
 49 50  1  0  0  0
 49 53  1  0  0  0
 49 64  1  0  0  0
 49118  1  0  0  0
 50 51  1  0  0  0
 50119  1  0  0  0
 50120  1  0  0  0
 51 52  1  0  0  0
 51121  1  0  0  0
 51122  1  0  0  0
 52123  1  0  0  0
 52124  1  0  0  0
 53 54  1  0  0  0
 54 55  2  0  0  0
 54125  1  0  0  0
 55 57  1  0  0  0
 55126  1  0  0  0
 56 69  2  0  0  0
 57 58  2  0  0  0
 57127  1  0  0  0
 58128  1  0  0  0
 59 60  1  0  0  0
 59 61  1  0  0  0
 59 62  1  0  0  0
 60129  1  0  0  0
 60130  1  0  0  0
 60131  1  0  0  0
 61132  1  0  0  0
 61133  1  0  0  0
 61134  1  0  0  0
 62135  1  0  0  0
 62136  1  0  0  0
 62137  1  0  0  0
 63 65  1  0  0  0
 63138  1  0  0  0
 63139  1  0  0  0
 63140  1  0  0  0
 64141  1  0  0  0
 65142  1  0  0  0
 68 80  1  0  0  0
 71 72  2  0  0  0
 71 74  1  0  0  0
 71143  1  0  0  0
 72 75  1  0  0  0
 72144  1  0  0  0
 73 74  2  0  0  0
 73 81  1  0  0  0
 73145  1  0  0  0
 74 80  1  0  0  0
 75 81  2  0  0  0
 75 82  1  0  0  0
 76 78  1  0  0  0
 76 79  1  0  0  0
 76146  1  0  0  0
 76147  1  0  0  0
 77 78  1  0  0  0
 77 79  1  0  0  0
 77148  1  0  0  0
 77149  1  0  0  0
 78 82  1  0  0  0
 78150  1  0  0  0
 79 83  1  0  0  0
 79151  1  0  0  0
 80152  1  0  0  0
 80153  1  0  0  0
 82154  1  0  0  0
 83155  1  0  0  0
M  ISO  4   1 100  68 101  80 101  83 100
M  END
> <chiral flag>
0

> <version>
0

> <s_m_source_file>
/data/baiqing/PycharmProjects/Reinvent-master-3.2/result/LINK_invent/BTK/process_docking_weight1_custom_sum_contain_oxygen_bond_distance_aromatic_linkinvent_7_9_3/rearranged_h_0119.sdf

> <i_m_source_file_index>
78

> <r_mmod_Potential_Energy-OPLS-2005>
-165.824783325195

> <r_mmod_Stretch_Energy-OPLS-2005>
46.055549621582

> <r_mmod_Bend_Energy-OPLS-2005>
147.918716430664

> <r_mmod_Torsional_Energy-OPLS-2005>
224.626815795898

> <r_mmod_Improper_Torsional_Energy-OPLS-2005>
4.96872854232788

> <r_mmod_Van_der_Waal_Energy-OPLS-2005>
150.438751220703

> <r_mmod_Electrostatic_Energy-OPLS-2005>
-524.306701660156

> <r_mmod_Solvation_Energy-OPLS-2005>
-237.117324829102

> <b_mmod_Minimization_Converged-OPLS-2005>
0

> <r_mmod_RMS_Derivative-OPLS-2005>
2.07765626907349

$$$$
78
                    3D
 Structure written by MMmdl.
165174  0  0  1  0            999 V2000
  -30.6302  -14.6953   20.4957 C   0  0  0  0  0  0
  -30.4405  -12.4332   19.4490 C   0  0  0  0  0  0
  -29.5054  -12.5023   18.2217 C   0  0  0  0  0  0
  -28.0336  -12.3297   18.6435 C   0  0  0  0  0  0
  -27.6506  -13.2222   19.8541 C   0  0  2  0  0  0
  -28.7013  -13.1234   20.9817 C   0  0  0  0  0  0
  -25.2572  -13.8173   20.5698 C   0  0  0  0  0  0
  -24.1837  -13.0433   20.9193 C   0  0  0  0  0  0
  -24.6412  -11.6896   20.8745 C   0  0  0  0  0  0
  -23.9089  -10.4278   21.0411 C   0  0  0  0  0  0
  -24.3618   -9.4192   21.9196 C   0  0  0  0  0  0
  -23.6287   -8.2233   22.0760 C   0  0  0  0  0  0
  -22.4279   -8.0267   21.3539 C   0  0  0  0  0  0
  -21.9916   -9.0244   20.4642 C   0  0  0  0  0  0
  -22.7258  -10.2125   20.3058 C   0  0  0  0  0  0
  -21.6863   -6.0733   22.5282 C   0  0  0  0  0  0
  -21.4004   -6.5634   23.8208 C   0  0  0  0  0  0
  -21.3643   -5.6794   24.9165 C   0  0  0  0  0  0
  -21.6040   -4.3055   24.7227 C   0  0  0  0  0  0
  -21.8826   -3.8147   23.4353 C   0  0  0  0  0  0
  -21.9187   -4.6958   22.3406 C   0  0  0  0  0  0
  -22.7858  -13.5234   21.1842 C   0  0  0  0  0  0
  -22.1663   -4.2141   21.0991 F   0  0  0  0  0  0
  -21.5623   -3.4551   25.7745 F   0  0  0  0  0  0
  -30.0046  -13.4754   20.4004 N   0  0  0  0  0  0
  -26.3006  -12.9365   20.3322 N   0  0  0  0  0  0
  -25.9359  -11.6518   20.5778 N   0  0  0  0  0  0
  -22.0496  -12.8208   22.0387 N   0  0  0  0  0  0
  -25.4281  -15.1891   20.4090 N   0  0  0  0  0  0
  -31.8139  -14.8158   20.1701 O   0  0  0  0  0  0
  -21.6637   -6.8869   21.4239 O   0  0  0  0  0  0
  -22.3538  -14.5544   20.6702 O   0  0  0  0  0  0
  -24.6322  -31.8562   23.2003 C   0  0  0  0  0  0
  -25.9140  -32.4765   23.8342 C   0  0  1  0  0  0
  -27.2267  -27.2816   20.1041 C   0  0  0  0  0  0
  -25.5934  -33.8567   24.2245 N   0  0  0  0  0  0
  -23.4268  -30.4788   21.5467 C   0  0  2  0  0  0
  -24.8717  -28.9299   20.1164 C   0  0  0  0  0  0
  -22.7503  -29.4596   22.4956 C   0  0  0  0  0  0
  -18.0272  -28.1387   22.8487 C   0  0  0  0  0  0
  -24.1458  -36.7244   23.2647 C   0  0  0  0  0  0
  -25.9748  -30.7715   21.3807 C   0  0  0  0  0  0
  -26.0474  -29.3979   20.7171 C   0  0  0  0  0  0
  -27.2275  -28.5877   20.6968 C   0  0  0  0  0  0
  -26.0191  -26.8743   19.4889 C   0  0  0  0  0  0
  -24.8611  -27.6728   19.4982 C   0  0  0  0  0  0
  -23.6420  -29.8144   20.1634 C   0  0  0  0  0  0
  -25.4085  -36.3064   24.0327 C   0  0  1  0  0  0
  -20.5881  -28.3671   23.1294 C   0  0  2  0  0  0
  -20.6772  -26.9389   22.5426 C   0  0  0  0  0  0
  -19.5743  -26.6364   21.5231 C   0  0  0  0  0  0
  -18.1912  -26.7934   22.1614 C   0  0  0  0  0  0
  -19.1531  -28.8853   23.2880 C   0  0  0  0  0  0
  -18.9466  -30.1476   23.8873 C   0  0  0  0  0  0
  -17.6475  -30.6596   24.0579 C   0  0  0  0  0  0
  -25.9060  -34.9445   23.5079 C   0  0  0  0  0  0
  -16.5366  -29.9080   23.6380 C   0  0  0  0  0  0
  -16.7260  -28.6513   23.0360 C   0  0  0  0  0  0
  -26.4502  -31.6605   25.0757 C   0  0  0  0  0  0
  -25.3702  -31.3741   26.1472 C   0  0  0  0  0  0
  -27.0419  -30.3039   24.6263 C   0  0  0  0  0  0
  -27.6037  -32.4384   25.7513 C   0  0  0  0  0  0
  -27.5554  -37.1764   24.8468 C   0  0  0  0  0  0
  -21.4217  -29.3050   22.3708 N   0  0  0  0  0  0
  -26.4246  -37.3773   23.9459 N   0  0  0  0  0  0
  -24.6975  -31.0531   22.0985 N   0  0  0  0  0  0
  -23.4214  -28.8136   23.3035 O   0  0  0  0  0  0
  -28.3375  -26.4051   20.1434 O   0  0  0  0  0  0
  -26.5642  -34.8944   22.4653 O   0  0  0  0  0  0
  -23.5469  -32.1357   23.7311 O   0  0  0  0  0  0
  -27.6621  -19.7607   21.0139 C   0  0  0  0  0  0
  -26.9748  -20.9463   21.3178 C   0  0  0  0  0  0
  -29.4623  -21.1293   20.1904 C   0  0  0  0  0  0
  -28.9622  -19.7879   20.4666 C   0  0  0  0  0  0
  -28.6747  -22.3082   20.5029 C   0  0  0  0  0  0
  -30.8113  -21.3595   19.5120 C   0  0  0  0  0  0
  -31.3613  -22.7891   19.7327 C   0  0  0  0  0  0
  -29.1812  -23.8081   20.3535 C   0  0  2  0  0  0
  -29.2385  -17.4198   22.4848 C   0  0  0  0  0  0
  -31.5289  -17.5043   21.5525 C   0  0  0  0  0  0
  -29.6265  -18.3810   20.0858 C   0  0  0  0  0  0
  -28.0998  -24.9362   19.9437 C   0  0  0  0  0  0
  -30.0506  -17.2534   21.1816 C   0  0  0  0  0  0
  -27.4695  -22.1790   21.0901 N   0  0  0  0  0  0
  -29.8315  -15.7829   20.8006 N   0  0  0  0  0  0
  -30.3382  -23.8165   19.4222 N   0  3  0  0  0  0
  -31.4801  -12.5609   19.1410 H   0  0  0  0  0  0
  -30.3875  -11.4496   19.9180 H   0  0  0  0  0  0
  -29.7769  -11.7334   17.4979 H   0  0  0  0  0  0
  -29.6319  -13.4610   17.7136 H   0  0  0  0  0  0
  -27.8920  -11.2789   18.9036 H   0  0  0  0  0  0
  -27.3702  -12.5265   17.8010 H   0  0  0  0  0  0
  -27.6522  -14.2491   19.4867 H   0  0  0  0  0  0
  -28.7358  -12.1139   21.3935 H   0  0  0  0  0  0
  -28.4470  -13.7789   21.8170 H   0  0  0  0  0  0
  -25.2767   -9.5666   22.4759 H   0  0  0  0  0  0
  -23.9992   -7.4637   22.7506 H   0  0  0  0  0  0
  -21.0840   -8.8766   19.8960 H   0  0  0  0  0  0
  -22.3728  -10.9647   19.6145 H   0  0  0  0  0  0
  -21.2004   -7.6130   23.9704 H   0  0  0  0  0  0
  -21.1451   -6.0527   25.9068 H   0  0  0  0  0  0
  -22.0618   -2.7621   23.2873 H   0  0  0  0  0  0
  -22.4119  -11.9860   22.4772 H   0  0  0  0  0  0
  -21.1114  -13.1209   22.2594 H   0  0  0  0  0  0
  -24.6567  -15.8394   20.5017 H   0  0  0  0  0  0
  -26.2704  -15.6269   20.0618 H   0  0  0  0  0  0
  -26.7219  -32.5399   23.1085 H   0  0  0  0  0  0
  -25.0169  -33.9715   25.0460 H   0  0  0  0  0  0
  -22.7234  -31.3020   21.4032 H   0  0  0  0  0  0
  -23.3769  -35.9535   23.3285 H   0  0  0  0  0  0
  -24.3542  -36.8883   22.2067 H   0  0  0  0  0  0
  -23.7166  -37.6413   23.6701 H   0  0  0  0  0  0
  -26.1177  -31.5334   20.6132 H   0  0  0  0  0  0
  -26.8528  -30.8126   22.0153 H   0  0  0  0  0  0
  -28.1294  -28.9447   21.1732 H   0  0  0  0  0  0
  -25.9277  -25.9166   19.0019 H   0  0  0  0  0  0
  -23.9601  -27.3036   19.0298 H   0  0  0  0  0  0
  -23.7628  -30.5943   19.4097 H   0  0  0  0  0  0
  -22.7596  -29.2508   19.8559 H   0  0  0  0  0  0
  -25.1248  -36.1887   25.0815 H   0  0  0  0  0  0
  -20.9962  -28.3230   24.1418 H   0  0  0  0  0  0
  -20.5690  -26.2262   23.3622 H   0  0  0  0  0  0
  -21.6629  -26.7423   22.1211 H   0  0  0  0  0  0
  -19.6913  -25.6275   21.1267 H   0  0  0  0  0  0
  -19.6705  -27.3192   20.6784 H   0  0  0  0  0  0
  -17.4203  -26.6745   21.3989 H   0  0  0  0  0  0
  -18.0241  -26.0033   22.8947 H   0  0  0  0  0  0
  -19.7958  -30.7311   24.2188 H   0  0  0  0  0  0
  -17.5033  -31.6291   24.5174 H   0  0  0  0  0  0
  -15.5377  -30.2990   23.7739 H   0  0  0  0  0  0
  -15.8636  -28.0870   22.7066 H   0  0  0  0  0  0
  -24.5977  -30.6945   25.7834 H   0  0  0  0  0  0
  -24.8791  -32.2909   26.4777 H   0  0  0  0  0  0
  -25.8028  -30.9071   27.0340 H   0  0  0  0  0  0
  -26.3064  -29.6732   24.1275 H   0  0  0  0  0  0
  -27.4128  -29.7331   25.4798 H   0  0  0  0  0  0
  -27.8878  -30.4364   23.9506 H   0  0  0  0  0  0
  -27.2666  -33.3750   26.1973 H   0  0  0  0  0  0
  -28.3900  -32.6849   25.0357 H   0  0  0  0  0  0
  -28.0653  -31.8600   26.5532 H   0  0  0  0  0  0
  -28.2547  -38.0102   24.7606 H   0  0  0  0  0  0
  -28.1093  -36.2638   24.6171 H   0  0  0  0  0  0
  -27.2308  -37.1236   25.8885 H   0  0  0  0  0  0
  -20.9406  -29.8747   21.6907 H   0  0  0  0  0  0
  -26.0103  -38.2833   24.1554 H   0  0  0  0  0  0
  -27.1658  -18.8196   21.1970 H   0  0  0  0  0  0
  -25.9825  -20.9085   21.7430 H   0  0  0  0  0  0
  -30.6854  -21.1818   18.4412 H   0  0  0  0  0  0
  -31.5454  -20.6310   19.8623 H   0  0  0  0  0  0
  -32.2385  -22.9501   19.1026 H   0  0  0  0  0  0
  -31.7004  -22.9163   20.7625 H   0  0  0  0  0  0
  -29.5601  -24.0834   21.3392 H   0  0  0  0  0  0
  -29.3013  -18.4313   22.8884 H   0  0  0  0  0  0
  -29.5994  -16.7515   23.2684 H   0  0  0  0  0  0
  -28.1831  -17.1889   22.3386 H   0  0  0  0  0  0
  -31.6584  -18.4823   22.0217 H   0  0  0  0  0  0
  -32.1776  -17.4835   20.6766 H   0  0  0  0  0  0
  -31.9001  -16.7591   22.2568 H   0  0  0  0  0  0
  -30.4659  -18.5655   19.4171 H   0  0  0  0  0  0
  -28.8897  -17.9100   19.4336 H   0  0  0  0  0  0
  -27.2086  -24.7099   20.5286 H   0  0  0  0  0  0
  -27.8214  -24.7693   18.9037 H   0  0  0  0  0  0
  -28.8754  -15.4903   20.9336 H   0  0  0  0  0  0
  -30.0065  -23.6487   18.4860 H   0  0  0  0  0  0
  -30.7671  -24.7281   19.4400 H   0  0  0  0  0  0
  1 25  1  0  0  0
  1 30  2  0  0  0
  1 85  1  0  0  0
  2  3  1  0  0  0
  2 25  1  0  0  0
  2 87  1  0  0  0
  2 88  1  0  0  0
  3  4  1  0  0  0
  3 89  1  0  0  0
  3 90  1  0  0  0
  4  5  1  0  0  0
  4 91  1  0  0  0
  4 92  1  0  0  0
  5  6  1  0  0  0
  5 26  1  0  0  0
  5 93  1  0  0  0
  6 25  1  0  0  0
  6 94  1  0  0  0
  6 95  1  0  0  0
  7  8  2  0  0  0
  7 26  1  0  0  0
  7 29  1  0  0  0
  8  9  1  0  0  0
  8 22  1  0  0  0
  9 10  1  0  0  0
  9 27  2  0  0  0
 10 11  2  0  0  0
 10 15  1  0  0  0
 11 12  1  0  0  0
 11 96  1  0  0  0
 12 13  2  0  0  0
 12 97  1  0  0  0
 13 14  1  0  0  0
 13 31  1  0  0  0
 14 15  2  0  0  0
 14 98  1  0  0  0
 15 99  1  0  0  0
 16 17  2  0  0  0
 16 21  1  0  0  0
 16 31  1  0  0  0
 17 18  1  0  0  0
 17100  1  0  0  0
 18 19  2  0  0  0
 18101  1  0  0  0
 19 20  1  0  0  0
 19 24  1  0  0  0
 20 21  2  0  0  0
 20102  1  0  0  0
 21 23  1  0  0  0
 22 28  1  0  0  0
 22 32  2  0  0  0
 26 27  1  0  0  0
 28103  1  0  0  0
 28104  1  0  0  0
 29105  1  0  0  0
 29106  1  0  0  0
 33 34  1  0  0  0
 33 66  1  0  0  0
 33 70  2  0  0  0
 34 36  1  0  0  0
 34 59  1  0  0  0
 34107  1  0  0  0
 35 44  2  0  0  0
 35 45  1  0  0  0
 35 68  1  0  0  0
 36 56  1  0  0  0
 36108  1  0  0  0
 37 39  1  0  0  0
 37 47  1  0  0  0
 37 66  1  0  0  0
 37109  1  0  0  0
 38 43  2  0  0  0
 38 46  1  0  0  0
 38 47  1  0  0  0
 39 64  1  0  0  0
 39 67  2  0  0  0
 40 52  1  0  0  0
 40 53  2  0  0  0
 40 58  1  0  0  0
 41110  1  0  0  0
 41111  1  0  0  0
 41112  1  0  0  0
 41 48  1  0  0  0
 42 43  1  0  0  0
 42 66  1  0  0  0
 42113  1  0  0  0
 42114  1  0  0  0
 43 44  1  0  0  0
 44115  1  0  0  0
 45 46  2  0  0  0
 45116  1  0  0  0
 46117  1  0  0  0
 47118  1  0  0  0
 47119  1  0  0  0
 48 56  1  0  0  0
 48 65  1  0  0  0
 48120  1  0  0  0
 49 50  1  0  0  0
 49 53  1  0  0  0
 49 64  1  0  0  0
 49121  1  0  0  0
 50 51  1  0  0  0
 50122  1  0  0  0
 50123  1  0  0  0
 51 52  1  0  0  0
 51124  1  0  0  0
 51125  1  0  0  0
 52126  1  0  0  0
 52127  1  0  0  0
 53 54  1  0  0  0
 54 55  2  0  0  0
 54128  1  0  0  0
 55 57  1  0  0  0
 55129  1  0  0  0
 56 69  2  0  0  0
 57 58  2  0  0  0
 57130  1  0  0  0
 58131  1  0  0  0
 59 60  1  0  0  0
 59 61  1  0  0  0
 59 62  1  0  0  0
 60132  1  0  0  0
 60133  1  0  0  0
 60134  1  0  0  0
 61135  1  0  0  0
 61136  1  0  0  0
 61137  1  0  0  0
 62138  1  0  0  0
 62139  1  0  0  0
 62140  1  0  0  0
 63 65  1  0  0  0
 63141  1  0  0  0
 63142  1  0  0  0
 63143  1  0  0  0
 64144  1  0  0  0
 65145  1  0  0  0
 68 82  1  0  0  0
 71 72  2  0  0  0
 71 74  1  0  0  0
 71146  1  0  0  0
 72 84  1  0  0  0
 72147  1  0  0  0
 73 74  2  0  0  0
 73 75  1  0  0  0
 73 76  1  0  0  0
 74 81  1  0  0  0
 75 78  1  0  0  0
 75 84  2  0  0  0
 76 77  1  0  0  0
 76148  1  0  0  0
 76149  1  0  0  0
 77 86  1  0  0  0
 77150  1  0  0  0
 77151  1  0  0  0
 78 82  1  0  0  0
 78 86  1  0  0  0
 78152  1  0  0  0
 79153  1  0  0  0
 79154  1  0  0  0
 79155  1  0  0  0
 79 83  1  0  0  0
 80 83  1  0  0  0
 80156  1  0  0  0
 80157  1  0  0  0
 80158  1  0  0  0
 81 83  1  0  0  0
 81159  1  0  0  0
 81160  1  0  0  0
 82161  1  0  0  0
 82162  1  0  0  0
 83 85  1  0  0  0
 85163  1  0  0  0
 86164  1  0  0  0
 86165  1  0  0  0
M  CHG  1  86   1
M  ISO  4   1 100  68 101  82 101  85 100
M  END
> <chiral flag>
0

> <version>
0

> <s_m_source_file>
/data/baiqing/PycharmProjects/Reinvent-master-3.2/result/LINK_invent/BTK/process_docking_weight1_custom_sum_contain_oxygen_bond_distance_aromatic_linkinvent_7_9_3/rearranged_h_0119.sdf

> <i_m_source_file_index>
79

> <r_mmod_Potential_Energy-OPLS-2005>
-152.58674621582

> <r_mmod_Stretch_Energy-OPLS-2005>
121.710975646973

> <r_mmod_Bend_Energy-OPLS-2005>
173.461074829102

> <r_mmod_Torsional_Energy-OPLS-2005>
222.493240356445

> <r_mmod_Improper_Torsional_Energy-OPLS-2005>
4.90043687820435

> <r_mmod_Van_der_Waal_Energy-OPLS-2005>
151.157562255859

> <r_mmod_Electrostatic_Energy-OPLS-2005>
-430.752685546875

> <r_mmod_Solvation_Energy-OPLS-2005>
-463.543884277344

> <b_mmod_Minimization_Converged-OPLS-2005>
0

> <r_mmod_RMS_Derivative-OPLS-2005>
3.4020369052887

$$$$
79
                    3D
 Structure written by MMmdl.
166174  0  0  1  0            999 V2000
  -30.6501  -14.5428   20.4788 C   0  0  0  0  0  0
  -30.4129  -12.3177   19.4413 C   0  0  0  0  0  0
  -29.4835  -12.4618   18.2144 C   0  0  0  0  0  0
  -28.0058  -12.3230   18.6360 C   0  0  0  0  0  0
  -27.6407  -13.2017   19.8620 C   0  0  2  0  0  0
  -28.6887  -13.0599   20.9891 C   0  0  0  0  0  0
  -25.2452  -13.7945   20.5589 C   0  0  0  0  0  0
  -24.1709  -13.0332   20.9205 C   0  0  0  0  0  0
  -24.6298  -11.6829   20.8832 C   0  0  0  0  0  0
  -23.8985  -10.4236   21.0477 C   0  0  0  0  0  0
  -24.3590   -9.4139   21.9200 C   0  0  0  0  0  0
  -23.6272   -8.2171   22.0754 C   0  0  0  0  0  0
  -22.4254   -8.0248   21.3561 C   0  0  0  0  0  0
  -21.9862   -9.0237   20.4697 C   0  0  0  0  0  0
  -22.7170  -10.2113   20.3112 C   0  0  0  0  0  0
  -21.6843   -6.0735   22.5284 C   0  0  0  0  0  0
  -21.4012   -6.5637   23.8214 C   0  0  0  0  0  0
  -21.3662   -5.6792   24.9171 C   0  0  0  0  0  0
  -21.6041   -4.3048   24.7227 C   0  0  0  0  0  0
  -21.8813   -3.8158   23.4336 C   0  0  0  0  0  0
  -21.9172   -4.6980   22.3399 C   0  0  0  0  0  0
  -22.7770  -13.5211   21.1837 C   0  0  0  0  0  0
  -22.1676   -4.2171   21.0989 F   0  0  0  0  0  0
  -21.5582   -3.4538   25.7729 F   0  0  0  0  0  0
  -30.0046  -13.3476   20.4113 N   0  0  0  0  0  0
  -26.2912  -12.9191   20.3389 N   0  0  0  0  0  0
  -25.9244  -11.6390   20.5920 N   0  0  0  0  0  0
  -22.0321  -12.8314   22.0400 N   0  0  0  0  0  0
  -25.4083  -15.1525   20.3691 N   0  0  0  0  0  0
  -31.8373  -14.6691   20.1800 O   0  0  0  0  0  0
  -21.6606   -6.8870   21.4243 O   0  0  0  0  0  0
  -22.3550  -14.5547   20.6657 O   0  0  0  0  0  0
  -24.6155  -31.8641   23.2132 C   0  0  0  0  0  0
  -25.9038  -32.4817   23.8409 C   0  0  1  0  0  0
  -27.2337  -27.4271   20.0951 C   0  0  0  0  0  0
  -25.5891  -33.8617   24.2345 N   0  0  0  0  0  0
  -23.4053  -30.4940   21.5502 C   0  0  2  0  0  0
  -24.8499  -28.9596   20.1168 C   0  0  0  0  0  0
  -22.7401  -29.4659   22.4955 C   0  0  0  0  0  0
  -18.0264  -28.1401   22.8456 C   0  0  0  0  0  0
  -24.1478  -36.7318   23.2636 C   0  0  0  0  0  0
  -25.9315  -30.8365   21.3568 C   0  0  0  0  0  0
  -26.0112  -29.4688   20.7089 C   0  0  0  0  0  0
  -27.2056  -28.7102   20.6951 C   0  0  0  0  0  0
  -26.0510  -26.9363   19.4953 C   0  0  0  0  0  0
  -24.8635  -27.6940   19.5079 C   0  0  0  0  0  0
  -23.6161  -29.8337   20.1631 C   0  0  0  0  0  0
  -25.4095  -36.3114   24.0343 C   0  0  1  0  0  0
  -20.5852  -28.3702   23.1295 C   0  0  2  0  0  0
  -20.6753  -26.9439   22.5411 C   0  0  0  0  0  0
  -19.5742  -26.6406   21.5198 C   0  0  0  0  0  0
  -18.1916  -26.7941   22.1603 C   0  0  0  0  0  0
  -19.1508  -28.8851   23.2887 C   0  0  0  0  0  0
  -18.9442  -30.1427   23.8952 C   0  0  0  0  0  0
  -17.6456  -30.6597   24.0557 C   0  0  0  0  0  0
  -25.9021  -34.9476   23.5146 C   0  0  0  0  0  0
  -16.5348  -29.9113   23.6293 C   0  0  0  0  0  0
  -16.7256  -28.6525   23.0319 C   0  0  0  0  0  0
  -26.4490  -31.6575   25.0701 C   0  0  0  0  0  0
  -25.3777  -31.3638   26.1446 C   0  0  0  0  0  0
  -27.0296  -30.3039   24.6014 C   0  0  0  0  0  0
  -27.6113  -32.4240   25.7445 C   0  0  0  0  0  0
  -27.5575  -37.1801   24.8469 C   0  0  0  0  0  0
  -21.4127  -29.3064   22.3685 N   0  0  0  0  0  0
  -26.4290  -37.3789   23.9409 N   0  0  0  0  0  0
  -24.6705  -31.0764   22.1010 N   0  0  0  0  0  0
  -23.4165  -28.8191   23.3020 O   0  0  0  0  0  0
  -28.4062  -26.6923   20.1108 O   0  0  0  0  0  0
  -26.5582  -34.8916   22.4712 O   0  0  0  0  0  0
  -23.5339  -32.1381   23.7512 O   0  0  0  0  0  0
  -28.2948  -20.1107   20.2318 C   0  0  0  0  0  0
  -30.5741  -18.8457   21.0535 C   0  0  0  0  0  0
  -28.2195  -18.7415   20.5658 C   0  0  0  0  0  0
  -29.4023  -18.0588   20.9692 C   0  0  0  0  0  0
  -29.5112  -20.7916   20.3323 C   0  0  0  0  0  0
  -26.4844  -19.1186   22.8480 C   0  0  0  0  0  0
  -24.5295  -18.1842   21.5656 C   0  0  0  0  0  0
  -26.8522  -18.0844   20.4925 C   0  0  0  0  0  0
  -29.4347  -16.5637   21.3891 C   0  0  0  0  0  0
  -29.6025  -24.5984   20.6272 C   0  0  0  0  0  0
  -29.5145  -23.1008   21.0562 C   0  0  0  0  0  0
  -28.2891  -25.2563   20.1369 C   0  0  0  0  0  0
  -26.0440  -18.0623   21.8191 C   0  0  0  0  0  0
  -30.6309  -20.1742   20.7590 N   0  0  0  0  0  0
  -29.5873  -22.1400   19.9517 N   0  0  0  0  0  0
  -29.8464  -15.6228   20.3316 N   0  0  0  0  0  0
  -31.4586  -12.4189   19.1374 H   0  0  0  0  0  0
  -30.3236  -11.3253   19.8900 H   0  0  0  0  0  0
  -29.7236  -11.7025   17.4695 H   0  0  0  0  0  0
  -29.6390  -13.4275   17.7299 H   0  0  0  0  0  0
  -27.8305  -11.2730   18.8734 H   0  0  0  0  0  0
  -27.3484  -12.5527   17.7968 H   0  0  0  0  0  0
  -27.6512  -14.2322   19.5120 H   0  0  0  0  0  0
  -28.6707  -12.0507   21.4032 H   0  0  0  0  0  0
  -28.4643  -13.7385   21.8153 H   0  0  0  0  0  0
  -25.2774   -9.5589   22.4715 H   0  0  0  0  0  0
  -23.9961   -7.4558   22.7458 H   0  0  0  0  0  0
  -21.0762   -8.8778   19.9079 H   0  0  0  0  0  0
  -22.3612  -10.9643   19.6226 H   0  0  0  0  0  0
  -21.2038   -7.6159   23.9729 H   0  0  0  0  0  0
  -21.1503   -6.0527   25.9075 H   0  0  0  0  0  0
  -22.0600   -2.7633   23.2818 H   0  0  0  0  0  0
  -22.3803  -11.9942   22.4824 H   0  0  0  0  0  0
  -21.0982  -13.1486   22.2610 H   0  0  0  0  0  0
  -24.6379  -15.8036   20.4354 H   0  0  0  0  0  0
  -26.2784  -15.5815   20.0888 H   0  0  0  0  0  0
  -26.7094  -32.5547   23.1158 H   0  0  0  0  0  0
  -25.0062  -33.9793   25.0503 H   0  0  0  0  0  0
  -22.6993  -31.3147   21.4136 H   0  0  0  0  0  0
  -23.3741  -35.9653   23.3311 H   0  0  0  0  0  0
  -24.3582  -36.8906   22.2049 H   0  0  0  0  0  0
  -23.7222  -37.6525   23.6642 H   0  0  0  0  0  0
  -26.0180  -31.5998   20.5818 H   0  0  0  0  0  0
  -26.8311  -30.9059   21.9599 H   0  0  0  0  0  0
  -28.1015  -29.0989   21.1580 H   0  0  0  0  0  0
  -26.0308  -25.9728   19.0081 H   0  0  0  0  0  0
  -23.9707  -27.3017   19.0412 H   0  0  0  0  0  0
  -23.7405  -30.6150   19.4132 H   0  0  0  0  0  0
  -22.7375  -29.2645   19.8558 H   0  0  0  0  0  0
  -25.1259  -36.1988   25.0835 H   0  0  0  0  0  0
  -20.9927  -28.3264   24.1423 H   0  0  0  0  0  0
  -20.5618  -26.2329   23.3600 H   0  0  0  0  0  0
  -21.6631  -26.7462   22.1242 H   0  0  0  0  0  0
  -19.6940  -25.6327   21.1197 H   0  0  0  0  0  0
  -19.6694  -27.3234   20.6746 H   0  0  0  0  0  0
  -17.4183  -26.6642   21.4013 H   0  0  0  0  0  0
  -18.0355  -26.0116   22.9039 H   0  0  0  0  0  0
  -19.7920  -30.7166   24.2417 H   0  0  0  0  0  0
  -17.5031  -31.6289   24.5119 H   0  0  0  0  0  0
  -15.5348  -30.3036   23.7593 H   0  0  0  0  0  0
  -15.8656  -28.0844   22.7046 H   0  0  0  0  0  0
  -24.6027  -30.6899   25.7773 H   0  0  0  0  0  0
  -24.8895  -32.2770   26.4855 H   0  0  0  0  0  0
  -25.8161  -30.8849   27.0210 H   0  0  0  0  0  0
  -26.2832  -29.6819   24.1076 H   0  0  0  0  0  0
  -27.4094  -29.7218   25.4413 H   0  0  0  0  0  0
  -27.8640  -30.4373   23.9129 H   0  0  0  0  0  0
  -27.2835  -33.3562   26.2037 H   0  0  0  0  0  0
  -28.3944  -32.6714   25.0275 H   0  0  0  0  0  0
  -28.0764  -31.8324   26.5329 H   0  0  0  0  0  0
  -28.2589  -38.0095   24.7494 H   0  0  0  0  0  0
  -28.1062  -36.2622   24.6318 H   0  0  0  0  0  0
  -27.2296  -37.1467   25.8872 H   0  0  0  0  0  0
  -20.9276  -29.8839   21.6950 H   0  0  0  0  0  0
  -26.0177  -38.2857   24.1453 H   0  0  0  0  0  0
  -27.4040  -20.6465   19.9272 H   0  0  0  0  0  0
  -31.5006  -18.3960   21.3812 H   0  0  0  0  0  0
  -25.8633  -19.0728   23.7421 H   0  0  0  0  0  0
  -26.4050  -20.1272   22.4440 H   0  0  0  0  0  0
  -27.5154  -18.9614   23.1686 H   0  0  0  0  0  0
  -23.9648  -18.0245   22.4861 H   0  0  0  0  0  0
  -24.1730  -17.4526   20.8427 H   0  0  0  0  0  0
  -24.2657  -19.1708   21.1834 H   0  0  0  0  0  0
  -26.9744  -17.0923   20.0729 H   0  0  0  0  0  0
  -26.2787  -18.6287   19.7373 H   0  0  0  0  0  0
  -28.4580  -16.2569   21.7682 H   0  0  0  0  0  0
  -30.1094  -16.4618   22.2395 H   0  0  0  0  0  0
  -30.3925  -24.7427   19.8874 H   0  0  0  0  0  0
  -29.9133  -25.1622   21.5074 H   0  0  0  0  0  0
  -28.5967  -22.9325   21.6249 H   0  0  0  0  0  0
  -30.3367  -22.8853   21.7392 H   0  0  0  0  0  0
  -27.4770  -24.9669   20.8068 H   0  0  0  0  0  0
  -28.0396  -24.8846   19.1417 H   0  0  0  0  0  0
  -26.2286  -17.0933   22.2884 H   0  0  0  0  0  0
  -28.8888  -22.3535   19.2467 H   0  0  0  0  0  0
  -30.1027  -16.1277   19.4982 H   0  0  0  0  0  0
  1 25  1  0  0  0
  1 30  2  0  0  0
  1 86  1  0  0  0
  2  3  1  0  0  0
  2 25  1  0  0  0
  2 87  1  0  0  0
  2 88  1  0  0  0
  3  4  1  0  0  0
  3 89  1  0  0  0
  3 90  1  0  0  0
  4  5  1  0  0  0
  4 91  1  0  0  0
  4 92  1  0  0  0
  5  6  1  0  0  0
  5 26  1  0  0  0
  5 93  1  0  0  0
  6 25  1  0  0  0
  6 94  1  0  0  0
  6 95  1  0  0  0
  7  8  2  0  0  0
  7 26  1  0  0  0
  7 29  1  0  0  0
  8  9  1  0  0  0
  8 22  1  0  0  0
  9 10  1  0  0  0
  9 27  2  0  0  0
 10 11  2  0  0  0
 10 15  1  0  0  0
 11 12  1  0  0  0
 11 96  1  0  0  0
 12 13  2  0  0  0
 12 97  1  0  0  0
 13 14  1  0  0  0
 13 31  1  0  0  0
 14 15  2  0  0  0
 14 98  1  0  0  0
 15 99  1  0  0  0
 16 17  2  0  0  0
 16 21  1  0  0  0
 16 31  1  0  0  0
 17 18  1  0  0  0
 17100  1  0  0  0
 18 19  2  0  0  0
 18101  1  0  0  0
 19 20  1  0  0  0
 19 24  1  0  0  0
 20 21  2  0  0  0
 20102  1  0  0  0
 21 23  1  0  0  0
 22 28  1  0  0  0
 22 32  2  0  0  0
 26 27  1  0  0  0
 28103  1  0  0  0
 28104  1  0  0  0
 29105  1  0  0  0
 29106  1  0  0  0
 33 34  1  0  0  0
 33 66  1  0  0  0
 33 70  2  0  0  0
 34 36  1  0  0  0
 34 59  1  0  0  0
 34107  1  0  0  0
 35 44  2  0  0  0
 35 45  1  0  0  0
 35 68  1  0  0  0
 36 56  1  0  0  0
 36108  1  0  0  0
 37 39  1  0  0  0
 37 47  1  0  0  0
 37 66  1  0  0  0
 37109  1  0  0  0
 38 43  2  0  0  0
 38 46  1  0  0  0
 38 47  1  0  0  0
 39 64  1  0  0  0
 39 67  2  0  0  0
 40 52  1  0  0  0
 40 53  2  0  0  0
 40 58  1  0  0  0
 41110  1  0  0  0
 41111  1  0  0  0
 41112  1  0  0  0
 41 48  1  0  0  0
 42 43  1  0  0  0
 42 66  1  0  0  0
 42113  1  0  0  0
 42114  1  0  0  0
 43 44  1  0  0  0
 44115  1  0  0  0
 45 46  2  0  0  0
 45116  1  0  0  0
 46117  1  0  0  0
 47118  1  0  0  0
 47119  1  0  0  0
 48 56  1  0  0  0
 48 65  1  0  0  0
 48120  1  0  0  0
 49 50  1  0  0  0
 49 53  1  0  0  0
 49 64  1  0  0  0
 49121  1  0  0  0
 50 51  1  0  0  0
 50122  1  0  0  0
 50123  1  0  0  0
 51 52  1  0  0  0
 51124  1  0  0  0
 51125  1  0  0  0
 52126  1  0  0  0
 52127  1  0  0  0
 53 54  1  0  0  0
 54 55  2  0  0  0
 54128  1  0  0  0
 55 57  1  0  0  0
 55129  1  0  0  0
 56 69  2  0  0  0
 57 58  2  0  0  0
 57130  1  0  0  0
 58131  1  0  0  0
 59 60  1  0  0  0
 59 61  1  0  0  0
 59 62  1  0  0  0
 60132  1  0  0  0
 60133  1  0  0  0
 60134  1  0  0  0
 61135  1  0  0  0
 61136  1  0  0  0
 61137  1  0  0  0
 62138  1  0  0  0
 62139  1  0  0  0
 62140  1  0  0  0
 63 65  1  0  0  0
 63141  1  0  0  0
 63142  1  0  0  0
 63143  1  0  0  0
 64144  1  0  0  0
 65145  1  0  0  0
 68 82  1  0  0  0
 71 73  2  0  0  0
 71 75  1  0  0  0
 71146  1  0  0  0
 72 74  2  0  0  0
 72 84  1  0  0  0
 72147  1  0  0  0
 73 74  1  0  0  0
 73 78  1  0  0  0
 74 79  1  0  0  0
 75 84  2  0  0  0
 75 85  1  0  0  0
 76148  1  0  0  0
 76149  1  0  0  0
 76150  1  0  0  0
 76 83  1  0  0  0
 77 83  1  0  0  0
 77151  1  0  0  0
 77152  1  0  0  0
 77153  1  0  0  0
 78 83  1  0  0  0
 78154  1  0  0  0
 78155  1  0  0  0
 79 86  1  0  0  0
 79156  1  0  0  0
 79157  1  0  0  0
 80 81  1  0  0  0
 80 82  1  0  0  0
 80158  1  0  0  0
 80159  1  0  0  0
 81 85  1  0  0  0
 81160  1  0  0  0
 81161  1  0  0  0
 82162  1  0  0  0
 82163  1  0  0  0
 83164  1  0  0  0
 85165  1  0  0  0
 86166  1  0  0  0
M  ISO  4   1 100  68 101  82 101  86 100
M  END
> <chiral flag>
0

> <version>
0

> <s_m_source_file>
/data/baiqing/PycharmProjects/Reinvent-master-3.2/result/LINK_invent/BTK/process_docking_weight1_custom_sum_contain_oxygen_bond_distance_aromatic_linkinvent_7_9_3/rearranged_h_0119.sdf

> <i_m_source_file_index>
80

> <r_mmod_Potential_Energy-OPLS-2005>
-95.3803482055664

> <r_mmod_Stretch_Energy-OPLS-2005>
40.7142295837402

> <r_mmod_Bend_Energy-OPLS-2005>
111.152618408203

> <r_mmod_Torsional_Energy-OPLS-2005>
306.316589355469

> <r_mmod_Improper_Torsional_Energy-OPLS-2005>
27.8081741333008

> <r_mmod_Van_der_Waal_Energy-OPLS-2005>
144.892120361328

> <r_mmod_Electrostatic_Energy-OPLS-2005>
-518.787841796875

> <r_mmod_Solvation_Energy-OPLS-2005>
-231.911422729492

> <b_mmod_Minimization_Converged-OPLS-2005>
0

> <r_mmod_RMS_Derivative-OPLS-2005>
4.40076208114624

$$$$
80
                    3D
 Structure written by MMmdl.
173181  0  0  1  0            999 V2000
  -30.6496  -14.6513   20.4748 C   0  0  0  0  0  0
  -30.4314  -12.4013   19.4520 C   0  0  0  0  0  0
  -29.5024  -12.5195   18.2251 C   0  0  0  0  0  0
  -28.0225  -12.3779   18.6301 C   0  0  0  0  0  0
  -27.6488  -13.2354   19.8685 C   0  0  2  0  0  0
  -28.7031  -13.1129   20.9942 C   0  0  0  0  0  0
  -25.2633  -13.8185   20.5901 C   0  0  0  0  0  0
  -24.1859  -13.0429   20.9238 C   0  0  0  0  0  0
  -24.6413  -11.6900   20.8691 C   0  0  0  0  0  0
  -23.9052  -10.4312   21.0344 C   0  0  0  0  0  0
  -24.3607   -9.4238   21.9141 C   0  0  0  0  0  0
  -23.6285   -8.2281   22.0716 C   0  0  0  0  0  0
  -22.4261   -8.0298   21.3516 C   0  0  0  0  0  0
  -21.9904   -9.0260   20.4587 C   0  0  0  0  0  0
  -22.7229  -10.2145   20.2998 C   0  0  0  0  0  0
  -21.6869   -6.0742   22.5294 C   0  0  0  0  0  0
  -21.4027   -6.5633   23.8224 C   0  0  0  0  0  0
  -21.3674   -5.6755   24.9185 C   0  0  0  0  0  0
  -21.6063   -4.3036   24.7231 C   0  0  0  0  0  0
  -21.8810   -3.8136   23.4348 C   0  0  0  0  0  0
  -21.9205   -4.6979   22.3406 C   0  0  0  0  0  0
  -22.7893  -13.5233   21.1914 C   0  0  0  0  0  0
  -22.1664   -4.2175   21.0985 F   0  0  0  0  0  0
  -21.5639   -3.4504   25.7733 F   0  0  0  0  0  0
  -30.0129  -13.4391   20.4166 N   0  0  0  0  0  0
  -26.3000  -12.9387   20.3407 N   0  0  0  0  0  0
  -25.9330  -11.6511   20.5687 N   0  0  0  0  0  0
  -22.0445  -12.8212   22.0377 N   0  0  0  0  0  0
  -25.4467  -15.1962   20.4787 N   0  0  0  0  0  0
  -31.8263  -14.7711   20.1294 O   0  0  0  0  0  0
  -21.6646   -6.8893   21.4236 O   0  0  0  0  0  0
  -22.3693  -14.5623   20.6812 O   0  0  0  0  0  0
  -24.6292  -31.8575   23.2050 C   0  0  0  0  0  0
  -25.9181  -32.4734   23.8351 C   0  0  1  0  0  0
  -27.2106  -27.3024   20.1221 C   0  0  0  0  0  0
  -25.5986  -33.8533   24.2286 N   0  0  0  0  0  0
  -23.4185  -30.4886   21.5456 C   0  0  2  0  0  0
  -24.8631  -28.9459   20.1047 C   0  0  0  0  0  0
  -22.7468  -29.4656   22.4913 C   0  0  0  0  0  0
  -18.0300  -28.1403   22.8491 C   0  0  0  0  0  0
  -24.1486  -36.7246   23.2638 C   0  0  0  0  0  0
  -25.9651  -30.7818   21.3846 C   0  0  0  0  0  0
  -26.0333  -29.4147   20.7154 C   0  0  0  0  0  0
  -27.2089  -28.6054   20.7137 C   0  0  0  0  0  0
  -26.0211  -26.9054   19.4615 C   0  0  0  0  0  0
  -24.8600  -27.6970   19.4702 C   0  0  0  0  0  0
  -23.6288  -29.8250   20.1596 C   0  0  0  0  0  0
  -25.4120  -36.3047   24.0322 C   0  0  1  0  0  0
  -20.5887  -28.3719   23.1237 C   0  0  2  0  0  0
  -20.6764  -26.9431   22.5387 C   0  0  0  0  0  0
  -19.5724  -26.6384   21.5203 C   0  0  0  0  0  0
  -18.1910  -26.7941   22.1616 C   0  0  0  0  0  0
  -19.1543  -28.8877   23.2846 C   0  0  0  0  0  0
  -18.9474  -30.1486   23.8843 C   0  0  0  0  0  0
  -17.6469  -30.6594   24.0570 C   0  0  0  0  0  0
  -25.9079  -34.9417   23.5104 C   0  0  0  0  0  0
  -16.5368  -29.9087   23.6362 C   0  0  0  0  0  0
  -16.7285  -28.6508   23.0371 C   0  0  0  0  0  0
  -26.4553  -31.6562   25.0744 C   0  0  0  0  0  0
  -25.3772  -31.3719   26.1459 C   0  0  0  0  0  0
  -27.0458  -30.2968   24.6312 C   0  0  0  0  0  0
  -27.6062  -32.4365   25.7516 C   0  0  0  0  0  0
  -27.5579  -37.1768   24.8466 C   0  0  0  0  0  0
  -21.4183  -29.3070   22.3628 N   0  0  0  0  0  0
  -26.4281  -37.3759   23.9427 N   0  0  0  0  0  0
  -24.6890  -31.0596   22.0994 N   0  0  0  0  0  0
  -23.4176  -28.8193   23.3000 O   0  0  0  0  0  0
  -28.3064  -26.4204   20.2191 O   0  0  0  0  0  0
  -26.5617  -34.8900   22.4661 O   0  0  0  0  0  0
  -23.5477  -32.1396   23.7395 O   0  0  0  0  0  0
  -27.9187  -19.5815   19.1299 C   0  0  0  0  0  0
  -27.3731  -18.1496   18.9547 C   0  0  0  0  0  0
  -27.9254  -18.0299   21.3612 C   0  0  0  0  0  0
  -29.3303  -18.4301   20.8183 C   0  0  1  0  0  0
  -30.4982  -23.3598   17.9029 C   0  0  0  0  0  0
  -31.8360  -20.5606   21.5398 C   0  0  0  0  0  0
  -30.1933  -17.1850   20.2594 C   0  0  0  0  0  0
  -29.2393  -22.5266   18.2149 C   0  0  0  0  0  0
  -31.0715  -21.1779   20.3675 C   0  0  0  0  0  0
  -28.9662  -23.7830   20.4652 C   0  0  0  0  0  0
  -28.0950  -24.9878   19.8673 C   0  0  0  0  0  0
  -28.8589  -22.3557   19.7171 C   0  0  2  0  0  0
  -29.5303  -21.0351   20.4026 C   0  0  1  0  0  0
  -29.1916  -19.6365   19.8907 N   0  0  0  0  0  0
  -29.8709  -15.7632   20.6792 N   0  0  0  0  0  0
  -26.9905  -17.6287   20.2825 N   0  3  0  0  0  0
  -31.4719  -12.5120   19.1427 H   0  0  0  0  0  0
  -30.3640  -11.4104   19.9029 H   0  0  0  0  0  0
  -29.7588  -11.7678   17.4765 H   0  0  0  0  0  0
  -29.6553  -13.4902   17.7505 H   0  0  0  0  0  0
  -27.8265  -11.3238   18.8286 H   0  0  0  0  0  0
  -27.3808  -12.6550   17.7935 H   0  0  0  0  0  0
  -27.6460  -14.2723   19.5307 H   0  0  0  0  0  0
  -28.7193  -12.0996   21.3988 H   0  0  0  0  0  0
  -28.4673  -13.7705   21.8314 H   0  0  0  0  0  0
  -25.2769   -9.5758   22.4693 H   0  0  0  0  0  0
  -24.0038   -7.4681   22.7425 H   0  0  0  0  0  0
  -21.0867   -8.8727   19.8854 H   0  0  0  0  0  0
  -22.3671  -10.9661   19.6085 H   0  0  0  0  0  0
  -21.1963   -7.6120   23.9753 H   0  0  0  0  0  0
  -21.1531   -6.0475   25.9088 H   0  0  0  0  0  0
  -22.0573   -2.7599   23.2833 H   0  0  0  0  0  0
  -22.3999  -11.9871   22.4817 H   0  0  0  0  0  0
  -21.1044  -13.1238   22.2499 H   0  0  0  0  0  0
  -24.6220  -15.5115   19.9752 H   0  0  0  0  0  0
  -25.2215  -15.5117   21.4193 H   0  0  0  0  0  0
  -26.7223  -32.5385   23.1062 H   0  0  0  0  0  0
  -25.0147  -33.9653   25.0442 H   0  0  0  0  0  0
  -22.7152  -31.3110   21.4062 H   0  0  0  0  0  0
  -23.3765  -35.9552   23.3263 H   0  0  0  0  0  0
  -24.3575  -36.8920   22.2060 H   0  0  0  0  0  0
  -23.7206  -37.6414   23.6702 H   0  0  0  0  0  0
  -26.1246  -31.5583   20.6360 H   0  0  0  0  0  0
  -26.8319  -30.8023   22.0325 H   0  0  0  0  0  0
  -28.1040  -28.9625   21.2049 H   0  0  0  0  0  0
  -25.9431  -25.9615   18.9421 H   0  0  0  0  0  0
  -23.9633  -27.3328   18.9897 H   0  0  0  0  0  0
  -23.7413  -30.6035   19.4045 H   0  0  0  0  0  0
  -22.7477  -29.2519   19.8609 H   0  0  0  0  0  0
  -25.1310  -36.1858   25.0808 H   0  0  0  0  0  0
  -21.0001  -28.3328   24.1345 H   0  0  0  0  0  0
  -20.5655  -26.2361   23.3613 H   0  0  0  0  0  0
  -21.6632  -26.7439   22.1175 H   0  0  0  0  0  0
  -19.6883  -25.6284   21.1239 H   0  0  0  0  0  0
  -19.6646  -27.3181   20.6714 H   0  0  0  0  0  0
  -17.4189  -26.6721   21.4014 H   0  0  0  0  0  0
  -18.0300  -26.0079   22.9004 H   0  0  0  0  0  0
  -19.7952  -30.7340   24.2142 H   0  0  0  0  0  0
  -17.5025  -31.6262   24.5193 H   0  0  0  0  0  0
  -15.5359  -30.2976   23.7698 H   0  0  0  0  0  0
  -15.8686  -28.0814   22.7105 H   0  0  0  0  0  0
  -24.5917  -30.7116   25.7768 H   0  0  0  0  0  0
  -24.9008  -32.2903   26.4895 H   0  0  0  0  0  0
  -25.8073  -30.8853   27.0219 H   0  0  0  0  0  0
  -26.3101  -29.6627   24.1350 H   0  0  0  0  0  0
  -27.4121  -29.7325   25.4904 H   0  0  0  0  0  0
  -27.8973  -30.4210   23.9616 H   0  0  0  0  0  0
  -27.2609  -33.3665   26.2042 H   0  0  0  0  0  0
  -28.3874  -32.6944   25.0353 H   0  0  0  0  0  0
  -28.0732  -31.8554   26.5481 H   0  0  0  0  0  0
  -28.2564  -38.0100   24.7590 H   0  0  0  0  0  0
  -28.1125  -36.2646   24.6218 H   0  0  0  0  0  0
  -27.2311  -37.1305   25.8867 H   0  0  0  0  0  0
  -20.9393  -29.8758   21.6777 H   0  0  0  0  0  0
  -26.0153  -38.2817   24.1471 H   0  0  0  0  0  0
  -27.1470  -20.1531   19.6446 H   0  0  0  0  0  0
  -28.0319  -20.0328   18.1445 H   0  0  0  0  0  0
  -28.1065  -17.5081   18.4665 H   0  0  0  0  0  0
  -26.5055  -18.1367   18.2939 H   0  0  0  0  0  0
  -27.4928  -18.8939   21.8678 H   0  0  0  0  0  0
  -27.9901  -17.2508   22.1199 H   0  0  0  0  0  0
  -29.8742  -18.7657   21.7022 H   0  0  0  0  0  0
  -30.6296  -23.4683   16.8263 H   0  0  0  0  0  0
  -31.4022  -22.8864   18.2785 H   0  0  0  0  0  0
  -30.4503  -24.3670   18.3122 H   0  0  0  0  0  0
  -32.8387  -20.9862   21.5934 H   0  0  0  0  0  0
  -31.9443  -19.4826   21.4182 H   0  0  0  0  0  0
  -31.3386  -20.7558   22.4893 H   0  0  0  0  0  0
  -31.2340  -17.3740   20.5200 H   0  0  0  0  0  0
  -30.1995  -17.1998   19.1682 H   0  0  0  0  0  0
  -29.3746  -21.5584   17.7367 H   0  0  0  0  0  0
  -28.3945  -22.9868   17.6990 H   0  0  0  0  0  0
  -31.4754  -20.7947   19.4275 H   0  0  0  0  0  0
  -31.3275  -22.2358   20.3815 H   0  0  0  0  0  0
  -28.6613  -23.6428   21.5047 H   0  0  0  0  0  0
  -30.0078  -24.0901   20.5250 H   0  0  0  0  0  0
  -27.0803  -24.6929   20.1317 H   0  0  0  0  0  0
  -28.1532  -24.9603   18.7810 H   0  0  0  0  0  0
  -27.7835  -22.1734   19.7365 H   0  0  0  0  0  0
  -29.2059  -21.0699   21.4442 H   0  0  0  0  0  0
  -28.9222  -15.5542   20.9383 H   0  0  0  0  0  0
  -26.8330  -16.6255   20.2577 H   0  0  0  0  0  0
  -26.0970  -18.0278   20.5195 H   0  0  0  0  0  0
  1 25  1  0  0  0
  1 30  2  0  0  0
  1 85  1  0  0  0
  2  3  1  0  0  0
  2 25  1  0  0  0
  2 87  1  0  0  0
  2 88  1  0  0  0
  3  4  1  0  0  0
  3 89  1  0  0  0
  3 90  1  0  0  0
  4  5  1  0  0  0
  4 91  1  0  0  0
  4 92  1  0  0  0
  5  6  1  0  0  0
  5 26  1  0  0  0
  5 93  1  0  0  0
  6 25  1  0  0  0
  6 94  1  0  0  0
  6 95  1  0  0  0
  7  8  2  0  0  0
  7 26  1  0  0  0
  7 29  1  0  0  0
  8  9  1  0  0  0
  8 22  1  0  0  0
  9 10  1  0  0  0
  9 27  2  0  0  0
 10 11  2  0  0  0
 10 15  1  0  0  0
 11 12  1  0  0  0
 11 96  1  0  0  0
 12 13  2  0  0  0
 12 97  1  0  0  0
 13 14  1  0  0  0
 13 31  1  0  0  0
 14 15  2  0  0  0
 14 98  1  0  0  0
 15 99  1  0  0  0
 16 17  2  0  0  0
 16 21  1  0  0  0
 16 31  1  0  0  0
 17 18  1  0  0  0
 17100  1  0  0  0
 18 19  2  0  0  0
 18101  1  0  0  0
 19 20  1  0  0  0
 19 24  1  0  0  0
 20 21  2  0  0  0
 20102  1  0  0  0
 21 23  1  0  0  0
 22 28  1  0  0  0
 22 32  2  0  0  0
 26 27  1  0  0  0
 28103  1  0  0  0
 28104  1  0  0  0
 29105  1  0  0  0
 29106  1  0  0  0
 33 34  1  0  0  0
 33 66  1  0  0  0
 33 70  2  0  0  0
 34 36  1  0  0  0
 34 59  1  0  0  0
 34107  1  0  0  0
 35 44  2  0  0  0
 35 45  1  0  0  0
 35 68  1  0  0  0
 36 56  1  0  0  0
 36108  1  0  0  0
 37 39  1  0  0  0
 37 47  1  0  0  0
 37 66  1  0  0  0
 37109  1  0  0  0
 38 43  2  0  0  0
 38 46  1  0  0  0
 38 47  1  0  0  0
 39 64  1  0  0  0
 39 67  2  0  0  0
 40 52  1  0  0  0
 40 53  2  0  0  0
 40 58  1  0  0  0
 41110  1  0  0  0
 41111  1  0  0  0
 41112  1  0  0  0
 41 48  1  0  0  0
 42 43  1  0  0  0
 42 66  1  0  0  0
 42113  1  0  0  0
 42114  1  0  0  0
 43 44  1  0  0  0
 44115  1  0  0  0
 45 46  2  0  0  0
 45116  1  0  0  0
 46117  1  0  0  0
 47118  1  0  0  0
 47119  1  0  0  0
 48 56  1  0  0  0
 48 65  1  0  0  0
 48120  1  0  0  0
 49 50  1  0  0  0
 49 53  1  0  0  0
 49 64  1  0  0  0
 49121  1  0  0  0
 50 51  1  0  0  0
 50122  1  0  0  0
 50123  1  0  0  0
 51 52  1  0  0  0
 51124  1  0  0  0
 51125  1  0  0  0
 52126  1  0  0  0
 52127  1  0  0  0
 53 54  1  0  0  0
 54 55  2  0  0  0
 54128  1  0  0  0
 55 57  1  0  0  0
 55129  1  0  0  0
 56 69  2  0  0  0
 57 58  2  0  0  0
 57130  1  0  0  0
 58131  1  0  0  0
 59 60  1  0  0  0
 59 61  1  0  0  0
 59 62  1  0  0  0
 60132  1  0  0  0
 60133  1  0  0  0
 60134  1  0  0  0
 61135  1  0  0  0
 61136  1  0  0  0
 61137  1  0  0  0
 62138  1  0  0  0
 62139  1  0  0  0
 62140  1  0  0  0
 63 65  1  0  0  0
 63141  1  0  0  0
 63142  1  0  0  0
 63143  1  0  0  0
 64144  1  0  0  0
 65145  1  0  0  0
 68 81  1  0  0  0
 71 72  1  0  0  0
 71 84  1  0  0  0
 71146  1  0  0  0
 71147  1  0  0  0
 72 86  1  0  0  0
 72148  1  0  0  0
 72149  1  0  0  0
 73 74  1  0  0  0
 73 86  1  0  0  0
 73150  1  0  0  0
 73151  1  0  0  0
 74 77  1  0  0  0
 74 84  1  0  0  0
 74152  1  0  0  0
 75 78  1  0  0  0
 75153  1  0  0  0
 75154  1  0  0  0
 75155  1  0  0  0
 76 79  1  0  0  0
 76156  1  0  0  0
 76157  1  0  0  0
 76158  1  0  0  0
 77 85  1  0  0  0
 77159  1  0  0  0
 77160  1  0  0  0
 78161  1  0  0  0
 78162  1  0  0  0
 78 82  1  0  0  0
 79163  1  0  0  0
 79164  1  0  0  0
 79 83  1  0  0  0
 80 81  1  0  0  0
 80 82  1  0  0  0
 80165  1  0  0  0
 80166  1  0  0  0
 81167  1  0  0  0
 81168  1  0  0  0
 82 83  1  0  0  0
 82169  1  0  0  0
 83 84  1  0  0  0
 83170  1  0  0  0
 85171  1  0  0  0
 86172  1  0  0  0
 86173  1  0  0  0
M  CHG  1  86   1
M  ISO  4   1 100  68 101  81 101  85 100
M  END
> <chiral flag>
0

> <version>
0

> <s_m_source_file>
/data/baiqing/PycharmProjects/Reinvent-master-3.2/result/LINK_invent/BTK/process_docking_weight1_custom_sum_contain_oxygen_bond_distance_aromatic_linkinvent_7_9_3/rearranged_h_0119.sdf

> <i_m_source_file_index>
81

> <r_mmod_Potential_Energy-OPLS-2005>
38.0716400146484

> <r_mmod_Stretch_Energy-OPLS-2005>
116.830955505371

> <r_mmod_Bend_Energy-OPLS-2005>
184.138626098633

> <r_mmod_Torsional_Energy-OPLS-2005>
331.623046875

> <r_mmod_Improper_Torsional_Energy-OPLS-2005>
14.1122093200684

> <r_mmod_Van_der_Waal_Energy-OPLS-2005>
158.471298217773

> <r_mmod_Electrostatic_Energy-OPLS-2005>
-361.72900390625

> <r_mmod_Solvation_Energy-OPLS-2005>
-464.691833496094

> <b_mmod_Minimization_Converged-OPLS-2005>
0

> <r_mmod_RMS_Derivative-OPLS-2005>
4.90234851837158

$$$$
81
                    3D
 Structure written by MMmdl.
162170  0  0  1  0            999 V2000
  -30.7182  -14.5225   20.5388 C   0  0  0  0  0  0
  -30.4107  -12.3323   19.4393 C   0  0  0  0  0  0
  -29.4944  -12.4961   18.2112 C   0  0  0  0  0  0
  -28.0171  -12.3561   18.6231 C   0  0  0  0  0  0
  -27.6513  -13.2185   19.8609 C   0  0  2  0  0  0
  -28.6943  -13.0616   20.9913 C   0  0  0  0  0  0
  -25.2532  -13.8162   20.5681 C   0  0  0  0  0  0
  -24.1788  -13.0437   20.9167 C   0  0  0  0  0  0
  -24.6366  -11.6908   20.8709 C   0  0  0  0  0  0
  -23.9029  -10.4298   21.0369 C   0  0  0  0  0  0
  -24.3582   -9.4221   21.9156 C   0  0  0  0  0  0
  -23.6279   -8.2241   22.0746 C   0  0  0  0  0  0
  -22.4254   -8.0258   21.3540 C   0  0  0  0  0  0
  -21.9876   -9.0232   20.4649 C   0  0  0  0  0  0
  -22.7193  -10.2118   20.3041 C   0  0  0  0  0  0
  -21.6859   -6.0719   22.5277 C   0  0  0  0  0  0
  -21.4021   -6.5620   23.8200 C   0  0  0  0  0  0
  -21.3662   -5.6774   24.9178 C   0  0  0  0  0  0
  -21.6042   -4.3042   24.7225 C   0  0  0  0  0  0
  -21.8821   -3.8129   23.4347 C   0  0  0  0  0  0
  -21.9201   -4.6947   22.3399 C   0  0  0  0  0  0
  -22.7819  -13.5250   21.1828 C   0  0  0  0  0  0
  -22.1670   -4.2139   21.0978 F   0  0  0  0  0  0
  -21.5636   -3.4520   25.7737 F   0  0  0  0  0  0
  -30.0176  -13.3588   20.4230 N   0  0  0  0  0  0
  -26.2966  -12.9363   20.3310 N   0  0  0  0  0  0
  -25.9291  -11.6515   20.5704 N   0  0  0  0  0  0
  -22.0441  -12.8270   22.0392 N   0  0  0  0  0  0
  -25.4247  -15.1890   20.4141 N   0  0  0  0  0  0
  -31.8740  -14.6229   20.1159 O   0  0  0  0  0  0
  -21.6641   -6.8850   21.4231 O   0  0  0  0  0  0
  -22.3517  -14.5573   20.6709 O   0  0  0  0  0  0
  -24.6209  -31.8653   23.2095 C   0  0  0  0  0  0
  -25.9104  -32.4796   23.8385 C   0  0  1  0  0  0
  -27.2020  -27.3676   20.0994 C   0  0  0  0  0  0
  -25.5953  -33.8597   24.2321 N   0  0  0  0  0  0
  -23.4085  -30.4959   21.5533 C   0  0  2  0  0  0
  -24.8493  -28.9713   20.1079 C   0  0  0  0  0  0
  -22.7451  -29.4655   22.4973 C   0  0  0  0  0  0
  -18.0287  -28.1365   22.8479 C   0  0  0  0  0  0
  -24.1493  -36.7283   23.2612 C   0  0  0  0  0  0
  -25.9480  -30.8102   21.3774 C   0  0  0  0  0  0
  -26.0185  -29.4459   20.7152 C   0  0  0  0  0  0
  -27.2002  -28.6542   20.7068 C   0  0  0  0  0  0
  -26.0139  -26.9485   19.4518 C   0  0  0  0  0  0
  -24.8482  -27.7267   19.4677 C   0  0  0  0  0  0
  -23.6162  -29.8443   20.1636 C   0  0  0  0  0  0
  -25.4097  -36.3076   24.0332 C   0  0  1  0  0  0
  -20.5884  -28.3663   23.1293 C   0  0  2  0  0  0
  -20.6784  -26.9401   22.5396 C   0  0  0  0  0  0
  -19.5755  -26.6378   21.5196 C   0  0  0  0  0  0
  -18.1931  -26.7917   22.1609 C   0  0  0  0  0  0
  -19.1538  -28.8835   23.2878 C   0  0  0  0  0  0
  -18.9465  -30.1458   23.8877 C   0  0  0  0  0  0
  -17.6460  -30.6576   24.0562 C   0  0  0  0  0  0
  -25.9044  -34.9456   23.5110 C   0  0  0  0  0  0
  -16.5348  -29.9066   23.6336 C   0  0  0  0  0  0
  -16.7277  -28.6492   23.0344 C   0  0  0  0  0  0
  -26.4502  -31.6571   25.0724 C   0  0  0  0  0  0
  -25.3766  -31.3727   26.1486 C   0  0  0  0  0  0
  -27.0298  -30.2984   24.6128 C   0  0  0  0  0  0
  -27.6083  -32.4272   25.7482 C   0  0  0  0  0  0
  -27.5619  -37.1732   24.8417 C   0  0  0  0  0  0
  -21.4174  -29.3037   22.3719 N   0  0  0  0  0  0
  -26.4247  -37.3794   23.9471 N   0  0  0  0  0  0
  -24.6780  -31.0722   22.1033 N   0  0  0  0  0  0
  -23.4209  -28.8158   23.2995 O   0  0  0  0  0  0
  -28.3091  -26.5199   20.1600 O   0  0  0  0  0  0
  -26.5597  -34.8906   22.4667 O   0  0  0  0  0  0
  -23.5392  -32.1454   23.7446 O   0  0  0  0  0  0
  -28.3752  -20.1964   21.6097 C   0  0  0  0  0  0
  -30.0516  -20.6930   19.8413 C   0  0  0  0  0  0
  -29.0731  -18.8383   21.9233 C   0  0  0  0  0  0
  -30.7848  -19.3737   20.1977 C   0  0  0  0  0  0
  -29.2996  -21.3161   21.0405 C   0  0  1  0  0  0
  -29.8611  -18.2446   20.7291 C   0  0  1  0  0  0
  -29.9829  -24.0729   19.1881 C   0  0  0  0  0  0
  -28.4573  -22.6002   20.6837 C   0  0  0  0  0  0
  -30.7068  -16.9693   21.0947 C   0  0  0  0  0  0
  -27.9803  -25.1028   20.3318 C   0  0  0  0  0  0
  -29.1108  -24.0233   20.4546 C   0  0  2  0  0  0
  -30.0659  -15.6282   20.9845 N   0  0  0  0  0  0
  -31.4556  -12.4128   19.1357 H   0  0  0  0  0  0
  -30.3025  -11.3366   19.8712 H   0  0  0  0  0  0
  -29.7423  -11.7544   17.4517 H   0  0  0  0  0  0
  -29.6662  -13.4714   17.7511 H   0  0  0  0  0  0
  -27.8379  -11.3037   18.8433 H   0  0  0  0  0  0
  -27.3702  -12.6063   17.7813 H   0  0  0  0  0  0
  -27.6780  -14.2565   19.5278 H   0  0  0  0  0  0
  -28.6797  -12.0446   21.3867 H   0  0  0  0  0  0
  -28.4550  -13.7164   21.8296 H   0  0  0  0  0  0
  -25.2718   -9.5721   22.4735 H   0  0  0  0  0  0
  -24.0013   -7.4638   22.7466 H   0  0  0  0  0  0
  -21.0808   -8.8723   19.8949 H   0  0  0  0  0  0
  -22.3621  -10.9642   19.6146 H   0  0  0  0  0  0
  -21.1996   -7.6125   23.9703 H   0  0  0  0  0  0
  -21.1483   -6.0505   25.9077 H   0  0  0  0  0  0
  -22.0589   -2.7596   23.2848 H   0  0  0  0  0  0
  -22.4048  -11.9972   22.4852 H   0  0  0  0  0  0
  -21.1039  -13.1301   22.2532 H   0  0  0  0  0  0
  -24.6630  -15.8442   20.5429 H   0  0  0  0  0  0
  -26.2834  -15.6342   20.1174 H   0  0  0  0  0  0
  -26.7150  -32.5474   23.1107 H   0  0  0  0  0  0
  -25.0193  -33.9766   25.0529 H   0  0  0  0  0  0
  -22.6989  -31.3161   21.4219 H   0  0  0  0  0  0
  -23.3798  -35.9561   23.3133 H   0  0  0  0  0  0
  -24.3657  -36.9046   22.2064 H   0  0  0  0  0  0
  -23.7164  -37.6400   23.6728 H   0  0  0  0  0  0
  -26.0809  -31.5784   20.6148 H   0  0  0  0  0  0
  -26.8281  -30.8489   22.0074 H   0  0  0  0  0  0
  -28.0947  -29.0076   21.2005 H   0  0  0  0  0  0
  -25.9422  -26.0170   18.9145 H   0  0  0  0  0  0
  -23.9573  -27.3657   18.9731 H   0  0  0  0  0  0
  -23.7295  -30.6242   19.4092 H   0  0  0  0  0  0
  -22.7350  -29.2728   19.8649 H   0  0  0  0  0  0
  -25.1233  -36.1909   25.0809 H   0  0  0  0  0  0
  -20.9973  -28.3214   24.1413 H   0  0  0  0  0  0
  -20.5686  -26.2254   23.3568 H   0  0  0  0  0  0
  -21.6657  -26.7454   22.1187 H   0  0  0  0  0  0
  -19.6909  -25.6283   21.1241 H   0  0  0  0  0  0
  -19.6683  -27.3186   20.6720 H   0  0  0  0  0  0
  -17.4200  -26.6665   21.4011 H   0  0  0  0  0  0
  -18.0332  -26.0068   22.9014 H   0  0  0  0  0  0
  -19.7942  -30.7290   24.2197 H   0  0  0  0  0  0
  -17.5014  -31.6260   24.5156 H   0  0  0  0  0  0
  -15.5343  -30.2942   23.7678 H   0  0  0  0  0  0
  -15.8682  -28.0803   22.7045 H   0  0  0  0  0  0
  -24.5875  -30.7145   25.7836 H   0  0  0  0  0  0
  -24.9050  -32.2924   26.4962 H   0  0  0  0  0  0
  -25.8112  -30.8850   27.0226 H   0  0  0  0  0  0
  -26.2838  -29.6756   24.1178 H   0  0  0  0  0  0
  -27.4037  -29.7204   25.4586 H   0  0  0  0  0  0
  -27.8702  -30.4245   23.9299 H   0  0  0  0  0  0
  -27.2734  -33.3588   26.2051 H   0  0  0  0  0  0
  -28.3903  -32.6797   25.0313 H   0  0  0  0  0  0
  -28.0734  -31.8399   26.5408 H   0  0  0  0  0  0
  -28.2422  -38.0229   24.7778 H   0  0  0  0  0  0
  -28.1317  -36.2799   24.5823 H   0  0  0  0  0  0
  -27.2420  -37.0888   25.8812 H   0  0  0  0  0  0
  -20.9324  -29.8771   21.6959 H   0  0  0  0  0  0
  -26.0118  -38.2816   24.1648 H   0  0  0  0  0  0
  -27.8896  -20.5549   22.5187 H   0  0  0  0  0  0
  -27.5668  -20.0116   20.8993 H   0  0  0  0  0  0
  -29.3505  -20.5035   19.0276 H   0  0  0  0  0  0
  -30.7850  -21.3959   19.4533 H   0  0  0  0  0  0
  -28.3262  -18.1168   22.2569 H   0  0  0  0  0  0
  -29.7487  -18.9801   22.7691 H   0  0  0  0  0  0
  -31.5586  -19.5893   20.9374 H   0  0  0  0  0  0
  -31.3130  -19.0216   19.3100 H   0  0  0  0  0  0
  -30.0230  -21.5847   21.8132 H   0  0  0  0  0  0
  -29.1615  -17.9861   19.9317 H   0  0  0  0  0  0
  -30.9426  -23.5787   19.3330 H   0  0  0  0  0  0
  -30.2037  -25.1040   18.9056 H   0  0  0  0  0  0
  -29.4762  -23.6046   18.3418 H   0  0  0  0  0  0
  -27.7490  -22.7289   21.5029 H   0  0  0  0  0  0
  -27.8285  -22.3618   19.8244 H   0  0  0  0  0  0
  -31.1103  -17.0655   22.1026 H   0  0  0  0  0  0
  -31.5895  -16.9891   20.4528 H   0  0  0  0  0  0
  -27.3352  -25.0255   21.2108 H   0  0  0  0  0  0
  -27.3943  -24.7536   19.4848 H   0  0  0  0  0  0
  -29.7273  -24.2702   21.3199 H   0  0  0  0  0  0
  -29.1034  -15.5293   21.2724 H   0  0  0  0  0  0
  1 25  1  0  0  0
  1 30  2  0  0  0
  1 82  1  0  0  0
  2  3  1  0  0  0
  2 25  1  0  0  0
  2 83  1  0  0  0
  2 84  1  0  0  0
  3  4  1  0  0  0
  3 85  1  0  0  0
  3 86  1  0  0  0
  4  5  1  0  0  0
  4 87  1  0  0  0
  4 88  1  0  0  0
  5  6  1  0  0  0
  5 26  1  0  0  0
  5 89  1  0  0  0
  6 25  1  0  0  0
  6 90  1  0  0  0
  6 91  1  0  0  0
  7  8  2  0  0  0
  7 26  1  0  0  0
  7 29  1  0  0  0
  8  9  1  0  0  0
  8 22  1  0  0  0
  9 10  1  0  0  0
  9 27  2  0  0  0
 10 11  2  0  0  0
 10 15  1  0  0  0
 11 12  1  0  0  0
 11 92  1  0  0  0
 12 13  2  0  0  0
 12 93  1  0  0  0
 13 14  1  0  0  0
 13 31  1  0  0  0
 14 15  2  0  0  0
 14 94  1  0  0  0
 15 95  1  0  0  0
 16 17  2  0  0  0
 16 21  1  0  0  0
 16 31  1  0  0  0
 17 18  1  0  0  0
 17 96  1  0  0  0
 18 19  2  0  0  0
 18 97  1  0  0  0
 19 20  1  0  0  0
 19 24  1  0  0  0
 20 21  2  0  0  0
 20 98  1  0  0  0
 21 23  1  0  0  0
 22 28  1  0  0  0
 22 32  2  0  0  0
 26 27  1  0  0  0
 28 99  1  0  0  0
 28100  1  0  0  0
 29101  1  0  0  0
 29102  1  0  0  0
 33 34  1  0  0  0
 33 66  1  0  0  0
 33 70  2  0  0  0
 34 36  1  0  0  0
 34 59  1  0  0  0
 34103  1  0  0  0
 35 44  2  0  0  0
 35 45  1  0  0  0
 35 68  1  0  0  0
 36 56  1  0  0  0
 36104  1  0  0  0
 37 39  1  0  0  0
 37 47  1  0  0  0
 37 66  1  0  0  0
 37105  1  0  0  0
 38 43  2  0  0  0
 38 46  1  0  0  0
 38 47  1  0  0  0
 39 64  1  0  0  0
 39 67  2  0  0  0
 40 52  1  0  0  0
 40 53  2  0  0  0
 40 58  1  0  0  0
 41106  1  0  0  0
 41107  1  0  0  0
 41108  1  0  0  0
 41 48  1  0  0  0
 42 43  1  0  0  0
 42 66  1  0  0  0
 42109  1  0  0  0
 42110  1  0  0  0
 43 44  1  0  0  0
 44111  1  0  0  0
 45 46  2  0  0  0
 45112  1  0  0  0
 46113  1  0  0  0
 47114  1  0  0  0
 47115  1  0  0  0
 48 56  1  0  0  0
 48 65  1  0  0  0
 48116  1  0  0  0
 49 50  1  0  0  0
 49 53  1  0  0  0
 49 64  1  0  0  0
 49117  1  0  0  0
 50 51  1  0  0  0
 50118  1  0  0  0
 50119  1  0  0  0
 51 52  1  0  0  0
 51120  1  0  0  0
 51121  1  0  0  0
 52122  1  0  0  0
 52123  1  0  0  0
 53 54  1  0  0  0
 54 55  2  0  0  0
 54124  1  0  0  0
 55 57  1  0  0  0
 55125  1  0  0  0
 56 69  2  0  0  0
 57 58  2  0  0  0
 57126  1  0  0  0
 58127  1  0  0  0
 59 60  1  0  0  0
 59 61  1  0  0  0
 59 62  1  0  0  0
 60128  1  0  0  0
 60129  1  0  0  0
 60130  1  0  0  0
 61131  1  0  0  0
 61132  1  0  0  0
 61133  1  0  0  0
 62134  1  0  0  0
 62135  1  0  0  0
 62136  1  0  0  0
 63 65  1  0  0  0
 63137  1  0  0  0
 63138  1  0  0  0
 63139  1  0  0  0
 64140  1  0  0  0
 65141  1  0  0  0
 68 80  1  0  0  0
 71 73  1  0  0  0
 71 75  1  0  0  0
 71142  1  0  0  0
 71143  1  0  0  0
 72 74  1  0  0  0
 72 75  1  0  0  0
 72144  1  0  0  0
 72145  1  0  0  0
 73 76  1  0  0  0
 73146  1  0  0  0
 73147  1  0  0  0
 74 76  1  0  0  0
 74148  1  0  0  0
 74149  1  0  0  0
 75 78  1  0  0  0
 75150  1  0  0  0
 76 79  1  0  0  0
 76151  1  0  0  0
 77152  1  0  0  0
 77153  1  0  0  0
 77154  1  0  0  0
 77 81  1  0  0  0
 78 81  1  0  0  0
 78155  1  0  0  0
 78156  1  0  0  0
 79 82  1  0  0  0
 79157  1  0  0  0
 79158  1  0  0  0
 80 81  1  0  0  0
 80159  1  0  0  0
 80160  1  0  0  0
 81161  1  0  0  0
 82162  1  0  0  0
M  ISO  4   1 100  68 101  80 101  82 100
M  END
> <chiral flag>
0

> <version>
0

> <s_m_source_file>
/data/baiqing/PycharmProjects/Reinvent-master-3.2/result/LINK_invent/BTK/process_docking_weight1_custom_sum_contain_oxygen_bond_distance_aromatic_linkinvent_7_9_3/rearranged_h_0119.sdf

> <i_m_source_file_index>
82

> <r_mmod_Potential_Energy-OPLS-2005>
34.4423217773438

> <r_mmod_Stretch_Energy-OPLS-2005>
54.3852882385254

> <r_mmod_Bend_Energy-OPLS-2005>
130.261184692383

> <r_mmod_Torsional_Energy-OPLS-2005>
244.474792480469

> <r_mmod_Improper_Torsional_Energy-OPLS-2005>
3.24750638008118

> <r_mmod_Van_der_Waal_Energy-OPLS-2005>
143.509262084961

> <r_mmod_Electrostatic_Energy-OPLS-2005>
-379.309600830078

> <r_mmod_Solvation_Energy-OPLS-2005>
-193.067016601562

> <b_mmod_Minimization_Converged-OPLS-2005>
0

> <r_mmod_RMS_Derivative-OPLS-2005>
3.25125885009766

$$$$
82
                    3D
 Structure written by MMmdl.
165174  0  0  1  0            999 V2000
  -30.4218  -15.2097   20.3728 C   0  0  0  0  0  0
  -30.4463  -12.7615   19.5209 C   0  0  0  0  0  0
  -29.5341  -12.5658   18.2831 C   0  0  0  0  0  0
  -28.0820  -12.2937   18.7144 C   0  0  0  0  0  0
  -27.6179  -13.2637   19.8289 C   0  0  2  0  0  0
  -28.6543  -13.3939   20.9654 C   0  0  0  0  0  0
  -25.2411  -13.8230   20.5721 C   0  0  0  0  0  0
  -24.1757  -13.0432   20.9258 C   0  0  0  0  0  0
  -24.6396  -11.6927   20.8768 C   0  0  0  0  0  0
  -23.9087  -10.4283   21.0408 C   0  0  0  0  0  0
  -24.3632   -9.4193   21.9185 C   0  0  0  0  0  0
  -23.6294   -8.2238   22.0756 C   0  0  0  0  0  0
  -22.4279   -8.0279   21.3543 C   0  0  0  0  0  0
  -21.9918   -9.0255   20.4649 C   0  0  0  0  0  0
  -22.7257  -10.2126   20.3055 C   0  0  0  0  0  0
  -21.6851   -6.0730   22.5273 C   0  0  0  0  0  0
  -21.4016   -6.5635   23.8206 C   0  0  0  0  0  0
  -21.3660   -5.6790   24.9169 C   0  0  0  0  0  0
  -21.6044   -4.3052   24.7223 C   0  0  0  0  0  0
  -21.8820   -3.8141   23.4344 C   0  0  0  0  0  0
  -21.9190   -4.6957   22.3399 C   0  0  0  0  0  0
  -22.7774  -13.5187   21.1900 C   0  0  0  0  0  0
  -22.1658   -4.2141   21.0974 F   0  0  0  0  0  0
  -21.5628   -3.4538   25.7738 F   0  0  0  0  0  0
  -29.8967  -13.8905   20.3526 N   0  0  0  0  0  0
  -26.2834  -12.9485   20.3213 N   0  0  0  0  0  0
  -25.9330  -11.6605   20.5725 N   0  0  0  0  0  0
  -22.0428  -12.8176   22.0461 N   0  0  0  0  0  0
  -25.4042  -15.1962   20.4095 N   0  0  0  0  0  0
  -31.6362  -15.2582   20.1192 O   0  0  0  0  0  0
  -21.6640   -6.8878   21.4238 O   0  0  0  0  0  0
  -22.3458  -14.5487   20.6730 O   0  0  0  0  0  0
  -24.6591  -31.8283   23.1721 C   0  0  0  0  0  0
  -25.9292  -32.4615   23.8173 C   0  0  1  0  0  0
  -27.2160  -26.9612   20.1878 C   0  0  0  0  0  0
  -25.5978  -33.8427   24.2103 N   0  0  0  0  0  0
  -23.4728  -30.4370   21.5222 C   0  0  2  0  0  0
  -24.9262  -28.8310   20.1104 C   0  0  0  0  0  0
  -22.7655  -29.4436   22.4804 C   0  0  0  0  0  0
  -18.0317  -28.1391   22.8470 C   0  0  0  0  0  0
  -24.1489  -36.7213   23.2650 C   0  0  0  0  0  0
  -26.0379  -30.6444   21.3976 C   0  0  0  0  0  0
  -26.1067  -29.2364   20.7448 C   0  0  0  0  0  0
  -27.2475  -28.3210   20.7612 C   0  0  0  0  0  0
  -26.0103  -26.6982   19.5023 C   0  0  0  0  0  0
  -24.9001  -27.5811   19.4698 C   0  0  0  0  0  0
  -23.7105  -29.7556   20.1461 C   0  0  0  0  0  0
  -25.4132  -36.2988   24.0306 C   0  0  1  0  0  0
  -20.5939  -28.3731   23.1199 C   0  0  2  0  0  0
  -20.6794  -26.9418   22.5408 C   0  0  0  0  0  0
  -19.5772  -26.6378   21.5211 C   0  0  0  0  0  0
  -18.1948  -26.7931   22.1617 C   0  0  0  0  0  0
  -19.1582  -28.8882   23.2812 C   0  0  0  0  0  0
  -18.9496  -30.1472   23.8844 C   0  0  0  0  0  0
  -17.6492  -30.6586   24.0547 C   0  0  0  0  0  0
  -25.9099  -34.9367   23.5027 C   0  0  0  0  0  0
  -16.5380  -29.9081   23.6332 C   0  0  0  0  0  0
  -16.7301  -28.6498   23.0361 C   0  0  0  0  0  0
  -26.4559  -31.6543   25.0685 C   0  0  0  0  0  0
  -25.3683  -31.3773   26.1340 C   0  0  0  0  0  0
  -27.0457  -30.2921   24.6382 C   0  0  0  0  0  0
  -27.6074  -32.4326   25.7464 C   0  0  0  0  0  0
  -27.5569  -37.1754   24.8470 C   0  0  0  0  0  0
  -21.4331  -29.3032   22.3562 N   0  0  0  0  0  0
  -26.4285  -37.3719   23.9414 N   0  0  0  0  0  0
  -24.7442  -30.9961   22.0843 N   0  0  0  0  0  0
  -23.4217  -28.8006   23.3034 O   0  0  0  0  0  0
  -28.2239  -25.8779   20.2834 O   0  0  0  0  0  0
  -26.5709  -34.8896   22.4618 O   0  0  0  0  0  0
  -23.5669  -32.1246   23.6831 O   0  0  0  0  0  0
  -28.0793  -20.1952   20.7677 C   0  0  0  0  0  0
  -28.2861  -18.7284   20.7811 C   0  0  0  0  0  0
  -29.0456  -21.2088   20.3883 C   0  0  0  0  0  0
  -30.2158  -20.3998   19.9983 C   0  0  0  0  0  0
  -29.4955  -18.0047   20.4271 C   0  0  0  0  0  0
  -28.9642  -22.9020   20.6589 C   0  0  0  0  0  0
  -32.3509  -25.0173   21.8809 C   0  0  0  0  0  0
  -32.2034  -24.2623   23.2086 C   0  0  0  0  0  0
  -30.9313  -25.3723   21.4217 C   0  0  0  0  0  0
  -30.7070  -24.2724   23.5417 C   0  0  0  0  0  0
  -29.9755  -24.4629   22.2078 C   0  0  0  0  0  0
  -32.5903  -21.1766   20.5031 C   0  0  0  0  0  0
  -31.4499  -21.1249   19.4795 C   0  0  0  0  0  0
  -27.9964  -24.2671   20.0711 C   0  0  0  0  0  0
  -30.4102  -18.9759   20.0180 N   0  0  0  0  0  0
  -29.8245  -23.1663   21.5689 N   0  0  0  0  0  0
  -29.5638  -16.3986   20.5162 N   0  0  0  0  0  0
  -31.4654  -12.9662   19.1910 H   0  0  0  0  0  0
  -30.5089  -11.8421   20.1053 H   0  0  0  0  0  0
  -29.9008  -11.7463   17.6636 H   0  0  0  0  0  0
  -29.5694  -13.4607   17.6605 H   0  0  0  0  0  0
  -28.0383  -11.2687   19.0851 H   0  0  0  0  0  0
  -27.4097  -12.3363   17.8562 H   0  0  0  0  0  0
  -27.5474  -14.2378   19.3444 H   0  0  0  0  0  0
  -28.8065  -12.4412   21.4739 H   0  0  0  0  0  0
  -28.3055  -14.0969   21.7229 H   0  0  0  0  0  0
  -25.2770   -9.5666   22.4766 H   0  0  0  0  0  0
  -23.9988   -7.4631   22.7487 H   0  0  0  0  0  0
  -21.0843   -8.8782   19.8960 H   0  0  0  0  0  0
  -22.3715  -10.9668   19.6164 H   0  0  0  0  0  0
  -21.2015   -7.6142   23.9707 H   0  0  0  0  0  0
  -21.1481   -6.0521   25.9072 H   0  0  0  0  0  0
  -22.0600   -2.7603   23.2848 H   0  0  0  0  0  0
  -22.4045  -11.9843   22.4850 H   0  0  0  0  0  0
  -21.1044  -13.1195   22.2665 H   0  0  0  0  0  0
  -24.6214  -15.8352   20.4983 H   0  0  0  0  0  0
  -26.2151  -15.6260   19.9858 H   0  0  0  0  0  0
  -26.7363  -32.5167   23.0884 H   0  0  0  0  0  0
  -25.0052  -33.9509   25.0206 H   0  0  0  0  0  0
  -22.7825  -31.2657   21.3542 H   0  0  0  0  0  0
  -23.3779  -35.9509   23.3283 H   0  0  0  0  0  0
  -24.3579  -36.8897   22.2074 H   0  0  0  0  0  0
  -23.7213  -37.6375   23.6732 H   0  0  0  0  0  0
  -26.2114  -31.3869   20.6176 H   0  0  0  0  0  0
  -26.9005  -30.7028   22.0490 H   0  0  0  0  0  0
  -28.1392  -28.6269   21.2908 H   0  0  0  0  0  0
  -25.8908  -25.7414   19.0142 H   0  0  0  0  0  0
  -24.0024  -27.2643   18.9586 H   0  0  0  0  0  0
  -23.8623  -30.5274   19.3898 H   0  0  0  0  0  0
  -22.8216  -29.2073   19.8300 H   0  0  0  0  0  0
  -25.1315  -36.1792   25.0797 H   0  0  0  0  0  0
  -21.0006  -28.3339   24.1331 H   0  0  0  0  0  0
  -20.5689  -26.2341   23.3640 H   0  0  0  0  0  0
  -21.6653  -26.7402   22.1205 H   0  0  0  0  0  0
  -19.6930  -25.6285   21.1261 H   0  0  0  0  0  0
  -19.6715  -27.3163   20.6718 H   0  0  0  0  0  0
  -17.4221  -26.6675   21.4019 H   0  0  0  0  0  0
  -18.0332  -26.0071   22.9008 H   0  0  0  0  0  0
  -19.7975  -30.7287   24.2212 H   0  0  0  0  0  0
  -17.5052  -31.6265   24.5152 H   0  0  0  0  0  0
  -15.5383  -30.2961   23.7702 H   0  0  0  0  0  0
  -15.8699  -28.0804   22.7104 H   0  0  0  0  0  0
  -24.5887  -30.7109   25.7645 H   0  0  0  0  0  0
  -24.8833  -32.2955   26.4648 H   0  0  0  0  0  0
  -25.7898  -30.9016   27.0204 H   0  0  0  0  0  0
  -26.3123  -29.6592   24.1381 H   0  0  0  0  0  0
  -27.4023  -29.7279   25.5011 H   0  0  0  0  0  0
  -27.9042  -30.4142   23.9774 H   0  0  0  0  0  0
  -27.2713  -33.3717   26.1859 H   0  0  0  0  0  0
  -28.3959  -32.6731   25.0326 H   0  0  0  0  0  0
  -28.0645  -31.8556   26.5511 H   0  0  0  0  0  0
  -28.2559  -38.0076   24.7531 H   0  0  0  0  0  0
  -28.1090  -36.2600   24.6277 H   0  0  0  0  0  0
  -27.2286  -37.1370   25.8873 H   0  0  0  0  0  0
  -20.9591  -29.8739   21.6702 H   0  0  0  0  0  0
  -26.0137  -38.2776   24.1441 H   0  0  0  0  0  0
  -27.1233  -20.5500   21.1233 H   0  0  0  0  0  0
  -27.4431  -18.1387   21.1142 H   0  0  0  0  0  0
  -32.8426  -24.3827   21.1418 H   0  0  0  0  0  0
  -32.9574  -25.9175   21.9936 H   0  0  0  0  0  0
  -32.7971  -24.7127   24.0047 H   0  0  0  0  0  0
  -32.5500  -23.2353   23.0914 H   0  0  0  0  0  0
  -30.8200  -25.2937   20.3398 H   0  0  0  0  0  0
  -30.7190  -26.4103   21.6857 H   0  0  0  0  0  0
  -30.4907  -25.1198   24.1935 H   0  0  0  0  0  0
  -30.3930  -23.3768   24.0808 H   0  0  0  0  0  0
  -29.0087  -24.9308   22.4033 H   0  0  0  0  0  0
  -33.4645  -21.6725   20.0822 H   0  0  0  0  0  0
  -32.8903  -20.1765   20.8153 H   0  0  0  0  0  0
  -32.2871  -21.7286   21.3907 H   0  0  0  0  0  0
  -31.1916  -22.1365   19.1662 H   0  0  0  0  0  0
  -31.7934  -20.6218   18.5746 H   0  0  0  0  0  0
  -26.9892  -24.0766   20.4429 H   0  0  0  0  0  0
  -27.9144  -24.1314   18.9924 H   0  0  0  0  0  0
  -28.6490  -16.0474   20.7471 H   0  0  0  0  0  0
  1 25  1  0  0  0
  1 30  2  0  0  0
  1 87  1  0  0  0
  2  3  1  0  0  0
  2 25  1  0  0  0
  2 88  1  0  0  0
  2 89  1  0  0  0
  3  4  1  0  0  0
  3 90  1  0  0  0
  3 91  1  0  0  0
  4  5  1  0  0  0
  4 92  1  0  0  0
  4 93  1  0  0  0
  5  6  1  0  0  0
  5 26  1  0  0  0
  5 94  1  0  0  0
  6 25  1  0  0  0
  6 95  1  0  0  0
  6 96  1  0  0  0
  7  8  2  0  0  0
  7 26  1  0  0  0
  7 29  1  0  0  0
  8  9  1  0  0  0
  8 22  1  0  0  0
  9 10  1  0  0  0
  9 27  2  0  0  0
 10 11  2  0  0  0
 10 15  1  0  0  0
 11 12  1  0  0  0
 11 97  1  0  0  0
 12 13  2  0  0  0
 12 98  1  0  0  0
 13 14  1  0  0  0
 13 31  1  0  0  0
 14 15  2  0  0  0
 14 99  1  0  0  0
 15100  1  0  0  0
 16 17  2  0  0  0
 16 21  1  0  0  0
 16 31  1  0  0  0
 17 18  1  0  0  0
 17101  1  0  0  0
 18 19  2  0  0  0
 18102  1  0  0  0
 19 20  1  0  0  0
 19 24  1  0  0  0
 20 21  2  0  0  0
 20103  1  0  0  0
 21 23  1  0  0  0
 22 28  1  0  0  0
 22 32  2  0  0  0
 26 27  1  0  0  0
 28104  1  0  0  0
 28105  1  0  0  0
 29106  1  0  0  0
 29107  1  0  0  0
 33 34  1  0  0  0
 33 66  1  0  0  0
 33 70  2  0  0  0
 34 36  1  0  0  0
 34 59  1  0  0  0
 34108  1  0  0  0
 35 44  2  0  0  0
 35 45  1  0  0  0
 35 68  1  0  0  0
 36 56  1  0  0  0
 36109  1  0  0  0
 37 39  1  0  0  0
 37 47  1  0  0  0
 37 66  1  0  0  0
 37110  1  0  0  0
 38 43  2  0  0  0
 38 46  1  0  0  0
 38 47  1  0  0  0
 39 64  1  0  0  0
 39 67  2  0  0  0
 40 52  1  0  0  0
 40 53  2  0  0  0
 40 58  1  0  0  0
 41111  1  0  0  0
 41112  1  0  0  0
 41113  1  0  0  0
 41 48  1  0  0  0
 42 43  1  0  0  0
 42 66  1  0  0  0
 42114  1  0  0  0
 42115  1  0  0  0
 43 44  1  0  0  0
 44116  1  0  0  0
 45 46  2  0  0  0
 45117  1  0  0  0
 46118  1  0  0  0
 47119  1  0  0  0
 47120  1  0  0  0
 48 56  1  0  0  0
 48 65  1  0  0  0
 48121  1  0  0  0
 49 50  1  0  0  0
 49 53  1  0  0  0
 49 64  1  0  0  0
 49122  1  0  0  0
 50 51  1  0  0  0
 50123  1  0  0  0
 50124  1  0  0  0
 51 52  1  0  0  0
 51125  1  0  0  0
 51126  1  0  0  0
 52127  1  0  0  0
 52128  1  0  0  0
 53 54  1  0  0  0
 54 55  2  0  0  0
 54129  1  0  0  0
 55 57  1  0  0  0
 55130  1  0  0  0
 56 69  2  0  0  0
 57 58  2  0  0  0
 57131  1  0  0  0
 58132  1  0  0  0
 59 60  1  0  0  0
 59 61  1  0  0  0
 59 62  1  0  0  0
 60133  1  0  0  0
 60134  1  0  0  0
 60135  1  0  0  0
 61136  1  0  0  0
 61137  1  0  0  0
 61138  1  0  0  0
 62139  1  0  0  0
 62140  1  0  0  0
 62141  1  0  0  0
 63 65  1  0  0  0
 63142  1  0  0  0
 63143  1  0  0  0
 63144  1  0  0  0
 64145  1  0  0  0
 65146  1  0  0  0
 68 84  1  0  0  0
 71 72  2  0  0  0
 71 73  1  0  0  0
 71147  1  0  0  0
 72 75  1  0  0  0
 72148  1  0  0  0
 73 74  2  0  0  0
 73 76  1  0  0  0
 74 83  1  0  0  0
 74 85  1  0  0  0
 75 85  2  0  0  0
 75 87  1  0  0  0
 76 84  1  0  0  0
 76 86  2  0  0  0
 77 78  1  0  0  0
 77 79  1  0  0  0
 77149  1  0  0  0
 77150  1  0  0  0
 78 80  1  0  0  0
 78151  1  0  0  0
 78152  1  0  0  0
 79 81  1  0  0  0
 79153  1  0  0  0
 79154  1  0  0  0
 80 81  1  0  0  0
 80155  1  0  0  0
 80156  1  0  0  0
 81 86  1  0  0  0
 81157  1  0  0  0
 82 83  1  0  0  0
 82158  1  0  0  0
 82159  1  0  0  0
 82160  1  0  0  0
 83161  1  0  0  0
 83162  1  0  0  0
 84163  1  0  0  0
 84164  1  0  0  0
 87165  1  0  0  0
M  ISO  4   1 100  68 101  84 101  87 100
M  END
> <chiral flag>
0

> <version>
0

> <s_m_source_file>
/data/baiqing/PycharmProjects/Reinvent-master-3.2/result/LINK_invent/BTK/process_docking_weight1_custom_sum_contain_oxygen_bond_distance_aromatic_linkinvent_7_9_3/rearranged_h_0119.sdf

> <i_m_source_file_index>
83

> <r_mmod_Potential_Energy-OPLS-2005>
1045.13269042969

> <r_mmod_Stretch_Energy-OPLS-2005>
496.748504638672

> <r_mmod_Bend_Energy-OPLS-2005>
446.441986083984

> <r_mmod_Torsional_Energy-OPLS-2005>
282.860900878906

> <r_mmod_Improper_Torsional_Energy-OPLS-2005>
6.34757328033447

> <r_mmod_Van_der_Waal_Energy-OPLS-2005>
127.135711669922

> <r_mmod_Electrostatic_Energy-OPLS-2005>
-485.18408203125

> <r_mmod_Solvation_Energy-OPLS-2005>
-236.570724487305

> <b_mmod_Minimization_Converged-OPLS-2005>
0

> <r_mmod_RMS_Derivative-OPLS-2005>
1.73181438446045

$$$$
83
                    3D
 Structure written by MMmdl.
160168  0  0  1  0            999 V2000
  -30.5629  -14.8861   20.4250 C   0  0  0  0  0  0
  -30.4355  -12.5477   19.4839 C   0  0  0  0  0  0
  -29.5132  -12.5153   18.2445 C   0  0  0  0  0  0
  -28.0446  -12.3175   18.6656 C   0  0  0  0  0  0
  -27.6312  -13.2423   19.8409 C   0  0  2  0  0  0
  -28.6766  -13.2444   20.9756 C   0  0  0  0  0  0
  -25.2465  -13.8216   20.5697 C   0  0  0  0  0  0
  -24.1778  -13.0445   20.9218 C   0  0  0  0  0  0
  -24.6386  -11.6930   20.8762 C   0  0  0  0  0  0
  -23.9070  -10.4299   21.0416 C   0  0  0  0  0  0
  -24.3622   -9.4213   21.9190 C   0  0  0  0  0  0
  -23.6300   -8.2246   22.0756 C   0  0  0  0  0  0
  -22.4283   -8.0280   21.3544 C   0  0  0  0  0  0
  -21.9919   -9.0255   20.4647 C   0  0  0  0  0  0
  -22.7245  -10.2136   20.3061 C   0  0  0  0  0  0
  -21.6853   -6.0735   22.5274 C   0  0  0  0  0  0
  -21.4013   -6.5641   23.8205 C   0  0  0  0  0  0
  -21.3664   -5.6792   24.9169 C   0  0  0  0  0  0
  -21.6049   -4.3056   24.7221 C   0  0  0  0  0  0
  -21.8819   -3.8145   23.4345 C   0  0  0  0  0  0
  -21.9193   -4.6961   22.3399 C   0  0  0  0  0  0
  -22.7798  -13.5219   21.1878 C   0  0  0  0  0  0
  -22.1661   -4.2148   21.0979 F   0  0  0  0  0  0
  -21.5636   -3.4540   25.7737 F   0  0  0  0  0  0
  -29.9553  -13.6386   20.3741 N   0  0  0  0  0  0
  -26.2891  -12.9433   20.3260 N   0  0  0  0  0  0
  -25.9315  -11.6569   20.5755 N   0  0  0  0  0  0
  -22.0452  -12.8197   22.0431 N   0  0  0  0  0  0
  -25.4142  -15.1943   20.4094 N   0  0  0  0  0  0
  -31.7682  -14.9509   20.1679 O   0  0  0  0  0  0
  -21.6645   -6.8880   21.4236 O   0  0  0  0  0  0
  -22.3484  -14.5527   20.6733 O   0  0  0  0  0  0
  -24.6403  -31.8446   23.1887 C   0  0  0  0  0  0
  -25.9189  -32.4692   23.8265 C   0  0  1  0  0  0
  -27.2118  -27.1462   20.1563 C   0  0  0  0  0  0
  -25.5948  -33.8500   24.2189 N   0  0  0  0  0  0
  -23.4414  -30.4654   21.5322 C   0  0  2  0  0  0
  -24.8875  -28.8862   20.1125 C   0  0  0  0  0  0
  -22.7542  -29.4561   22.4850 C   0  0  0  0  0  0
  -18.0306  -28.1406   22.8498 C   0  0  0  0  0  0
  -24.1481  -36.7238   23.2642 C   0  0  0  0  0  0
  -25.9946  -30.7219   21.3855 C   0  0  0  0  0  0
  -26.0599  -29.3309   20.7342 C   0  0  0  0  0  0
  -27.2189  -28.4748   20.7396 C   0  0  0  0  0  0
  -26.0174  -26.7979   19.4899 C   0  0  0  0  0  0
  -24.8768  -27.6336   19.4775 C   0  0  0  0  0  0
  -23.6669  -29.7917   20.1511 C   0  0  0  0  0  0
  -25.4112  -36.3028   24.0324 C   0  0  1  0  0  0
  -20.5921  -28.3714   23.1257 C   0  0  2  0  0  0
  -20.6787  -26.9420   22.5414 C   0  0  0  0  0  0
  -19.5758  -26.6392   21.5221 C   0  0  0  0  0  0
  -18.1940  -26.7952   22.1631 C   0  0  0  0  0  0
  -19.1563  -28.8877   23.2879 C   0  0  0  0  0  0
  -18.9477  -30.1481   23.8893 C   0  0  0  0  0  0
  -17.6470  -30.6600   24.0578 C   0  0  0  0  0  0
  -25.9068  -34.9407   23.5065 C   0  0  0  0  0  0
  -16.5365  -29.9096   23.6344 C   0  0  0  0  0  0
  -16.7293  -28.6522   23.0359 C   0  0  0  0  0  0
  -26.4526  -31.6556   25.0696 C   0  0  0  0  0  0
  -25.3717  -31.3739   26.1396 C   0  0  0  0  0  0
  -27.0379  -30.2948   24.6266 C   0  0  0  0  0  0
  -27.6062  -32.4309   25.7489 C   0  0  0  0  0  0
  -27.5568  -37.1776   24.8475 C   0  0  0  0  0  0
  -21.4237  -29.3042   22.3614 N   0  0  0  0  0  0
  -26.4273  -37.3745   23.9425 N   0  0  0  0  0  0
  -24.7117  -31.0325   22.0903 N   0  0  0  0  0  0
  -23.4206  -28.8107   23.2981 O   0  0  0  0  0  0
  -28.3419  -26.2581   20.1643 O   0  0  0  0  0  0
  -26.5658  -34.8907   22.4644 O   0  0  0  0  0  0
  -23.5536  -32.1309   23.7132 O   0  0  0  0  0  0
  -29.7305  -22.9274   20.7769 C   0  0  0  0  0  0
  -28.7271  -21.9334   20.5680 C   0  0  0  0  0  0
  -27.5269  -22.6023   20.1234 C   0  0  0  0  0  0
  -28.3842  -24.8257   20.2866 C   0  0  0  0  0  0
  -26.3778  -21.3269   18.2632 C   0  0  0  0  0  0
  -29.0981  -19.3773   23.5236 C   0  0  0  0  0  0
  -26.2935  -21.8062   19.7182 C   0  0  0  0  0  0
  -29.5747  -20.4172   22.4968 C   0  0  0  0  0  0
  -29.2749  -18.9454   20.2916 C   0  0  0  0  0  0
  -30.2340  -17.5762   20.5748 C   0  0  0  0  0  0
  -28.8599  -20.3705   21.1136 C   0  0  2  0  0  0
  -29.5659  -24.2910   20.6415 N   0  0  0  0  0  0
  -27.3767  -23.9813   19.9867 N   0  0  0  0  0  0
  -29.7938  -16.0676   20.5570 N   0  0  0  0  0  0
  -31.4701  -12.6984   19.1707 H   0  0  0  0  0  0
  -30.4174  -11.5899   20.0063 H   0  0  0  0  0  0
  -29.8178  -11.7172   17.5658 H   0  0  0  0  0  0
  -29.6131  -13.4475   17.6853 H   0  0  0  0  0  0
  -27.9265  -11.2736   18.9596 H   0  0  0  0  0  0
  -27.3816  -12.4691   17.8131 H   0  0  0  0  0  0
  -27.6035  -14.2505   19.4269 H   0  0  0  0  0  0
  -28.7518  -12.2629   21.4460 H   0  0  0  0  0  0
  -28.3902  -13.9435   21.7625 H   0  0  0  0  0  0
  -25.2766   -9.5691   22.4767 H   0  0  0  0  0  0
  -24.0009   -7.4639   22.7474 H   0  0  0  0  0  0
  -21.0855   -8.8774   19.8951 H   0  0  0  0  0  0
  -22.3705  -10.9675   19.6174 H   0  0  0  0  0  0
  -21.2000   -7.6148   23.9706 H   0  0  0  0  0  0
  -21.1490   -6.0525   25.9071 H   0  0  0  0  0  0
  -22.0595   -2.7606   23.2841 H   0  0  0  0  0  0
  -22.4078  -11.9865   22.4824 H   0  0  0  0  0  0
  -21.1068  -13.1212   22.2645 H   0  0  0  0  0  0
  -24.6423  -15.8440   20.5129 H   0  0  0  0  0  0
  -26.2535  -15.6330   20.0546 H   0  0  0  0  0  0
  -26.7261  -32.5306   23.0998 H   0  0  0  0  0  0
  -25.0090  -33.9616   25.0337 H   0  0  0  0  0  0
  -22.7441  -31.2911   21.3778 H   0  0  0  0  0  0
  -23.3756  -35.9556   23.3299 H   0  0  0  0  0  0
  -24.3565  -36.8861   22.2055 H   0  0  0  0  0  0
  -23.7220  -37.6425   23.6676 H   0  0  0  0  0  0
  -26.1457  -31.4761   20.6119 H   0  0  0  0  0  0
  -26.8692  -30.7735   22.0243 H   0  0  0  0  0  0
  -28.1214  -28.8185   21.2248 H   0  0  0  0  0  0
  -25.9475  -25.8478   18.9814 H   0  0  0  0  0  0
  -23.9823  -27.2966   18.9720 H   0  0  0  0  0  0
  -23.8066  -30.5651   19.3944 H   0  0  0  0  0  0
  -22.7814  -29.2353   19.8386 H   0  0  0  0  0  0
  -25.1300  -36.1845   25.0816 H   0  0  0  0  0  0
  -21.0039  -28.3306   24.1366 H   0  0  0  0  0  0
  -20.5668  -26.2324   23.3628 H   0  0  0  0  0  0
  -21.6654  -26.7418   22.1211 H   0  0  0  0  0  0
  -19.6897  -25.6296   21.1260 H   0  0  0  0  0  0
  -19.6698  -27.3202   20.6753 H   0  0  0  0  0  0
  -17.4208  -26.6729   21.4033 H   0  0  0  0  0  0
  -18.0327  -26.0093   22.9025 H   0  0  0  0  0  0
  -19.7945  -30.7327   24.2242 H   0  0  0  0  0  0
  -17.5012  -31.6274   24.5182 H   0  0  0  0  0  0
  -15.5364  -30.2994   23.7657 H   0  0  0  0  0  0
  -15.8706  -28.0843   22.7057 H   0  0  0  0  0  0
  -24.5939  -30.7023   25.7740 H   0  0  0  0  0  0
  -24.8853  -32.2910   26.4723 H   0  0  0  0  0  0
  -25.8023  -30.9005   27.0229 H   0  0  0  0  0  0
  -26.2977  -29.6670   24.1290 H   0  0  0  0  0  0
  -27.4005  -29.7241   25.4827 H   0  0  0  0  0  0
  -27.8892  -30.4175   23.9566 H   0  0  0  0  0  0
  -27.2670  -33.3642   26.1993 H   0  0  0  0  0  0
  -28.3933  -32.6801   25.0358 H   0  0  0  0  0  0
  -28.0664  -31.8461   26.5461 H   0  0  0  0  0  0
  -28.2592  -38.0074   24.7533 H   0  0  0  0  0  0
  -28.1060  -36.2603   24.6292 H   0  0  0  0  0  0
  -27.2295  -37.1417   25.8882 H   0  0  0  0  0  0
  -20.9419  -29.8742   21.6802 H   0  0  0  0  0  0
  -26.0132  -38.2805   24.1441 H   0  0  0  0  0  0
  -30.6967  -22.6283   21.1557 H   0  0  0  0  0  0
  -25.5050  -20.7316   17.9935 H   0  0  0  0  0  0
  -27.2638  -20.7120   18.1009 H   0  0  0  0  0  0
  -26.4289  -22.1763   17.5824 H   0  0  0  0  0  0
  -29.5419  -19.5766   24.4995 H   0  0  0  0  0  0
  -29.3732  -18.3611   23.2479 H   0  0  0  0  0  0
  -28.0150  -19.4071   23.6482 H   0  0  0  0  0  0
  -25.4062  -22.4297   19.8350 H   0  0  0  0  0  0
  -26.1286  -20.9605   20.3806 H   0  0  0  0  0  0
  -30.6582  -20.3643   22.3762 H   0  0  0  0  0  0
  -29.3801  -21.3808   22.9703 H   0  0  0  0  0  0
  -30.2492  -19.4355   20.2620 H   0  0  0  0  0  0
  -28.7186  -18.4503   21.0848 H   0  0  0  0  0  0
  -30.7480  -17.7098   21.5280 H   0  0  0  0  0  0
  -31.0474  -17.6082   19.8452 H   0  0  0  0  0  0
  -27.8196  -20.1992   21.3886 H   0  0  0  0  0  0
  -28.8088  -15.9049   20.7010 H   0  0  0  0  0  0
  1 25  1  0  0  0
  1 30  2  0  0  0
  1 84  1  0  0  0
  2  3  1  0  0  0
  2 25  1  0  0  0
  2 85  1  0  0  0
  2 86  1  0  0  0
  3  4  1  0  0  0
  3 87  1  0  0  0
  3 88  1  0  0  0
  4  5  1  0  0  0
  4 89  1  0  0  0
  4 90  1  0  0  0
  5  6  1  0  0  0
  5 26  1  0  0  0
  5 91  1  0  0  0
  6 25  1  0  0  0
  6 92  1  0  0  0
  6 93  1  0  0  0
  7  8  2  0  0  0
  7 26  1  0  0  0
  7 29  1  0  0  0
  8  9  1  0  0  0
  8 22  1  0  0  0
  9 10  1  0  0  0
  9 27  2  0  0  0
 10 11  2  0  0  0
 10 15  1  0  0  0
 11 12  1  0  0  0
 11 94  1  0  0  0
 12 13  2  0  0  0
 12 95  1  0  0  0
 13 14  1  0  0  0
 13 31  1  0  0  0
 14 15  2  0  0  0
 14 96  1  0  0  0
 15 97  1  0  0  0
 16 17  2  0  0  0
 16 21  1  0  0  0
 16 31  1  0  0  0
 17 18  1  0  0  0
 17 98  1  0  0  0
 18 19  2  0  0  0
 18 99  1  0  0  0
 19 20  1  0  0  0
 19 24  1  0  0  0
 20 21  2  0  0  0
 20100  1  0  0  0
 21 23  1  0  0  0
 22 28  1  0  0  0
 22 32  2  0  0  0
 26 27  1  0  0  0
 28101  1  0  0  0
 28102  1  0  0  0
 29103  1  0  0  0
 29104  1  0  0  0
 33 34  1  0  0  0
 33 66  1  0  0  0
 33 70  2  0  0  0
 34 36  1  0  0  0
 34 59  1  0  0  0
 34105  1  0  0  0
 35 44  2  0  0  0
 35 45  1  0  0  0
 35 68  1  0  0  0
 36 56  1  0  0  0
 36106  1  0  0  0
 37 39  1  0  0  0
 37 47  1  0  0  0
 37 66  1  0  0  0
 37107  1  0  0  0
 38 43  2  0  0  0
 38 46  1  0  0  0
 38 47  1  0  0  0
 39 64  1  0  0  0
 39 67  2  0  0  0
 40 52  1  0  0  0
 40 53  2  0  0  0
 40 58  1  0  0  0
 41108  1  0  0  0
 41109  1  0  0  0
 41110  1  0  0  0
 41 48  1  0  0  0
 42 43  1  0  0  0
 42 66  1  0  0  0
 42111  1  0  0  0
 42112  1  0  0  0
 43 44  1  0  0  0
 44113  1  0  0  0
 45 46  2  0  0  0
 45114  1  0  0  0
 46115  1  0  0  0
 47116  1  0  0  0
 47117  1  0  0  0
 48 56  1  0  0  0
 48 65  1  0  0  0
 48118  1  0  0  0
 49 50  1  0  0  0
 49 53  1  0  0  0
 49 64  1  0  0  0
 49119  1  0  0  0
 50 51  1  0  0  0
 50120  1  0  0  0
 50121  1  0  0  0
 51 52  1  0  0  0
 51122  1  0  0  0
 51123  1  0  0  0
 52124  1  0  0  0
 52125  1  0  0  0
 53 54  1  0  0  0
 54 55  2  0  0  0
 54126  1  0  0  0
 55 57  1  0  0  0
 55127  1  0  0  0
 56 69  2  0  0  0
 57 58  2  0  0  0
 57128  1  0  0  0
 58129  1  0  0  0
 59 60  1  0  0  0
 59 61  1  0  0  0
 59 62  1  0  0  0
 60130  1  0  0  0
 60131  1  0  0  0
 60132  1  0  0  0
 61133  1  0  0  0
 61134  1  0  0  0
 61135  1  0  0  0
 62136  1  0  0  0
 62137  1  0  0  0
 62138  1  0  0  0
 63 65  1  0  0  0
 63139  1  0  0  0
 63140  1  0  0  0
 63141  1  0  0  0
 64142  1  0  0  0
 65143  1  0  0  0
 68 74  1  0  0  0
 71 72  2  0  0  0
 71 82  1  0  0  0
 71144  1  0  0  0
 72 73  1  0  0  0
 72 81  1  0  0  0
 73 77  1  0  0  0
 73 83  2  0  0  0
 74 82  2  0  0  0
 74 83  1  0  0  0
 75 77  1  0  0  0
 75145  1  0  0  0
 75146  1  0  0  0
 75147  1  0  0  0
 76 78  1  0  0  0
 76148  1  0  0  0
 76149  1  0  0  0
 76150  1  0  0  0
 77151  1  0  0  0
 77152  1  0  0  0
 78153  1  0  0  0
 78154  1  0  0  0
 78 81  1  0  0  0
 79 80  1  0  0  0
 79 81  1  0  0  0
 79155  1  0  0  0
 79156  1  0  0  0
 80 84  1  0  0  0
 80157  1  0  0  0
 80158  1  0  0  0
 81159  1  0  0  0
 84160  1  0  0  0
M  ISO  4   1 100  68 101  74 101  84 100
M  END
> <chiral flag>
0

> <version>
0

> <s_m_source_file>
/data/baiqing/PycharmProjects/Reinvent-master-3.2/result/LINK_invent/BTK/process_docking_weight1_custom_sum_contain_oxygen_bond_distance_aromatic_linkinvent_7_9_3/rearranged_h_0119.sdf

> <i_m_source_file_index>
84

> <r_mmod_Potential_Energy-OPLS-2005>
301.820678710938

> <r_mmod_Stretch_Energy-OPLS-2005>
222.281539916992

> <r_mmod_Bend_Energy-OPLS-2005>
500.560546875

> <r_mmod_Torsional_Energy-OPLS-2005>
227.678070068359

> <r_mmod_Improper_Torsional_Energy-OPLS-2005>
7.39116477966309

> <r_mmod_Van_der_Waal_Energy-OPLS-2005>
147.924728393555

> <r_mmod_Electrostatic_Energy-OPLS-2005>
-738.801574707031

> <r_mmod_Solvation_Energy-OPLS-2005>
-219.462921142578

> <b_mmod_Minimization_Converged-OPLS-2005>
0

> <r_mmod_RMS_Derivative-OPLS-2005>
1.55006432533264

$$$$
84
                    3D
 Structure written by MMmdl.
157165  0  0  1  0            999 V2000
  -30.6936  -14.6144   20.4661 C   0  0  0  0  0  0
  -30.4132  -12.3707   19.4640 C   0  0  0  0  0  0
  -29.4978  -12.4819   18.2280 C   0  0  0  0  0  0
  -28.0226  -12.3311   18.6431 C   0  0  0  0  0  0
  -27.6449  -13.2263   19.8538 C   0  0  2  0  0  0
  -28.6913  -13.1380   20.9876 C   0  0  0  0  0  0
  -25.2530  -13.8197   20.5706 C   0  0  0  0  0  0
  -24.1803  -13.0453   20.9199 C   0  0  0  0  0  0
  -24.6384  -11.6925   20.8751 C   0  0  0  0  0  0
  -23.9055  -10.4303   21.0403 C   0  0  0  0  0  0
  -24.3608   -9.4222   21.9180 C   0  0  0  0  0  0
  -23.6288   -8.2252   22.0749 C   0  0  0  0  0  0
  -22.4269   -8.0282   21.3540 C   0  0  0  0  0  0
  -21.9911   -9.0249   20.4633 C   0  0  0  0  0  0
  -22.7231  -10.2135   20.3046 C   0  0  0  0  0  0
  -21.6857   -6.0738   22.5283 C   0  0  0  0  0  0
  -21.4005   -6.5642   23.8216 C   0  0  0  0  0  0
  -21.3663   -5.6794   24.9176 C   0  0  0  0  0  0
  -21.6045   -4.3056   24.7224 C   0  0  0  0  0  0
  -21.8820   -3.8147   23.4347 C   0  0  0  0  0  0
  -21.9191   -4.6963   22.3402 C   0  0  0  0  0  0
  -22.7825  -13.5238   21.1863 C   0  0  0  0  0  0
  -22.1664   -4.2152   21.0980 F   0  0  0  0  0  0
  -21.5635   -3.4540   25.7737 F   0  0  0  0  0  0
  -30.0035  -13.4344   20.4037 N   0  0  0  0  0  0
  -26.2954  -12.9399   20.3312 N   0  0  0  0  0  0
  -25.9314  -11.6546   20.5778 N   0  0  0  0  0  0
  -22.0471  -12.8208   22.0402 N   0  0  0  0  0  0
  -25.4243  -15.1918   20.4132 N   0  0  0  0  0  0
  -31.8825  -14.6600   20.1447 O   0  0  0  0  0  0
  -21.6641   -6.8875   21.4240 O   0  0  0  0  0  0
  -22.3516  -14.5549   20.6727 O   0  0  0  0  0  0
  -24.6234  -31.8605   23.2032 C   0  0  0  0  0  0
  -25.9076  -32.4792   23.8370 C   0  0  1  0  0  0
  -27.2269  -27.3471   20.1235 C   0  0  0  0  0  0
  -25.5899  -33.8588   24.2301 N   0  0  0  0  0  0
  -23.4168  -30.4830   21.5435 C   0  0  2  0  0  0
  -24.8658  -28.9364   20.1130 C   0  0  0  0  0  0
  -22.7459  -29.4628   22.4935 C   0  0  0  0  0  0
  -18.0275  -28.1383   22.8488 C   0  0  0  0  0  0
  -24.1481  -36.7289   23.2650 C   0  0  0  0  0  0
  -25.9536  -30.8018   21.3662 C   0  0  0  0  0  0
  -26.0318  -29.4283   20.7149 C   0  0  0  0  0  0
  -27.2199  -28.6449   20.7095 C   0  0  0  0  0  0
  -26.0449  -26.8936   19.5037 C   0  0  0  0  0  0
  -24.8724  -27.6722   19.4991 C   0  0  0  0  0  0
  -23.6311  -29.8110   20.1604 C   0  0  0  0  0  0
  -25.4100  -36.3087   24.0347 C   0  0  1  0  0  0
  -20.5875  -28.3674   23.1280 C   0  0  2  0  0  0
  -20.6766  -26.9400   22.5401 C   0  0  0  0  0  0
  -19.5747  -26.6379   21.5200 C   0  0  0  0  0  0
  -18.1922  -26.7933   22.1609 C   0  0  0  0  0  0
  -19.1531  -28.8842   23.2884 C   0  0  0  0  0  0
  -18.9468  -30.1453   23.8901 C   0  0  0  0  0  0
  -17.6465  -30.6591   24.0561 C   0  0  0  0  0  0
  -25.9035  -34.9462   23.5123 C   0  0  0  0  0  0
  -16.5353  -29.9092   23.6336 C   0  0  0  0  0  0
  -16.7260  -28.6505   23.0358 C   0  0  0  0  0  0
  -26.4469  -31.6595   25.0736 C   0  0  0  0  0  0
  -25.3697  -31.3701   26.1463 C   0  0  0  0  0  0
  -27.0342  -30.3050   24.6146 C   0  0  0  0  0  0
  -27.6055  -32.4307   25.7483 C   0  0  0  0  0  0
  -27.5569  -37.1801   24.8467 C   0  0  0  0  0  0
  -21.4171  -29.3045   22.3689 N   0  0  0  0  0  0
  -26.4276  -37.3780   23.9425 N   0  0  0  0  0  0
  -24.6841  -31.0643   22.0966 N   0  0  0  0  0  0
  -23.4189  -28.8161   23.3002 O   0  0  0  0  0  0
  -28.3321  -26.4997   20.1381 O   0  0  0  0  0  0
  -26.5605  -34.8923   22.4690 O   0  0  0  0  0  0
  -23.5397  -32.1369   23.7376 O   0  0  0  0  0  0
  -28.6946  -18.7412   20.9730 C   0  0  0  0  0  0
  -28.2456  -20.0842   21.1476 C   0  0  0  0  0  0
  -29.0842  -21.1879   20.7923 C   0  0  0  0  0  0
  -29.9735  -18.4943   20.4387 C   0  0  0  0  0  0
  -30.3323  -20.8315   20.2151 C   0  0  0  0  0  0
  -28.6523  -23.9100   20.2769 C   0  0  0  0  0  0
  -26.8813  -20.3041   21.7775 C   0  0  0  0  0  0
  -31.3582  -21.8646   19.7828 C   0  0  0  0  0  0
  -28.7307  -22.6642   21.2379 C   0  0  0  0  0  0
  -30.6516  -17.0959   20.2772 C   0  0  0  0  0  0
  -28.1475  -25.2610   20.9135 C   0  0  0  0  0  0
  -30.7405  -19.5434   20.0464 N   0  0  0  0  0  0
  -30.0096  -15.7872   20.6303 N   0  0  0  0  0  0
  -28.9645  -23.8310   19.0841 O   0  0  0  0  0  0
  -31.4598  -12.4492   19.1643 H   0  0  0  0  0  0
  -30.3120  -11.3908   19.9330 H   0  0  0  0  0  0
  -29.7580  -11.7195   17.4936 H   0  0  0  0  0  0
  -29.6477  -13.4452   17.7388 H   0  0  0  0  0  0
  -27.8601  -11.2821   18.8940 H   0  0  0  0  0  0
  -27.3669  -12.5426   17.7969 H   0  0  0  0  0  0
  -27.6499  -14.2510   19.4825 H   0  0  0  0  0  0
  -28.6951  -12.1435   21.4360 H   0  0  0  0  0  0
  -28.4513  -13.8364   21.7911 H   0  0  0  0  0  0
  -25.2751   -9.5709   22.4760 H   0  0  0  0  0  0
  -24.0006   -7.4646   22.7471 H   0  0  0  0  0  0
  -21.0850   -8.8749   19.8935 H   0  0  0  0  0  0
  -22.3679  -10.9666   19.6153 H   0  0  0  0  0  0
  -21.1987   -7.6149   23.9716 H   0  0  0  0  0  0
  -21.1486   -6.0524   25.9080 H   0  0  0  0  0  0
  -22.0593   -2.7609   23.2845 H   0  0  0  0  0  0
  -22.4088  -11.9856   22.4768 H   0  0  0  0  0  0
  -21.1082  -13.1222   22.2608 H   0  0  0  0  0  0
  -24.6574  -15.8464   20.5192 H   0  0  0  0  0  0
  -26.2718  -15.6306   20.0773 H   0  0  0  0  0  0
  -26.7158  -32.5469   23.1135 H   0  0  0  0  0  0
  -25.0089  -33.9741   25.0472 H   0  0  0  0  0  0
  -22.7104  -31.3029   21.3971 H   0  0  0  0  0  0
  -23.3753  -35.9614   23.3305 H   0  0  0  0  0  0
  -24.3574  -36.8897   22.2065 H   0  0  0  0  0  0
  -23.7222  -37.6494   23.6655 H   0  0  0  0  0  0
  -26.0697  -31.5600   20.5903 H   0  0  0  0  0  0
  -26.8419  -30.8609   21.9847 H   0  0  0  0  0  0
  -28.1176  -29.0168   21.1814 H   0  0  0  0  0  0
  -26.0281  -25.9193   19.0354 H   0  0  0  0  0  0
  -23.9775  -27.2864   19.0305 H   0  0  0  0  0  0
  -23.7426  -30.5843   19.3994 H   0  0  0  0  0  0
  -22.7544  -29.2333   19.8616 H   0  0  0  0  0  0
  -25.1271  -36.1952   25.0842 H   0  0  0  0  0  0
  -20.9964  -28.3237   24.1400 H   0  0  0  0  0  0
  -20.5643  -26.2293   23.3599 H   0  0  0  0  0  0
  -21.6638  -26.7418   22.1202 H   0  0  0  0  0  0
  -19.6912  -25.6289   21.1238 H   0  0  0  0  0  0
  -19.6698  -27.3192   20.6737 H   0  0  0  0  0  0
  -17.4196  -26.6686   21.4003 H   0  0  0  0  0  0
  -18.0302  -26.0054   22.8977 H   0  0  0  0  0  0
  -19.7951  -30.7264   24.2256 H   0  0  0  0  0  0
  -17.5031  -31.6277   24.5164 H   0  0  0  0  0  0
  -15.5357  -30.3004   23.7679 H   0  0  0  0  0  0
  -15.8645  -28.0833   22.7081 H   0  0  0  0  0  0
  -24.5921  -30.6986   25.7789 H   0  0  0  0  0  0
  -24.8826  -32.2851   26.4851 H   0  0  0  0  0  0
  -25.8023  -30.8928   27.0265 H   0  0  0  0  0  0
  -26.2933  -29.6781   24.1177 H   0  0  0  0  0  0
  -27.4115  -29.7304   25.4618 H   0  0  0  0  0  0
  -27.8738  -30.4407   23.9321 H   0  0  0  0  0  0
  -27.2727  -33.3642   26.2018 H   0  0  0  0  0  0
  -28.3879  -32.6786   25.0297 H   0  0  0  0  0  0
  -28.0696  -31.8437   26.5418 H   0  0  0  0  0  0
  -28.2586  -38.0103   24.7519 H   0  0  0  0  0  0
  -28.1062  -36.2632   24.6269 H   0  0  0  0  0  0
  -27.2288  -37.1415   25.8872 H   0  0  0  0  0  0
  -20.9335  -29.8797   21.6934 H   0  0  0  0  0  0
  -26.0157  -38.2858   24.1434 H   0  0  0  0  0  0
  -28.0753  -17.9100   21.2811 H   0  0  0  0  0  0
  -26.3073  -19.3777   21.8089 H   0  0  0  0  0  0
  -26.2985  -21.0282   21.2080 H   0  0  0  0  0  0
  -26.9829  -20.6642   22.8015 H   0  0  0  0  0  0
  -31.1737  -22.1646   18.7508 H   0  0  0  0  0  0
  -32.3713  -21.4648   19.8349 H   0  0  0  0  0  0
  -31.3345  -22.7553   20.4088 H   0  0  0  0  0  0
  -29.4683  -22.9238   21.9975 H   0  0  0  0  0  0
  -27.7857  -22.6566   21.7772 H   0  0  0  0  0  0
  -31.5876  -17.1563   20.8366 H   0  0  0  0  0  0
  -30.9499  -17.0293   19.2287 H   0  0  0  0  0  0
  -28.6707  -25.3903   21.8610 H   0  0  0  0  0  0
  -27.0975  -25.1250   21.1725 H   0  0  0  0  0  0
  -29.0238  -15.7766   20.8375 H   0  0  0  0  0  0
  1 25  1  0  0  0
  1 30  2  0  0  0
  1 83  1  0  0  0
  2  3  1  0  0  0
  2 25  1  0  0  0
  2 85  1  0  0  0
  2 86  1  0  0  0
  3  4  1  0  0  0
  3 87  1  0  0  0
  3 88  1  0  0  0
  4  5  1  0  0  0
  4 89  1  0  0  0
  4 90  1  0  0  0
  5  6  1  0  0  0
  5 26  1  0  0  0
  5 91  1  0  0  0
  6 25  1  0  0  0
  6 92  1  0  0  0
  6 93  1  0  0  0
  7  8  2  0  0  0
  7 26  1  0  0  0
  7 29  1  0  0  0
  8  9  1  0  0  0
  8 22  1  0  0  0
  9 10  1  0  0  0
  9 27  2  0  0  0
 10 11  2  0  0  0
 10 15  1  0  0  0
 11 12  1  0  0  0
 11 94  1  0  0  0
 12 13  2  0  0  0
 12 95  1  0  0  0
 13 14  1  0  0  0
 13 31  1  0  0  0
 14 15  2  0  0  0
 14 96  1  0  0  0
 15 97  1  0  0  0
 16 17  2  0  0  0
 16 21  1  0  0  0
 16 31  1  0  0  0
 17 18  1  0  0  0
 17 98  1  0  0  0
 18 19  2  0  0  0
 18 99  1  0  0  0
 19 20  1  0  0  0
 19 24  1  0  0  0
 20 21  2  0  0  0
 20100  1  0  0  0
 21 23  1  0  0  0
 22 28  1  0  0  0
 22 32  2  0  0  0
 26 27  1  0  0  0
 28101  1  0  0  0
 28102  1  0  0  0
 29103  1  0  0  0
 29104  1  0  0  0
 33 34  1  0  0  0
 33 66  1  0  0  0
 33 70  2  0  0  0
 34 36  1  0  0  0
 34 59  1  0  0  0
 34105  1  0  0  0
 35 44  2  0  0  0
 35 45  1  0  0  0
 35 68  1  0  0  0
 36 56  1  0  0  0
 36106  1  0  0  0
 37 39  1  0  0  0
 37 47  1  0  0  0
 37 66  1  0  0  0
 37107  1  0  0  0
 38 43  2  0  0  0
 38 46  1  0  0  0
 38 47  1  0  0  0
 39 64  1  0  0  0
 39 67  2  0  0  0
 40 52  1  0  0  0
 40 53  2  0  0  0
 40 58  1  0  0  0
 41108  1  0  0  0
 41109  1  0  0  0
 41110  1  0  0  0
 41 48  1  0  0  0
 42 43  1  0  0  0
 42 66  1  0  0  0
 42111  1  0  0  0
 42112  1  0  0  0
 43 44  1  0  0  0
 44113  1  0  0  0
 45 46  2  0  0  0
 45114  1  0  0  0
 46115  1  0  0  0
 47116  1  0  0  0
 47117  1  0  0  0
 48 56  1  0  0  0
 48 65  1  0  0  0
 48118  1  0  0  0
 49 50  1  0  0  0
 49 53  1  0  0  0
 49 64  1  0  0  0
 49119  1  0  0  0
 50 51  1  0  0  0
 50120  1  0  0  0
 50121  1  0  0  0
 51 52  1  0  0  0
 51122  1  0  0  0
 51123  1  0  0  0
 52124  1  0  0  0
 52125  1  0  0  0
 53 54  1  0  0  0
 54 55  2  0  0  0
 54126  1  0  0  0
 55 57  1  0  0  0
 55127  1  0  0  0
 56 69  2  0  0  0
 57 58  2  0  0  0
 57128  1  0  0  0
 58129  1  0  0  0
 59 60  1  0  0  0
 59 61  1  0  0  0
 59 62  1  0  0  0
 60130  1  0  0  0
 60131  1  0  0  0
 60132  1  0  0  0
 61133  1  0  0  0
 61134  1  0  0  0
 61135  1  0  0  0
 62136  1  0  0  0
 62137  1  0  0  0
 62138  1  0  0  0
 63 65  1  0  0  0
 63139  1  0  0  0
 63140  1  0  0  0
 63141  1  0  0  0
 64142  1  0  0  0
 65143  1  0  0  0
 68 81  1  0  0  0
 71 72  2  0  0  0
 71 74  1  0  0  0
 71144  1  0  0  0
 72 73  1  0  0  0
 72 77  1  0  0  0
 73 75  2  0  0  0
 73 79  1  0  0  0
 74 80  1  0  0  0
 74 82  2  0  0  0
 75 78  1  0  0  0
 75 82  1  0  0  0
 76 79  1  0  0  0
 76 81  1  0  0  0
 76 84  2  0  0  0
 77145  1  0  0  0
 77146  1  0  0  0
 77147  1  0  0  0
 78148  1  0  0  0
 78149  1  0  0  0
 78150  1  0  0  0
 79151  1  0  0  0
 79152  1  0  0  0
 80 83  1  0  0  0
 80153  1  0  0  0
 80154  1  0  0  0
 81155  1  0  0  0
 81156  1  0  0  0
 83157  1  0  0  0
M  ISO  4   1 100  68 101  81 101  83 100
M  END
> <chiral flag>
0

> <version>
0

> <s_m_source_file>
/data/baiqing/PycharmProjects/Reinvent-master-3.2/result/LINK_invent/BTK/process_docking_weight1_custom_sum_contain_oxygen_bond_distance_aromatic_linkinvent_7_9_3/rearranged_h_0119.sdf

> <i_m_source_file_index>
85

> <r_mmod_Potential_Energy-OPLS-2005>
-226.255889892578

> <r_mmod_Stretch_Energy-OPLS-2005>
69.7774887084961

> <r_mmod_Bend_Energy-OPLS-2005>
151.278686523438

> <r_mmod_Torsional_Energy-OPLS-2005>
226.362380981445

> <r_mmod_Improper_Torsional_Energy-OPLS-2005>
7.39714527130127

> <r_mmod_Van_der_Waal_Energy-OPLS-2005>
144.6064453125

> <r_mmod_Electrostatic_Energy-OPLS-2005>
-622.150207519531

> <r_mmod_Solvation_Energy-OPLS-2005>
-248.65348815918

> <b_mmod_Minimization_Converged-OPLS-2005>
0

> <r_mmod_RMS_Derivative-OPLS-2005>
1.8858630657196

$$$$
85
                    3D
 Structure written by MMmdl.
168177  0  0  1  0            999 V2000
  -30.5984  -14.8064   20.4430 C   0  0  0  0  0  0
  -30.4383  -12.4929   19.4879 C   0  0  0  0  0  0
  -29.5177  -12.5157   18.2468 C   0  0  0  0  0  0
  -28.0456  -12.3273   18.6597 C   0  0  0  0  0  0
  -27.6423  -13.2376   19.8499 C   0  0  2  0  0  0
  -28.6861  -13.2009   20.9888 C   0  0  0  0  0  0
  -25.2523  -13.8210   20.5707 C   0  0  0  0  0  0
  -24.1818  -13.0454   20.9225 C   0  0  0  0  0  0
  -24.6416  -11.6932   20.8761 C   0  0  0  0  0  0
  -23.9092  -10.4300   21.0417 C   0  0  0  0  0  0
  -24.3631   -9.4211   21.9194 C   0  0  0  0  0  0
  -23.6300   -8.2247   22.0754 C   0  0  0  0  0  0
  -22.4281   -8.0289   21.3547 C   0  0  0  0  0  0
  -21.9925   -9.0274   20.4652 C   0  0  0  0  0  0
  -22.7260  -10.2150   20.3064 C   0  0  0  0  0  0
  -21.6855   -6.0747   22.5286 C   0  0  0  0  0  0
  -21.4018   -6.5644   23.8219 C   0  0  0  0  0  0
  -21.3657   -5.6787   24.9178 C   0  0  0  0  0  0
  -21.6039   -4.3053   24.7225 C   0  0  0  0  0  0
  -21.8819   -3.8153   23.4342 C   0  0  0  0  0  0
  -21.9197   -4.6975   22.3401 C   0  0  0  0  0  0
  -22.7833  -13.5236   21.1859 C   0  0  0  0  0  0
  -22.1662   -4.2163   21.0980 F   0  0  0  0  0  0
  -21.5620   -3.4532   25.7735 F   0  0  0  0  0  0
  -29.9842  -13.5681   20.4070 N   0  0  0  0  0  0
  -26.2953  -12.9423   20.3285 N   0  0  0  0  0  0
  -25.9346  -11.6564   20.5756 N   0  0  0  0  0  0
  -22.0456  -12.8239   22.0410 N   0  0  0  0  0  0
  -25.4219  -15.1934   20.4098 N   0  0  0  0  0  0
  -31.7797  -14.9004   20.1017 O   0  0  0  0  0  0
  -21.6637   -6.8893   21.4246 O   0  0  0  0  0  0
  -22.3525  -14.5542   20.6699 O   0  0  0  0  0  0
  -24.6394  -31.8506   23.1982 C   0  0  0  0  0  0
  -25.9204  -32.4723   23.8320 C   0  0  1  0  0  0
  -27.2061  -27.1993   20.1323 C   0  0  0  0  0  0
  -25.5991  -33.8531   24.2242 N   0  0  0  0  0  0
  -23.4372  -30.4789   21.5422 C   0  0  2  0  0  0
  -24.8840  -28.9297   20.1069 C   0  0  0  0  0  0
  -22.7540  -29.4588   22.4880 C   0  0  0  0  0  0
  -18.0301  -28.1383   22.8462 C   0  0  0  0  0  0
  -24.1491  -36.7254   23.2624 C   0  0  0  0  0  0
  -25.9922  -30.7462   21.3893 C   0  0  0  0  0  0
  -26.0625  -29.3666   20.7263 C   0  0  0  0  0  0
  -27.2258  -28.5163   20.7292 C   0  0  0  0  0  0
  -26.0042  -26.8711   19.4559 C   0  0  0  0  0  0
  -24.8656  -27.6930   19.4577 C   0  0  0  0  0  0
  -23.6584  -29.8215   20.1567 C   0  0  0  0  0  0
  -25.4115  -36.3044   24.0314 C   0  0  1  0  0  0
  -20.5912  -28.3703   23.1233 C   0  0  2  0  0  0
  -20.6781  -26.9412   22.5391 C   0  0  0  0  0  0
  -19.5765  -26.6377   21.5191 C   0  0  0  0  0  0
  -18.1944  -26.7924   22.1601 C   0  0  0  0  0  0
  -19.1555  -28.8860   23.2842 C   0  0  0  0  0  0
  -18.9473  -30.1461   23.8859 C   0  0  0  0  0  0
  -17.6471  -30.6582   24.0548 C   0  0  0  0  0  0
  -25.9071  -34.9420   23.5070 C   0  0  0  0  0  0
  -16.5362  -29.9072   23.6338 C   0  0  0  0  0  0
  -16.7283  -28.6493   23.0347 C   0  0  0  0  0  0
  -26.4550  -31.6561   25.0727 C   0  0  0  0  0  0
  -25.3762  -31.3746   26.1443 C   0  0  0  0  0  0
  -27.0381  -30.2947   24.6279 C   0  0  0  0  0  0
  -27.6099  -32.4308   25.7506 C   0  0  0  0  0  0
  -27.5596  -37.1755   24.8441 C   0  0  0  0  0  0
  -21.4237  -29.3049   22.3620 N   0  0  0  0  0  0
  -26.4270  -37.3766   23.9439 N   0  0  0  0  0  0
  -24.7087  -31.0429   22.0985 N   0  0  0  0  0  0
  -23.4213  -28.8103   23.2978 O   0  0  0  0  0  0
  -28.2424  -26.2081   20.2223 O   0  0  0  0  0  0
  -26.5627  -34.8908   22.4632 O   0  0  0  0  0  0
  -23.5534  -32.1354   23.7252 O   0  0  0  0  0  0
  -28.3680  -18.2400   23.3541 C   0  0  0  0  0  0
  -28.5743  -17.9525   24.7153 C   0  0  0  0  0  0
  -30.7679  -18.2198   23.0850 C   0  0  0  0  0  0
  -29.4901  -18.3840   22.5122 C   0  0  0  0  0  0
  -29.8904  -17.8109   25.1894 C   0  0  0  0  0  0
  -28.8054  -22.2653   19.1520 C   0  0  0  0  0  0
  -29.3723  -22.7619   21.4639 C   0  0  0  0  0  0
  -28.7445  -20.6954   19.4641 C   0  0  0  0  0  0
  -29.3247  -21.1863   21.7783 C   0  0  0  0  0  0
  -28.4038  -23.2163   20.3331 C   0  0  1  0  0  0
  -30.1694  -17.4959   26.6431 C   0  0  0  0  0  0
  -27.8168  -24.7494   20.0349 C   0  0  0  0  0  0
  -30.0911  -17.4320   20.2282 C   0  0  0  0  0  0
  -29.3310  -18.6592   21.0129 C   0  0  2  0  0  0
  -30.9689  -17.9473   24.3915 N   0  0  0  0  0  0
  -29.8267  -15.9554   20.6339 N   0  0  0  0  0  0
  -29.5419  -20.1862   20.6438 N   0  3  1  0  0  0
  -31.4782  -12.6234   19.1821 H   0  0  0  0  0  0
  -30.3938  -11.5224   19.9845 H   0  0  0  0  0  0
  -29.8109  -11.7362   17.5426 H   0  0  0  0  0  0
  -29.6346  -13.4641   17.7199 H   0  0  0  0  0  0
  -27.9147  -11.2805   18.9359 H   0  0  0  0  0  0
  -27.3880  -12.5015   17.8070 H   0  0  0  0  0  0
  -27.6288  -14.2533   19.4540 H   0  0  0  0  0  0
  -28.7342  -12.2097   21.4422 H   0  0  0  0  0  0
  -28.4094  -13.8902   21.7878 H   0  0  0  0  0  0
  -25.2777   -9.5682   22.4773 H   0  0  0  0  0  0
  -24.0011   -7.4636   22.7467 H   0  0  0  0  0  0
  -21.0857   -8.8811   19.8955 H   0  0  0  0  0  0
  -22.3731  -10.9698   19.6174 H   0  0  0  0  0  0
  -21.2015   -7.6150   23.9731 H   0  0  0  0  0  0
  -21.1468   -6.0512   25.9081 H   0  0  0  0  0  0
  -22.0600   -2.7617   23.2838 H   0  0  0  0  0  0
  -22.4037  -11.9899   22.4831 H   0  0  0  0  0  0
  -21.1073  -13.1289   22.2579 H   0  0  0  0  0  0
  -24.6500  -15.8438   20.5040 H   0  0  0  0  0  0
  -26.2540  -15.6223   20.0266 H   0  0  0  0  0  0
  -26.7264  -32.5350   23.1046 H   0  0  0  0  0  0
  -25.0191  -33.9661   25.0429 H   0  0  0  0  0  0
  -22.7369  -31.3046   21.3988 H   0  0  0  0  0  0
  -23.3784  -35.9547   23.3201 H   0  0  0  0  0  0
  -24.3609  -36.8967   22.2059 H   0  0  0  0  0  0
  -23.7196  -37.6407   23.6704 H   0  0  0  0  0  0
  -26.1432  -31.5073   20.6228 H   0  0  0  0  0  0
  -26.8649  -30.7897   22.0288 H   0  0  0  0  0  0
  -28.1188  -28.8422   21.2437 H   0  0  0  0  0  0
  -25.8806  -25.9384   18.9299 H   0  0  0  0  0  0
  -23.9695  -27.3589   18.9524 H   0  0  0  0  0  0
  -23.7873  -30.6011   19.4053 H   0  0  0  0  0  0
  -22.7749  -29.2600   19.8455 H   0  0  0  0  0  0
  -25.1287  -36.1855   25.0799 H   0  0  0  0  0  0
  -21.0005  -28.3283   24.1357 H   0  0  0  0  0  0
  -20.5655  -26.2312   23.3599 H   0  0  0  0  0  0
  -21.6650  -26.7415   22.1206 H   0  0  0  0  0  0
  -19.6923  -25.6282   21.1242 H   0  0  0  0  0  0
  -19.6713  -27.3162   20.6701 H   0  0  0  0  0  0
  -17.4214  -26.6661   21.4006 H   0  0  0  0  0  0
  -18.0355  -26.0071   22.9007 H   0  0  0  0  0  0
  -19.7948  -30.7290   24.2207 H   0  0  0  0  0  0
  -17.5024  -31.6262   24.5151 H   0  0  0  0  0  0
  -15.5357  -30.2958   23.7685 H   0  0  0  0  0  0
  -15.8685  -28.0808   22.7074 H   0  0  0  0  0  0
  -24.5967  -30.7050   25.7791 H   0  0  0  0  0  0
  -24.8930  -32.2925   26.4794 H   0  0  0  0  0  0
  -25.8087  -30.8996   27.0257 H   0  0  0  0  0  0
  -26.2970  -29.6700   24.1282 H   0  0  0  0  0  0
  -27.3974  -29.7223   25.4841 H   0  0  0  0  0  0
  -27.8899  -30.4155   23.9584 H   0  0  0  0  0  0
  -27.2706  -33.3624   26.2045 H   0  0  0  0  0  0
  -28.3935  -32.6840   25.0352 H   0  0  0  0  0  0
  -28.0735  -31.8455   26.5460 H   0  0  0  0  0  0
  -28.2510  -38.0155   24.7636 H   0  0  0  0  0  0
  -28.1195  -36.2699   24.6059 H   0  0  0  0  0  0
  -27.2344  -37.1145   25.8841 H   0  0  0  0  0  0
  -20.9429  -29.8795   21.6844 H   0  0  0  0  0  0
  -26.0128  -38.2805   24.1545 H   0  0  0  0  0  0
  -27.3631  -18.3444   22.9700 H   0  0  0  0  0  0
  -27.7301  -17.8385   25.3822 H   0  0  0  0  0  0
  -31.6604  -18.3163   22.4843 H   0  0  0  0  0  0
  -28.1408  -22.4599   18.3097 H   0  0  0  0  0  0
  -29.8024  -22.5309   18.7986 H   0  0  0  0  0  0
  -30.3923  -23.0540   21.2101 H   0  0  0  0  0  0
  -29.1307  -23.3055   22.3780 H   0  0  0  0  0  0
  -29.0605  -20.1442   18.5779 H   0  0  0  0  0  0
  -27.6985  -20.4261   19.6196 H   0  0  0  0  0  0
  -28.3507  -20.9709   22.2199 H   0  0  0  0  0  0
  -30.0543  -20.9873   22.5631 H   0  0  0  0  0  0
  -27.4707  -22.7506   20.6576 H   0  0  0  0  0  0
  -29.3224  -16.9864   27.1032 H   0  0  0  0  0  0
  -30.3594  -18.4148   27.1970 H   0  0  0  0  0  0
  -31.0417  -16.8497   26.7422 H   0  0  0  0  0  0
  -26.8730  -24.7216   20.5829 H   0  0  0  0  0  0
  -27.5478  -24.6920   18.9810 H   0  0  0  0  0  0
  -31.1681  -17.5925   20.2869 H   0  0  0  0  0  0
  -29.8557  -17.5157   19.1665 H   0  0  0  0  0  0
  -28.2710  -18.4917   20.8148 H   0  0  0  0  0  0
  -28.8837  -15.7678   20.9393 H   0  0  0  0  0  0
  -30.5122  -20.2825   20.3840 H   0  0  0  0  0  0
  1 25  1  0  0  0
  1 30  2  0  0  0
  1 86  1  0  0  0
  2  3  1  0  0  0
  2 25  1  0  0  0
  2 88  1  0  0  0
  2 89  1  0  0  0
  3  4  1  0  0  0
  3 90  1  0  0  0
  3 91  1  0  0  0
  4  5  1  0  0  0
  4 92  1  0  0  0
  4 93  1  0  0  0
  5  6  1  0  0  0
  5 26  1  0  0  0
  5 94  1  0  0  0
  6 25  1  0  0  0
  6 95  1  0  0  0
  6 96  1  0  0  0
  7  8  2  0  0  0
  7 26  1  0  0  0
  7 29  1  0  0  0
  8  9  1  0  0  0
  8 22  1  0  0  0
  9 10  1  0  0  0
  9 27  2  0  0  0
 10 11  2  0  0  0
 10 15  1  0  0  0
 11 12  1  0  0  0
 11 97  1  0  0  0
 12 13  2  0  0  0
 12 98  1  0  0  0
 13 14  1  0  0  0
 13 31  1  0  0  0
 14 15  2  0  0  0
 14 99  1  0  0  0
 15100  1  0  0  0
 16 17  2  0  0  0
 16 21  1  0  0  0
 16 31  1  0  0  0
 17 18  1  0  0  0
 17101  1  0  0  0
 18 19  2  0  0  0
 18102  1  0  0  0
 19 20  1  0  0  0
 19 24  1  0  0  0
 20 21  2  0  0  0
 20103  1  0  0  0
 21 23  1  0  0  0
 22 28  1  0  0  0
 22 32  2  0  0  0
 26 27  1  0  0  0
 28104  1  0  0  0
 28105  1  0  0  0
 29106  1  0  0  0
 29107  1  0  0  0
 33 34  1  0  0  0
 33 66  1  0  0  0
 33 70  2  0  0  0
 34 36  1  0  0  0
 34 59  1  0  0  0
 34108  1  0  0  0
 35 44  2  0  0  0
 35 45  1  0  0  0
 35 68  1  0  0  0
 36 56  1  0  0  0
 36109  1  0  0  0
 37 39  1  0  0  0
 37 47  1  0  0  0
 37 66  1  0  0  0
 37110  1  0  0  0
 38 43  2  0  0  0
 38 46  1  0  0  0
 38 47  1  0  0  0
 39 64  1  0  0  0
 39 67  2  0  0  0
 40 52  1  0  0  0
 40 53  2  0  0  0
 40 58  1  0  0  0
 41111  1  0  0  0
 41112  1  0  0  0
 41113  1  0  0  0
 41 48  1  0  0  0
 42 43  1  0  0  0
 42 66  1  0  0  0
 42114  1  0  0  0
 42115  1  0  0  0
 43 44  1  0  0  0
 44116  1  0  0  0
 45 46  2  0  0  0
 45117  1  0  0  0
 46118  1  0  0  0
 47119  1  0  0  0
 47120  1  0  0  0
 48 56  1  0  0  0
 48 65  1  0  0  0
 48121  1  0  0  0
 49 50  1  0  0  0
 49 53  1  0  0  0
 49 64  1  0  0  0
 49122  1  0  0  0
 50 51  1  0  0  0
 50123  1  0  0  0
 50124  1  0  0  0
 51 52  1  0  0  0
 51125  1  0  0  0
 51126  1  0  0  0
 52127  1  0  0  0
 52128  1  0  0  0
 53 54  1  0  0  0
 54 55  2  0  0  0
 54129  1  0  0  0
 55 57  1  0  0  0
 55130  1  0  0  0
 56 69  2  0  0  0
 57 58  2  0  0  0
 57131  1  0  0  0
 58132  1  0  0  0
 59 60  1  0  0  0
 59 61  1  0  0  0
 59 62  1  0  0  0
 60133  1  0  0  0
 60134  1  0  0  0
 60135  1  0  0  0
 61136  1  0  0  0
 61137  1  0  0  0
 61138  1  0  0  0
 62139  1  0  0  0
 62140  1  0  0  0
 62141  1  0  0  0
 63 65  1  0  0  0
 63142  1  0  0  0
 63143  1  0  0  0
 63144  1  0  0  0
 64145  1  0  0  0
 65146  1  0  0  0
 68 82  1  0  0  0
 71 72  2  0  0  0
 71 74  1  0  0  0
 71147  1  0  0  0
 72 75  1  0  0  0
 72148  1  0  0  0
 73 74  2  0  0  0
 73 85  1  0  0  0
 73149  1  0  0  0
 74 84  1  0  0  0
 75 81  1  0  0  0
 75 85  2  0  0  0
 76 78  1  0  0  0
 76 80  1  0  0  0
 76150  1  0  0  0
 76151  1  0  0  0
 77 79  1  0  0  0
 77 80  1  0  0  0
 77152  1  0  0  0
 77153  1  0  0  0
 78154  1  0  0  0
 78155  1  0  0  0
 78 87  1  0  0  0
 79 87  1  0  0  0
 79156  1  0  0  0
 79157  1  0  0  0
 80 82  1  0  0  0
 80158  1  0  0  0
 81159  1  0  0  0
 81160  1  0  0  0
 81161  1  0  0  0
 82162  1  0  0  0
 82163  1  0  0  0
 83 86  1  0  0  0
 83164  1  0  0  0
 83165  1  0  0  0
 83 84  1  0  0  0
 84 87  1  0  0  0
 84166  1  0  0  0
 86167  1  0  0  0
 87168  1  0  0  0
M  CHG  1  87   1
M  ISO  4   1 100  68 101  82 101  86 100
M  END
> <chiral flag>
0

> <version>
0

> <s_m_source_file>
/data/baiqing/PycharmProjects/Reinvent-master-3.2/result/LINK_invent/BTK/process_docking_weight1_custom_sum_contain_oxygen_bond_distance_aromatic_linkinvent_7_9_3/rearranged_h_0119.sdf

> <i_m_source_file_index>
86

> <r_mmod_Potential_Energy-OPLS-2005>
80.8938140869141

> <r_mmod_Stretch_Energy-OPLS-2005>
177.328079223633

> <r_mmod_Bend_Energy-OPLS-2005>
279.050170898438

> <r_mmod_Torsional_Energy-OPLS-2005>
257.171997070312

> <r_mmod_Improper_Torsional_Energy-OPLS-2005>
5.92372369766235

> <r_mmod_Van_der_Waal_Energy-OPLS-2005>
152.871734619141

> <r_mmod_Electrostatic_Energy-OPLS-2005>
-442.768707275391

> <r_mmod_Solvation_Energy-OPLS-2005>
-476.140258789062

> <b_mmod_Minimization_Converged-OPLS-2005>
0

> <r_mmod_RMS_Derivative-OPLS-2005>
1.37425136566162

$$$$
86
                    3D
 Structure written by MMmdl.
162170  0  0  1  0            999 V2000
  -30.6572  -14.6148   20.5471 C   0  0  0  0  0  0
  -30.4371  -12.3865   19.4688 C   0  0  0  0  0  0
  -29.5160  -12.5106   18.2373 C   0  0  0  0  0  0
  -28.0384  -12.3437   18.6430 C   0  0  0  0  0  0
  -27.6553  -13.2165   19.8699 C   0  0  2  0  0  0
  -28.6948  -13.0811   21.0056 C   0  0  0  0  0  0
  -25.2559  -13.8156   20.5695 C   0  0  0  0  0  0
  -24.1828  -13.0423   20.9161 C   0  0  0  0  0  0
  -24.6404  -11.6895   20.8728 C   0  0  0  0  0  0
  -23.9079  -10.4267   21.0397 C   0  0  0  0  0  0
  -24.3616   -9.4190   21.9174 C   0  0  0  0  0  0
  -23.6277   -8.2236   22.0766 C   0  0  0  0  0  0
  -22.4263   -8.0279   21.3542 C   0  0  0  0  0  0
  -21.9909   -9.0253   20.4650 C   0  0  0  0  0  0
  -22.7257  -10.2117   20.3040 C   0  0  0  0  0  0
  -21.6838   -6.0729   22.5274 C   0  0  0  0  0  0
  -21.4016   -6.5636   23.8217 C   0  0  0  0  0  0
  -21.3660   -5.6792   24.9182 C   0  0  0  0  0  0
  -21.6044   -4.3052   24.7229 C   0  0  0  0  0  0
  -21.8816   -3.8139   23.4359 C   0  0  0  0  0  0
  -21.9191   -4.6960   22.3404 C   0  0  0  0  0  0
  -22.7845  -13.5196   21.1835 C   0  0  0  0  0  0
  -22.1652   -4.2144   21.0977 F   0  0  0  0  0  0
  -21.5627   -3.4535   25.7749 F   0  0  0  0  0  0
  -30.0116  -13.4103   20.4452 N   0  0  0  0  0  0
  -26.2995  -12.9350   20.3342 N   0  0  0  0  0  0
  -25.9330  -11.6498   20.5750 N   0  0  0  0  0  0
  -22.0498  -12.8188   22.0386 N   0  0  0  0  0  0
  -25.4272  -15.1884   20.4133 N   0  0  0  0  0  0
  -31.8156  -14.7505   20.1410 O   0  0  0  0  0  0
  -21.6618   -6.8875   21.4240 O   0  0  0  0  0  0
  -22.3539  -14.5527   20.6706 O   0  0  0  0  0  0
  -24.6201  -31.8635   23.2039 C   0  0  0  0  0  0
  -25.9069  -32.4782   23.8365 C   0  0  1  0  0  0
  -27.2462  -27.3770   20.1170 C   0  0  0  0  0  0
  -25.5902  -33.8586   24.2246 N   0  0  0  0  0  0
  -23.4147  -30.4848   21.5454 C   0  0  2  0  0  0
  -24.8636  -28.9287   20.1314 C   0  0  0  0  0  0
  -22.7439  -29.4679   22.4959 C   0  0  0  0  0  0
  -18.0293  -28.1405   22.8500 C   0  0  0  0  0  0
  -24.1468  -36.7285   23.2601 C   0  0  0  0  0  0
  -25.9509  -30.8039   21.3765 C   0  0  0  0  0  0
  -26.0297  -29.4374   20.7169 C   0  0  0  0  0  0
  -27.2280  -28.6766   20.6913 C   0  0  0  0  0  0
  -26.0570  -26.8862   19.5416 C   0  0  0  0  0  0
  -24.8715  -27.6496   19.5458 C   0  0  0  0  0  0
  -23.6323  -29.8099   20.1665 C   0  0  0  0  0  0
  -25.4073  -36.3077   24.0317 C   0  0  1  0  0  0
  -20.5888  -28.3724   23.1276 C   0  0  2  0  0  0
  -20.6791  -26.9457   22.5404 C   0  0  0  0  0  0
  -19.5764  -26.6418   21.5219 C   0  0  0  0  0  0
  -18.1931  -26.7962   22.1606 C   0  0  0  0  0  0
  -19.1543  -28.8873   23.2896 C   0  0  0  0  0  0
  -18.9475  -30.1490   23.8896 C   0  0  0  0  0  0
  -17.6473  -30.6605   24.0580 C   0  0  0  0  0  0
  -25.9073  -34.9463   23.5090 C   0  0  0  0  0  0
  -16.5371  -29.9115   23.6349 C   0  0  0  0  0  0
  -16.7288  -28.6544   23.0349 C   0  0  0  0  0  0
  -26.4472  -31.6614   25.0752 C   0  0  0  0  0  0
  -25.3715  -31.3736   26.1477 C   0  0  0  0  0  0
  -27.0346  -30.3028   24.6254 C   0  0  0  0  0  0
  -27.6010  -32.4440   25.7484 C   0  0  0  0  0  0
  -27.5668  -37.1641   24.8330 C   0  0  0  0  0  0
  -21.4167  -29.3073   22.3656 N   0  0  0  0  0  0
  -26.4179  -37.3863   23.9587 N   0  0  0  0  0  0
  -24.6790  -31.0666   22.0994 N   0  0  0  0  0  0
  -23.4169  -28.8272   23.3084 O   0  0  0  0  0  0
  -28.3979  -26.6017   20.0753 O   0  0  0  0  0  0
  -26.5685  -34.8939   22.4689 O   0  0  0  0  0  0
  -23.5367  -32.1469   23.7371 O   0  0  0  0  0  0
  -29.9243  -17.8727   22.1780 C   0  0  0  0  0  0
  -29.8299  -18.1246   19.7415 C   0  0  0  0  0  0
  -29.5710  -16.3463   22.0589 C   0  0  0  0  0  0
  -29.4779  -16.6047   19.6065 C   0  0  0  0  0  0
  -29.3246  -18.7720   21.0541 C   0  0  0  0  0  0
  -29.8244  -24.2568   18.9641 C   0  0  0  0  0  0
  -29.1354  -22.7841   20.9390 C   0  0  0  0  0  0
  -28.8846  -21.2916   20.4570 C   0  0  0  0  0  0
  -28.3940  -25.3330   20.7987 C   0  0  0  0  0  0
  -28.7196  -24.0005   20.0068 C   0  0  1  0  0  0
  -29.8717  -15.7328   20.7420 N   0  0  0  0  0  0
  -29.6725  -20.2424   21.2087 N   0  3  0  0  0  0
  -31.4811  -12.5014   19.1726 H   0  0  0  0  0  0
  -30.3674  -11.3904   19.9087 H   0  0  0  0  0  0
  -29.7888  -11.7685   17.4852 H   0  0  0  0  0  0
  -29.6637  -13.4865   17.7701 H   0  0  0  0  0  0
  -27.8774  -11.2899   18.8747 H   0  0  0  0  0  0
  -27.3899  -12.5746   17.7970 H   0  0  0  0  0  0
  -27.6716  -14.2492   19.5248 H   0  0  0  0  0  0
  -28.7022  -12.0651   21.4044 H   0  0  0  0  0  0
  -28.4442  -13.7327   21.8427 H   0  0  0  0  0  0
  -25.2755   -9.5646   22.4753 H   0  0  0  0  0  0
  -23.9974   -7.4627   22.7487 H   0  0  0  0  0  0
  -21.0844   -8.8786   19.8945 H   0  0  0  0  0  0
  -22.3739  -10.9653   19.6142 H   0  0  0  0  0  0
  -21.2018   -7.6149   23.9725 H   0  0  0  0  0  0
  -21.1478   -6.0517   25.9082 H   0  0  0  0  0  0
  -22.0600   -2.7606   23.2864 H   0  0  0  0  0  0
  -22.4097  -11.9799   22.4705 H   0  0  0  0  0  0
  -21.1122  -13.1204   22.2615 H   0  0  0  0  0  0
  -24.6616  -15.8433   20.5293 H   0  0  0  0  0  0
  -26.2871  -15.6318   20.1181 H   0  0  0  0  0  0
  -26.7136  -32.5434   23.1121 H   0  0  0  0  0  0
  -24.9952  -33.9744   25.0311 H   0  0  0  0  0  0
  -22.7107  -31.3047   21.3925 H   0  0  0  0  0  0
  -23.3890  -35.9431   23.2880 H   0  0  0  0  0  0
  -24.3668  -36.9357   22.2113 H   0  0  0  0  0  0
  -23.6967  -37.6241   23.6902 H   0  0  0  0  0  0
  -26.0884  -31.5747   20.6184 H   0  0  0  0  0  0
  -26.8268  -30.8385   22.0140 H   0  0  0  0  0  0
  -28.1342  -29.0759   21.1264 H   0  0  0  0  0  0
  -26.0500  -25.9021   19.0955 H   0  0  0  0  0  0
  -23.9698  -27.2389   19.1139 H   0  0  0  0  0  0
  -23.7677  -30.5838   19.4098 H   0  0  0  0  0  0
  -22.7493  -29.2493   19.8553 H   0  0  0  0  0  0
  -25.1170  -36.1840   25.0780 H   0  0  0  0  0  0
  -20.9988  -28.3326   24.1398 H   0  0  0  0  0  0
  -20.5756  -26.2346   23.3615 H   0  0  0  0  0  0
  -21.6663  -26.7522   22.1160 H   0  0  0  0  0  0
  -19.6944  -25.6330   21.1269 H   0  0  0  0  0  0
  -19.6687  -27.3216   20.6737 H   0  0  0  0  0  0
  -17.4224  -26.6774   21.3978 H   0  0  0  0  0  0
  -18.0288  -26.0050   22.8941 H   0  0  0  0  0  0
  -19.7942  -30.7324   24.2250 H   0  0  0  0  0  0
  -17.5026  -31.6277   24.5193 H   0  0  0  0  0  0
  -15.5374  -30.3017   23.7679 H   0  0  0  0  0  0
  -15.8689  -28.0899   22.7015 H   0  0  0  0  0  0
  -24.5835  -30.7152   25.7802 H   0  0  0  0  0  0
  -24.8938  -32.2878   26.4996 H   0  0  0  0  0  0
  -25.8034  -30.8824   27.0209 H   0  0  0  0  0  0
  -26.2935  -29.6736   24.1302 H   0  0  0  0  0  0
  -27.4063  -29.7323   25.4790 H   0  0  0  0  0  0
  -27.8793  -30.4325   23.9482 H   0  0  0  0  0  0
  -27.2598  -33.3776   26.1988 H   0  0  0  0  0  0
  -28.3796  -32.7019   25.0284 H   0  0  0  0  0  0
  -28.0706  -31.8655   26.5456 H   0  0  0  0  0  0
  -28.2155  -38.0414   24.8259 H   0  0  0  0  0  0
  -28.1704  -36.3140   24.5086 H   0  0  0  0  0  0
  -27.2605  -36.9927   25.8669 H   0  0  0  0  0  0
  -20.9381  -29.8755   21.6795 H   0  0  0  0  0  0
  -26.0029  -38.2802   24.2117 H   0  0  0  0  0  0
  -31.0108  -17.9764   22.1761 H   0  0  0  0  0  0
  -29.6031  -18.2367   23.1551 H   0  0  0  0  0  0
  -29.4176  -18.6596   18.8853 H   0  0  0  0  0  0
  -30.9129  -18.2442   19.6778 H   0  0  0  0  0  0
  -28.5022  -16.2222   22.2430 H   0  0  0  0  0  0
  -30.0706  -15.7954   22.8586 H   0  0  0  0  0  0
  -29.9039  -16.2203   18.6770 H   0  0  0  0  0  0
  -28.3974  -16.5110   19.4928 H   0  0  0  0  0  0
  -28.2368  -18.6940   21.1054 H   0  0  0  0  0  0
  -30.1356  -23.3354   18.4717 H   0  0  0  0  0  0
  -30.7064  -24.7015   19.4280 H   0  0  0  0  0  0
  -29.4832  -24.9411   18.1852 H   0  0  0  0  0  0
  -30.1960  -22.8976   21.1670 H   0  0  0  0  0  0
  -28.6309  -22.9069   21.8982 H   0  0  0  0  0  0
  -29.1061  -21.1969   19.3937 H   0  0  0  0  0  0
  -27.8222  -21.0723   20.5704 H   0  0  0  0  0  0
  -29.1467  -25.4473   21.5793 H   0  0  0  0  0  0
  -27.4530  -25.2061   21.3340 H   0  0  0  0  0  0
  -27.8135  -23.7240   19.4665 H   0  0  0  0  0  0
  -30.6491  -20.3745   20.9976 H   0  0  0  0  0  0
  -29.5524  -20.4621   22.1842 H   0  0  0  0  0  0
  1 25  1  0  0  0
  1 30  2  0  0  0
  1 81  1  0  0  0
  2  3  1  0  0  0
  2 25  1  0  0  0
  2 83  1  0  0  0
  2 84  1  0  0  0
  3  4  1  0  0  0
  3 85  1  0  0  0
  3 86  1  0  0  0
  4  5  1  0  0  0
  4 87  1  0  0  0
  4 88  1  0  0  0
  5  6  1  0  0  0
  5 26  1  0  0  0
  5 89  1  0  0  0
  6 25  1  0  0  0
  6 90  1  0  0  0
  6 91  1  0  0  0
  7  8  2  0  0  0
  7 26  1  0  0  0
  7 29  1  0  0  0
  8  9  1  0  0  0
  8 22  1  0  0  0
  9 10  1  0  0  0
  9 27  2  0  0  0
 10 11  2  0  0  0
 10 15  1  0  0  0
 11 12  1  0  0  0
 11 92  1  0  0  0
 12 13  2  0  0  0
 12 93  1  0  0  0
 13 14  1  0  0  0
 13 31  1  0  0  0
 14 15  2  0  0  0
 14 94  1  0  0  0
 15 95  1  0  0  0
 16 17  2  0  0  0
 16 21  1  0  0  0
 16 31  1  0  0  0
 17 18  1  0  0  0
 17 96  1  0  0  0
 18 19  2  0  0  0
 18 97  1  0  0  0
 19 20  1  0  0  0
 19 24  1  0  0  0
 20 21  2  0  0  0
 20 98  1  0  0  0
 21 23  1  0  0  0
 22 28  1  0  0  0
 22 32  2  0  0  0
 26 27  1  0  0  0
 28 99  1  0  0  0
 28100  1  0  0  0
 29101  1  0  0  0
 29102  1  0  0  0
 33 34  1  0  0  0
 33 66  1  0  0  0
 33 70  2  0  0  0
 34 36  1  0  0  0
 34 59  1  0  0  0
 34103  1  0  0  0
 35 44  2  0  0  0
 35 45  1  0  0  0
 35 68  1  0  0  0
 36 56  1  0  0  0
 36104  1  0  0  0
 37 39  1  0  0  0
 37 47  1  0  0  0
 37 66  1  0  0  0
 37105  1  0  0  0
 38 43  2  0  0  0
 38 46  1  0  0  0
 38 47  1  0  0  0
 39 64  1  0  0  0
 39 67  2  0  0  0
 40 52  1  0  0  0
 40 53  2  0  0  0
 40 58  1  0  0  0
 41106  1  0  0  0
 41107  1  0  0  0
 41108  1  0  0  0
 41 48  1  0  0  0
 42 43  1  0  0  0
 42 66  1  0  0  0
 42109  1  0  0  0
 42110  1  0  0  0
 43 44  1  0  0  0
 44111  1  0  0  0
 45 46  2  0  0  0
 45112  1  0  0  0
 46113  1  0  0  0
 47114  1  0  0  0
 47115  1  0  0  0
 48 56  1  0  0  0
 48 65  1  0  0  0
 48116  1  0  0  0
 49 50  1  0  0  0
 49 53  1  0  0  0
 49 64  1  0  0  0
 49117  1  0  0  0
 50 51  1  0  0  0
 50118  1  0  0  0
 50119  1  0  0  0
 51 52  1  0  0  0
 51120  1  0  0  0
 51121  1  0  0  0
 52122  1  0  0  0
 52123  1  0  0  0
 53 54  1  0  0  0
 54 55  2  0  0  0
 54124  1  0  0  0
 55 57  1  0  0  0
 55125  1  0  0  0
 56 69  2  0  0  0
 57 58  2  0  0  0
 57126  1  0  0  0
 58127  1  0  0  0
 59 60  1  0  0  0
 59 61  1  0  0  0
 59 62  1  0  0  0
 60128  1  0  0  0
 60129  1  0  0  0
 60130  1  0  0  0
 61131  1  0  0  0
 61132  1  0  0  0
 61133  1  0  0  0
 62134  1  0  0  0
 62135  1  0  0  0
 62136  1  0  0  0
 63 65  1  0  0  0
 63137  1  0  0  0
 63138  1  0  0  0
 63139  1  0  0  0
 64140  1  0  0  0
 65141  1  0  0  0
 68 79  1  0  0  0
 71 73  1  0  0  0
 71 75  1  0  0  0
 71142  1  0  0  0
 71143  1  0  0  0
 72 74  1  0  0  0
 72 75  1  0  0  0
 72144  1  0  0  0
 72145  1  0  0  0
 73 81  1  0  0  0
 73146  1  0  0  0
 73147  1  0  0  0
 74 81  1  0  0  0
 74148  1  0  0  0
 74149  1  0  0  0
 75 82  1  0  0  0
 75150  1  0  0  0
 76151  1  0  0  0
 76152  1  0  0  0
 76153  1  0  0  0
 76 80  1  0  0  0
 77 78  1  0  0  0
 77 80  1  0  0  0
 77154  1  0  0  0
 77155  1  0  0  0
 78 82  1  0  0  0
 78156  1  0  0  0
 78157  1  0  0  0
 79 80  1  0  0  0
 79158  1  0  0  0
 79159  1  0  0  0
 80160  1  0  0  0
 82161  1  0  0  0
 82162  1  0  0  0
M  CHG  1  82   1
M  ISO  4   1 100  68 101  79 101  81 100
M  END
> <chiral flag>
0

> <version>
0

> <s_m_source_file>
/data/baiqing/PycharmProjects/Reinvent-master-3.2/result/LINK_invent/BTK/process_docking_weight1_custom_sum_contain_oxygen_bond_distance_aromatic_linkinvent_7_9_3/rearranged_h_0119.sdf

> <i_m_source_file_index>
87

> <r_mmod_Potential_Energy-OPLS-2005>
121.600074768066

> <r_mmod_Stretch_Energy-OPLS-2005>
66.7350845336914

> <r_mmod_Bend_Energy-OPLS-2005>
128.248474121094

> <r_mmod_Torsional_Energy-OPLS-2005>
371.865264892578

> <r_mmod_Improper_Torsional_Energy-OPLS-2005>
10.7134294509888

> <r_mmod_Van_der_Waal_Energy-OPLS-2005>
115.097587585449

> <r_mmod_Electrostatic_Energy-OPLS-2005>
-151.823593139648

> <r_mmod_Solvation_Energy-OPLS-2005>
-453.12353515625

> <b_mmod_Minimization_Converged-OPLS-2005>
0

> <r_mmod_RMS_Derivative-OPLS-2005>
3.67896413803101

$$$$
87
                    3D
 Structure written by MMmdl.
163171  0  0  1  0            999 V2000
  -30.5229  -14.7818   20.5646 C   0  0  0  0  0  0
  -30.4340  -12.5017   19.5009 C   0  0  0  0  0  0
  -29.5103  -12.5480   18.2575 C   0  0  0  0  0  0
  -28.0323  -12.3644   18.6526 C   0  0  0  0  0  0
  -27.6418  -13.2217   19.8790 C   0  0  2  0  0  0
  -28.6720  -13.1071   21.0236 C   0  0  0  0  0  0
  -25.2438  -13.8110   20.5620 C   0  0  0  0  0  0
  -24.1748  -13.0410   20.9331 C   0  0  0  0  0  0
  -24.6307  -11.6857   20.8818 C   0  0  0  0  0  0
  -23.8982  -10.4243   21.0432 C   0  0  0  0  0  0
  -24.3525   -9.4174   21.9208 C   0  0  0  0  0  0
  -23.6211   -8.2203   22.0767 C   0  0  0  0  0  0
  -22.4212   -8.0206   21.3544 C   0  0  0  0  0  0
  -21.9809   -9.0196   20.4676 C   0  0  0  0  0  0
  -22.7155  -10.2080   20.3104 C   0  0  0  0  0  0
  -21.6846   -6.0694   22.5254 C   0  0  0  0  0  0
  -21.4012   -6.5610   23.8194 C   0  0  0  0  0  0
  -21.3696   -5.6770   24.9154 C   0  0  0  0  0  0
  -21.6048   -4.3032   24.7221 C   0  0  0  0  0  0
  -21.8847   -3.8131   23.4364 C   0  0  0  0  0  0
  -21.9203   -4.6926   22.3406 C   0  0  0  0  0  0
  -22.7799  -13.5247   21.1904 C   0  0  0  0  0  0
  -22.1668   -4.2118   21.0977 F   0  0  0  0  0  0
  -21.5587   -3.4527   25.7754 F   0  0  0  0  0  0
  -29.9758  -13.5157   20.4875 N   0  0  0  0  0  0
  -26.2879  -12.9306   20.3350 N   0  0  0  0  0  0
  -25.9219  -11.6477   20.5802 N   0  0  0  0  0  0
  -22.0322  -12.8339   22.0425 N   0  0  0  0  0  0
  -25.4052  -15.1737   20.3347 N   0  0  0  0  0  0
  -31.6300  -14.9873   20.0468 O   0  0  0  0  0  0
  -21.6627   -6.8790   21.4193 O   0  0  0  0  0  0
  -22.3613  -14.5564   20.6662 O   0  0  0  0  0  0
  -24.6284  -31.8557   23.1988 C   0  0  0  0  0  0
  -25.9127  -32.4759   23.8313 C   0  0  1  0  0  0
  -27.2177  -27.2652   20.1903 C   0  0  0  0  0  0
  -25.5926  -33.8559   24.2264 N   0  0  0  0  0  0
  -23.4260  -30.4743   21.5383 C   0  0  2  0  0  0
  -24.8804  -28.9201   20.1155 C   0  0  0  0  0  0
  -22.7479  -29.4603   22.4901 C   0  0  0  0  0  0
  -18.0284  -28.1378   22.8476 C   0  0  0  0  0  0
  -24.1486  -36.7266   23.2635 C   0  0  0  0  0  0
  -25.9673  -30.7765   21.3767 C   0  0  0  0  0  0
  -26.0457  -29.3968   20.7292 C   0  0  0  0  0  0
  -27.2210  -28.5835   20.7543 C   0  0  0  0  0  0
  -26.0425  -26.8588   19.5261 C   0  0  0  0  0  0
  -24.8838  -27.6580   19.4953 C   0  0  0  0  0  0
  -23.6465  -29.7997   20.1562 C   0  0  0  0  0  0
  -25.4117  -36.3068   24.0318 C   0  0  1  0  0  0
  -20.5894  -28.3691   23.1256 C   0  0  2  0  0  0
  -20.6776  -26.9404   22.5404 C   0  0  0  0  0  0
  -19.5757  -26.6375   21.5197 C   0  0  0  0  0  0
  -18.1935  -26.7909   22.1607 C   0  0  0  0  0  0
  -19.1533  -28.8850   23.2855 C   0  0  0  0  0  0
  -18.9454  -30.1454   23.8886 C   0  0  0  0  0  0
  -17.6461  -30.6602   24.0560 C   0  0  0  0  0  0
  -25.9044  -34.9441   23.5090 C   0  0  0  0  0  0
  -16.5348  -29.9099   23.6343 C   0  0  0  0  0  0
  -16.7271  -28.6502   23.0367 C   0  0  0  0  0  0
  -26.4522  -31.6579   25.0695 C   0  0  0  0  0  0
  -25.3773  -31.3725   26.1433 C   0  0  0  0  0  0
  -27.0383  -30.3006   24.6175 C   0  0  0  0  0  0
  -27.6085  -32.4325   25.7470 C   0  0  0  0  0  0
  -27.5574  -37.1782   24.8468 C   0  0  0  0  0  0
  -21.4199  -29.3047   22.3663 N   0  0  0  0  0  0
  -26.4294  -37.3770   23.9402 N   0  0  0  0  0  0
  -24.6928  -31.0523   22.0955 N   0  0  0  0  0  0
  -23.4171  -28.8150   23.3008 O   0  0  0  0  0  0
  -28.2916  -26.3564   20.2732 O   0  0  0  0  0  0
  -26.5617  -34.8910   22.4662 O   0  0  0  0  0  0
  -23.5444  -32.1368   23.7296 O   0  0  0  0  0  0
  -29.2881  -19.7585   20.9338 C   0  0  0  0  0  0
  -27.0161  -18.5999   20.8128 C   0  0  0  0  0  0
  -26.8555  -18.6102   19.2702 C   0  0  0  0  0  0
  -28.8215  -17.0221   19.0554 C   0  0  0  0  0  0
  -28.5025  -18.3836   21.2459 C   0  0  1  0  0  0
  -28.8889  -16.9139   20.5890 C   0  0  2  0  0  0
  -28.2419  -25.1401   22.4070 C   0  0  0  0  0  0
  -28.7371  -23.6703   20.2624 C   0  0  0  0  0  0
  -29.3388  -22.4084   21.1111 C   0  0  0  0  0  0
  -28.0380  -25.0028   20.8895 C   0  0  2  0  0  0
  -28.7071  -21.0115   21.1261 N   0  0  0  0  0  0
  -29.8004  -15.8058   21.1738 N   0  0  0  0  0  0
  -27.4550  -17.4196   18.6210 N   0  3  0  0  0  0
  -30.4444  -19.6748   20.5217 O   0  0  0  0  0  0
  -31.4619  -12.6768   19.1889 H   0  0  0  0  0  0
  -30.4332  -11.5073   19.9508 H   0  0  0  0  0  0
  -29.8040  -11.7821   17.5359 H   0  0  0  0  0  0
  -29.6331  -13.5042   17.7481 H   0  0  0  0  0  0
  -27.8646  -11.3105   18.8727 H   0  0  0  0  0  0
  -27.3863  -12.6063   17.8094 H   0  0  0  0  0  0
  -27.6566  -14.2549   19.5383 H   0  0  0  0  0  0
  -28.7209  -12.0830   21.3989 H   0  0  0  0  0  0
  -28.3766  -13.7281   21.8752 H   0  0  0  0  0  0
  -25.2629   -9.5669   22.4833 H   0  0  0  0  0  0
  -23.9974   -7.4601   22.7491 H   0  0  0  0  0  0
  -21.0775   -8.8728   19.8944 H   0  0  0  0  0  0
  -22.3609  -10.9636   19.6256 H   0  0  0  0  0  0
  -21.1976   -7.6106   23.9701 H   0  0  0  0  0  0
  -21.1478   -6.0462   25.9067 H   0  0  0  0  0  0
  -22.0575   -2.7585   23.2858 H   0  0  0  0  0  0
  -22.3920  -12.0152   22.5053 H   0  0  0  0  0  0
  -21.0922  -13.1386   22.2567 H   0  0  0  0  0  0
  -24.5176  -15.6445   20.4762 H   0  0  0  0  0  0
  -25.6154  -15.2101   19.3481 H   0  0  0  0  0  0
  -26.7188  -32.5443   23.1038 H   0  0  0  0  0  0
  -25.0133  -33.9706   25.0457 H   0  0  0  0  0  0
  -22.7217  -31.2944   21.3841 H   0  0  0  0  0  0
  -23.3752  -35.9595   23.3337 H   0  0  0  0  0  0
  -24.3576  -36.8865   22.2045 H   0  0  0  0  0  0
  -23.7234  -37.6470   23.6650 H   0  0  0  0  0  0
  -26.0994  -31.5313   20.6002 H   0  0  0  0  0  0
  -26.8477  -30.8325   22.0061 H   0  0  0  0  0  0
  -28.1093  -28.9314   21.2641 H   0  0  0  0  0  0
  -26.0062  -25.8832   19.0607 H   0  0  0  0  0  0
  -23.9948  -27.2839   19.0070 H   0  0  0  0  0  0
  -23.7660  -30.5652   19.3887 H   0  0  0  0  0  0
  -22.7718  -29.2177   19.8608 H   0  0  0  0  0  0
  -25.1307  -36.1911   25.0808 H   0  0  0  0  0  0
  -20.9985  -28.3274   24.1371 H   0  0  0  0  0  0
  -20.5661  -26.2304   23.3599 H   0  0  0  0  0  0
  -21.6652  -26.7422   22.1220 H   0  0  0  0  0  0
  -19.6926  -25.6284   21.1229 H   0  0  0  0  0  0
  -19.6710  -27.3174   20.6709 H   0  0  0  0  0  0
  -17.4217  -26.6666   21.4003 H   0  0  0  0  0  0
  -18.0327  -26.0047   22.8994 H   0  0  0  0  0  0
  -19.7962  -30.7232   24.2254 H   0  0  0  0  0  0
  -17.5048  -31.6286   24.5151 H   0  0  0  0  0  0
  -15.5351  -30.2979   23.7689 H   0  0  0  0  0  0
  -15.8671  -28.0791   22.7109 H   0  0  0  0  0  0
  -24.5946  -30.7065   25.7779 H   0  0  0  0  0  0
  -24.8956  -32.2886   26.4847 H   0  0  0  0  0  0
  -25.8103  -30.8919   27.0210 H   0  0  0  0  0  0
  -26.2959  -29.6706   24.1257 H   0  0  0  0  0  0
  -27.4148  -29.7305   25.4673 H   0  0  0  0  0  0
  -27.8792  -30.4286   23.9362 H   0  0  0  0  0  0
  -27.2710  -33.3651   26.1990 H   0  0  0  0  0  0
  -28.3910  -32.6836   25.0308 H   0  0  0  0  0  0
  -28.0717  -31.8483   26.5421 H   0  0  0  0  0  0
  -28.2608  -38.0068   24.7525 H   0  0  0  0  0  0
  -28.1055  -36.2599   24.6292 H   0  0  0  0  0  0
  -27.2292  -37.1444   25.8875 H   0  0  0  0  0  0
  -20.9370  -29.8733   21.6849 H   0  0  0  0  0  0
  -26.0169  -38.2840   24.1435 H   0  0  0  0  0  0
  -26.3808  -17.8209   21.2407 H   0  0  0  0  0  0
  -26.5936  -19.5207   21.2182 H   0  0  0  0  0  0
  -27.2717  -19.5150   18.8305 H   0  0  0  0  0  0
  -25.7907  -18.6322   19.0147 H   0  0  0  0  0  0
  -29.0606  -16.0765   18.5705 H   0  0  0  0  0  0
  -29.5437  -17.7588   18.7100 H   0  0  0  0  0  0
  -28.4984  -18.2793   22.3322 H   0  0  0  0  0  0
  -27.9890  -16.3372   20.8256 H   0  0  0  0  0  0
  -28.0283  -24.2033   22.9234 H   0  0  0  0  0  0
  -27.5576  -25.8795   22.8247 H   0  0  0  0  0  0
  -29.2537  -25.4487   22.6734 H   0  0  0  0  0  0
  -28.0763  -23.2747   19.4898 H   0  0  0  0  0  0
  -29.5912  -24.0595   19.7003 H   0  0  0  0  0  0
  -29.5345  -22.7073   22.1396 H   0  0  0  0  0  0
  -30.3449  -22.2585   20.7103 H   0  0  0  0  0  0
  -26.9712  -24.7944   20.7956 H   0  0  0  0  0  0
  -27.7736  -20.9813   21.5242 H   0  0  0  0  0  0
  -29.3763  -15.4511   22.0191 H   0  0  0  0  0  0
  -27.4516  -17.5526   17.6221 H   0  0  0  0  0  0
  -26.8346  -16.6543   18.8233 H   0  0  0  0  0  0
  1 25  1  0  0  0
  1 30  2  0  0  0
  1 82  1  0  0  0
  2  3  1  0  0  0
  2 25  1  0  0  0
  2 85  1  0  0  0
  2 86  1  0  0  0
  3  4  1  0  0  0
  3 87  1  0  0  0
  3 88  1  0  0  0
  4  5  1  0  0  0
  4 89  1  0  0  0
  4 90  1  0  0  0
  5  6  1  0  0  0
  5 26  1  0  0  0
  5 91  1  0  0  0
  6 25  1  0  0  0
  6 92  1  0  0  0
  6 93  1  0  0  0
  7  8  2  0  0  0
  7 26  1  0  0  0
  7 29  1  0  0  0
  8  9  1  0  0  0
  8 22  1  0  0  0
  9 10  1  0  0  0
  9 27  2  0  0  0
 10 11  2  0  0  0
 10 15  1  0  0  0
 11 12  1  0  0  0
 11 94  1  0  0  0
 12 13  2  0  0  0
 12 95  1  0  0  0
 13 14  1  0  0  0
 13 31  1  0  0  0
 14 15  2  0  0  0
 14 96  1  0  0  0
 15 97  1  0  0  0
 16 17  2  0  0  0
 16 21  1  0  0  0
 16 31  1  0  0  0
 17 18  1  0  0  0
 17 98  1  0  0  0
 18 19  2  0  0  0
 18 99  1  0  0  0
 19 20  1  0  0  0
 19 24  1  0  0  0
 20 21  2  0  0  0
 20100  1  0  0  0
 21 23  1  0  0  0
 22 28  1  0  0  0
 22 32  2  0  0  0
 26 27  1  0  0  0
 28101  1  0  0  0
 28102  1  0  0  0
 29103  1  0  0  0
 29104  1  0  0  0
 33 34  1  0  0  0
 33 66  1  0  0  0
 33 70  2  0  0  0
 34 36  1  0  0  0
 34 59  1  0  0  0
 34105  1  0  0  0
 35 44  2  0  0  0
 35 45  1  0  0  0
 35 68  1  0  0  0
 36 56  1  0  0  0
 36106  1  0  0  0
 37 39  1  0  0  0
 37 47  1  0  0  0
 37 66  1  0  0  0
 37107  1  0  0  0
 38 43  2  0  0  0
 38 46  1  0  0  0
 38 47  1  0  0  0
 39 64  1  0  0  0
 39 67  2  0  0  0
 40 52  1  0  0  0
 40 53  2  0  0  0
 40 58  1  0  0  0
 41108  1  0  0  0
 41109  1  0  0  0
 41110  1  0  0  0
 41 48  1  0  0  0
 42 43  1  0  0  0
 42 66  1  0  0  0
 42111  1  0  0  0
 42112  1  0  0  0
 43 44  1  0  0  0
 44113  1  0  0  0
 45 46  2  0  0  0
 45114  1  0  0  0
 46115  1  0  0  0
 47116  1  0  0  0
 47117  1  0  0  0
 48 56  1  0  0  0
 48 65  1  0  0  0
 48118  1  0  0  0
 49 50  1  0  0  0
 49 53  1  0  0  0
 49 64  1  0  0  0
 49119  1  0  0  0
 50 51  1  0  0  0
 50120  1  0  0  0
 50121  1  0  0  0
 51 52  1  0  0  0
 51122  1  0  0  0
 51123  1  0  0  0
 52124  1  0  0  0
 52125  1  0  0  0
 53 54  1  0  0  0
 54 55  2  0  0  0
 54126  1  0  0  0
 55 57  1  0  0  0
 55127  1  0  0  0
 56 69  2  0  0  0
 57 58  2  0  0  0
 57128  1  0  0  0
 58129  1  0  0  0
 59 60  1  0  0  0
 59 61  1  0  0  0
 59 62  1  0  0  0
 60130  1  0  0  0
 60131  1  0  0  0
 60132  1  0  0  0
 61133  1  0  0  0
 61134  1  0  0  0
 61135  1  0  0  0
 62136  1  0  0  0
 62137  1  0  0  0
 62138  1  0  0  0
 63 65  1  0  0  0
 63139  1  0  0  0
 63140  1  0  0  0
 63141  1  0  0  0
 64142  1  0  0  0
 65143  1  0  0  0
 68 80  1  0  0  0
 71 81  1  0  0  0
 71 84  2  0  0  0
 71 75  1  0  0  0
 72 73  1  0  0  0
 72 75  1  0  0  0
 72144  1  0  0  0
 72145  1  0  0  0
 73 83  1  0  0  0
 73146  1  0  0  0
 73147  1  0  0  0
 74 76  1  0  0  0
 74 83  1  0  0  0
 74148  1  0  0  0
 74149  1  0  0  0
 75 76  1  0  0  0
 75150  1  0  0  0
 76 82  1  0  0  0
 76151  1  0  0  0
 77152  1  0  0  0
 77153  1  0  0  0
 77154  1  0  0  0
 77 80  1  0  0  0
 78 79  1  0  0  0
 78 80  1  0  0  0
 78155  1  0  0  0
 78156  1  0  0  0
 79 81  1  0  0  0
 79157  1  0  0  0
 79158  1  0  0  0
 80159  1  0  0  0
 81160  1  0  0  0
 82161  1  0  0  0
 83162  1  0  0  0
 83163  1  0  0  0
M  CHG  1  83   1
M  ISO  4   1 100  68 101  80 101  82 100
M  END
> <chiral flag>
0

> <version>
0

> <s_m_source_file>
/data/baiqing/PycharmProjects/Reinvent-master-3.2/result/LINK_invent/BTK/process_docking_weight1_custom_sum_contain_oxygen_bond_distance_aromatic_linkinvent_7_9_3/rearranged_h_0119.sdf

> <i_m_source_file_index>
88

> <r_mmod_Potential_Energy-OPLS-2005>
101.821479797363

> <r_mmod_Stretch_Energy-OPLS-2005>
149.728057861328

> <r_mmod_Bend_Energy-OPLS-2005>
252.570114135742

> <r_mmod_Torsional_Energy-OPLS-2005>
344.668182373047

> <r_mmod_Improper_Torsional_Energy-OPLS-2005>
13.6772794723511

> <r_mmod_Van_der_Waal_Energy-OPLS-2005>
117.967918395996

> <r_mmod_Electrostatic_Energy-OPLS-2005>
-367.991882324219

> <r_mmod_Solvation_Energy-OPLS-2005>
-511.359222412109

> <b_mmod_Minimization_Converged-OPLS-2005>
0

> <r_mmod_RMS_Derivative-OPLS-2005>
7.59653520584106

$$$$
88
                    3D
 Structure written by MMmdl.
183191  0  0  1  0            999 V2000
  -30.8405  -14.3670   20.7395 C   0  0  0  0  0  0
  -30.4272  -12.3103   19.4306 C   0  0  0  0  0  0
  -29.5148  -12.5519   18.2114 C   0  0  0  0  0  0
  -28.0311  -12.4023   18.5844 C   0  0  0  0  0  0
  -27.6689  -13.2067   19.8542 C   0  0  2  0  0  0
  -28.6955  -12.9871   20.9809 C   0  0  0  0  0  0
  -25.2660  -13.8114   20.5649 C   0  0  0  0  0  0
  -24.1922  -13.0425   20.9174 C   0  0  0  0  0  0
  -24.6456  -11.6857   20.8665 C   0  0  0  0  0  0
  -23.9082  -10.4287   21.0326 C   0  0  0  0  0  0
  -24.3667   -9.4195   21.9113 C   0  0  0  0  0  0
  -23.6331   -8.2221   22.0707 C   0  0  0  0  0  0
  -22.4276   -8.0276   21.3533 C   0  0  0  0  0  0
  -21.9825   -9.0324   20.4741 C   0  0  0  0  0  0
  -22.7169  -10.2192   20.3074 C   0  0  0  0  0  0
  -21.6879   -6.0762   22.5253 C   0  0  0  0  0  0
  -21.4030   -6.5672   23.8194 C   0  0  0  0  0  0
  -21.3658   -5.6825   24.9161 C   0  0  0  0  0  0
  -21.6031   -4.3075   24.7233 C   0  0  0  0  0  0
  -21.8842   -3.8182   23.4364 C   0  0  0  0  0  0
  -21.9199   -4.6983   22.3398 C   0  0  0  0  0  0
  -22.7944  -13.5219   21.1841 C   0  0  0  0  0  0
  -22.1701   -4.2159   21.0992 F   0  0  0  0  0  0
  -21.5557   -3.4581   25.7767 F   0  0  0  0  0  0
  -30.0635  -13.2626   20.4980 N   0  0  0  0  0  0
  -26.3087  -12.9329   20.3189 N   0  0  0  0  0  0
  -25.9385  -11.6492   20.5697 N   0  0  0  0  0  0
  -22.0576  -12.8178   22.0319 N   0  0  0  0  0  0
  -25.4418  -15.1850   20.4070 N   0  0  0  0  0  0
  -31.7687  -14.6653   19.9832 O   0  0  0  0  0  0
  -21.6649   -6.8881   21.4214 O   0  0  0  0  0  0
  -22.3618  -14.5582   20.6765 O   0  0  0  0  0  0
  -24.6185  -31.8669   23.2105 C   0  0  0  0  0  0
  -25.9103  -32.4802   23.8372 C   0  0  1  0  0  0
  -27.1865  -27.3809   20.1181 C   0  0  0  0  0  0
  -25.5944  -33.8602   24.2292 N   0  0  0  0  0  0
  -23.4048  -30.4974   21.5527 C   0  0  2  0  0  0
  -24.8446  -28.9762   20.1021 C   0  0  0  0  0  0
  -22.7440  -29.4633   22.4944 C   0  0  0  0  0  0
  -18.0280  -28.1387   22.8506 C   0  0  0  0  0  0
  -24.1501  -36.7309   23.2627 C   0  0  0  0  0  0
  -25.9405  -30.8198   21.3720 C   0  0  0  0  0  0
  -26.0064  -29.4512   20.7210 C   0  0  0  0  0  0
  -27.1807  -28.6594   20.7360 C   0  0  0  0  0  0
  -26.0180  -26.9752   19.4247 C   0  0  0  0  0  0
  -24.8486  -27.7418   19.4440 C   0  0  0  0  0  0
  -23.6135  -29.8489   20.1610 C   0  0  0  0  0  0
  -25.4125  -36.3069   24.0315 C   0  0  1  0  0  0
  -20.5873  -28.3658   23.1328 C   0  0  2  0  0  0
  -20.6776  -26.9385   22.5433 C   0  0  0  0  0  0
  -19.5752  -26.6385   21.5238 C   0  0  0  0  0  0
  -18.1922  -26.7934   22.1636 C   0  0  0  0  0  0
  -19.1530  -28.8846   23.2915 C   0  0  0  0  0  0
  -18.9446  -30.1456   23.8923 C   0  0  0  0  0  0
  -17.6442  -30.6591   24.0564 C   0  0  0  0  0  0
  -25.9063  -34.9447   23.5082 C   0  0  0  0  0  0
  -16.5333  -29.9090   23.6323 C   0  0  0  0  0  0
  -16.7264  -28.6507   23.0343 C   0  0  0  0  0  0
  -26.4502  -31.6586   25.0709 C   0  0  0  0  0  0
  -25.3761  -31.3712   26.1445 C   0  0  0  0  0  0
  -27.0319  -30.3017   24.6104 C   0  0  0  0  0  0
  -27.6053  -32.4299   25.7495 C   0  0  0  0  0  0
  -27.5583  -37.1810   24.8464 C   0  0  0  0  0  0
  -21.4154  -29.3008   22.3728 N   0  0  0  0  0  0
  -26.4302  -37.3772   23.9393 N   0  0  0  0  0  0
  -24.6727  -31.0779   22.1009 N   0  0  0  0  0  0
  -23.4222  -28.8126   23.2937 O   0  0  0  0  0  0
  -28.2903  -26.5476   20.2203 O   0  0  0  0  0  0
  -26.5604  -34.8905   22.4635 O   0  0  0  0  0  0
  -23.5370  -32.1390   23.7503 O   0  0  0  0  0  0
  -31.1928  -16.5378   21.8532 C   0  0  0  0  0  0
  -30.0611  -14.7825   23.1167 C   0  0  0  0  0  0
  -30.6744  -17.3889   23.0399 C   0  0  0  0  0  0
  -28.8571  -15.7095   23.5040 C   0  0  1  0  0  0
  -28.8618  -14.1549   25.6499 C   0  0  0  0  0  0
  -27.8194  -16.3968   25.8822 C   0  0  0  0  0  0
  -27.7020  -18.2999   20.9210 C   0  0  0  0  0  0
  -28.7845  -19.1915   24.6204 C   0  0  0  0  0  0
  -30.1137  -24.0665   21.1361 C   0  0  0  0  0  0
  -27.5481  -20.5355   22.1405 C   0  0  0  0  0  0
  -28.4511  -21.8153   22.1833 C   0  0  0  0  0  0
  -28.0341  -25.1109   20.1459 C   0  0  0  0  0  0
  -28.1745  -15.3053   24.8688 C   0  0  0  0  0  0
  -28.2937  -19.1636   22.0600 C   0  0  1  0  0  0
  -28.3503  -18.3315   23.3919 C   0  0  1  0  0  0
  -28.6017  -24.2501   21.3112 C   0  0  2  0  0  0
  -30.5793  -15.1822   21.8024 N   0  0  0  0  0  0
  -29.2264  -17.1403   23.1796 N   0  3  1  0  0  0
  -27.8731  -22.9363   21.3869 N   0  3  0  0  0  0
  -31.4791  -12.3773   19.1458 H   0  0  0  0  0  0
  -30.3208  -11.2853   19.7958 H   0  0  0  0  0  0
  -29.7770  -11.8584   17.4116 H   0  0  0  0  0  0
  -29.6919  -13.5507   17.8151 H   0  0  0  0  0  0
  -27.8234  -11.3406   18.7309 H   0  0  0  0  0  0
  -27.4081  -12.7306   17.7533 H   0  0  0  0  0  0
  -27.7259  -14.2604   19.5867 H   0  0  0  0  0  0
  -28.6581  -11.9691   21.3766 H   0  0  0  0  0  0
  -28.3562  -13.6287   21.7797 H   0  0  0  0  0  0
  -25.2867   -9.5632   22.4645 H   0  0  0  0  0  0
  -24.0119   -7.4547   22.7309 H   0  0  0  0  0  0
  -21.0719   -8.8743   19.9114 H   0  0  0  0  0  0
  -22.3475  -10.9723   19.6234 H   0  0  0  0  0  0
  -21.2038   -7.6187   23.9665 H   0  0  0  0  0  0
  -21.1461   -6.0607   25.9044 H   0  0  0  0  0  0
  -22.0632   -2.7662   23.2858 H   0  0  0  0  0  0
  -22.4134  -11.9772   22.4675 H   0  0  0  0  0  0
  -21.1198  -13.1168   22.2464 H   0  0  0  0  0  0
  -26.2706  -15.6179   20.0178 H   0  0  0  0  0  0
  -24.6508  -15.8198   20.4724 H   0  0  0  0  0  0
  -26.7168  -32.5483   23.1113 H   0  0  0  0  0  0
  -25.0090  -33.9762   25.0432 H   0  0  0  0  0  0
  -22.6913  -31.3140   21.4206 H   0  0  0  0  0  0
  -23.3730  -35.9683   23.3305 H   0  0  0  0  0  0
  -24.3569  -36.8918   22.2035 H   0  0  0  0  0  0
  -23.7323  -37.6545   23.6644 H   0  0  0  0  0  0
  -26.0643  -31.5857   20.6017 H   0  0  0  0  0  0
  -26.8269  -30.8681   21.9956 H   0  0  0  0  0  0
  -28.0623  -29.0038   21.2577 H   0  0  0  0  0  0
  -25.9637  -26.0549   18.8629 H   0  0  0  0  0  0
  -23.9642  -27.3941   18.9268 H   0  0  0  0  0  0
  -23.7211  -30.6287   19.4057 H   0  0  0  0  0  0
  -22.7383  -29.2727   19.8537 H   0  0  0  0  0  0
  -25.1309  -36.1891   25.0814 H   0  0  0  0  0  0
  -20.9973  -28.3215   24.1449 H   0  0  0  0  0  0
  -20.5707  -26.2227   23.3605 H   0  0  0  0  0  0
  -21.6630  -26.7443   22.1183 H   0  0  0  0  0  0
  -19.6886  -25.6307   21.1239 H   0  0  0  0  0  0
  -19.6699  -27.3216   20.6792 H   0  0  0  0  0  0
  -17.4180  -26.6692   21.4034 H   0  0  0  0  0  0
  -18.0303  -26.0087   22.9044 H   0  0  0  0  0  0
  -19.7915  -30.7283   24.2282 H   0  0  0  0  0  0
  -17.4987  -31.6269   24.5156 H   0  0  0  0  0  0
  -15.5330  -30.2983   23.7667 H   0  0  0  0  0  0
  -15.8660  -28.0850   22.7027 H   0  0  0  0  0  0
  -24.5936  -30.7043   25.7800 H   0  0  0  0  0  0
  -24.8946  -32.2870   26.4871 H   0  0  0  0  0  0
  -25.8115  -30.8901   27.0212 H   0  0  0  0  0  0
  -26.2852  -29.6781   24.1156 H   0  0  0  0  0  0
  -27.4065  -29.7245   25.4571 H   0  0  0  0  0  0
  -27.8710  -30.4299   23.9262 H   0  0  0  0  0  0
  -27.2650  -33.3582   26.2092 H   0  0  0  0  0  0
  -28.3881  -32.6888   25.0357 H   0  0  0  0  0  0
  -28.0698  -31.8407   26.5405 H   0  0  0  0  0  0
  -28.2593  -38.0109   24.7464 H   0  0  0  0  0  0
  -28.1074  -36.2620   24.6328 H   0  0  0  0  0  0
  -27.2271  -37.1517   25.8864 H   0  0  0  0  0  0
  -20.9307  -29.8774   21.7000 H   0  0  0  0  0  0
  -26.0151  -38.2840   24.1400 H   0  0  0  0  0  0
  -32.2843  -16.4865   21.8811 H   0  0  0  0  0  0
  -30.9266  -17.0486   20.9193 H   0  0  0  0  0  0
  -29.8515  -13.7176   23.1830 H   0  0  0  0  0  0
  -30.8818  -14.8983   23.8339 H   0  0  0  0  0  0
  -30.8921  -18.4407   22.8572 H   0  0  0  0  0  0
  -31.1684  -17.1486   23.9813 H   0  0  0  0  0  0
  -28.0733  -15.5325   22.7647 H   0  0  0  0  0  0
  -28.8615  -13.2254   25.0830 H   0  0  0  0  0  0
  -28.3136  -13.9248   26.5633 H   0  0  0  0  0  0
  -29.8925  -14.3896   25.9313 H   0  0  0  0  0  0
  -27.1351  -17.1364   25.4841 H   0  0  0  0  0  0
  -28.7147  -16.8669   26.2736 H   0  0  0  0  0  0
  -27.2991  -15.9584   26.7356 H   0  0  0  0  0  0
  -28.3105  -17.4284   20.6932 H   0  0  0  0  0  0
  -27.6418  -18.8553   19.9871 H   0  0  0  0  0  0
  -26.7034  -17.9333   21.1608 H   0  0  0  0  0  0
  -27.9035  -19.5426   25.1686 H   0  0  0  0  0  0
  -29.3641  -20.0648   24.3330 H   0  0  0  0  0  0
  -29.4214  -18.6597   25.3308 H   0  0  0  0  0  0
  -30.5862  -25.0331   20.9737 H   0  0  0  0  0  0
  -30.3481  -23.4363   20.2804 H   0  0  0  0  0  0
  -30.5662  -23.6207   22.0207 H   0  0  0  0  0  0
  -26.8805  -20.6059   21.2829 H   0  0  0  0  0  0
  -26.8655  -20.5354   22.9901 H   0  0  0  0  0  0
  -29.4373  -21.5787   21.7814 H   0  0  0  0  0  0
  -28.5972  -22.1356   23.2167 H   0  0  0  0  0  0
  -26.9749  -24.8690   20.1494 H   0  0  0  0  0  0
  -28.4108  -24.7445   19.1862 H   0  0  0  0  0  0
  -27.2096  -14.8880   24.5663 H   0  0  0  0  0  0
  -29.3008  -19.3895   21.7236 H   0  0  0  0  0  0
  -27.3329  -17.9712   23.5422 H   0  0  0  0  0  0
  -28.4115  -24.7899   22.2413 H   0  0  0  0  0  0
  -29.0270  -17.0697   22.1942 H   0  0  0  0  0  0
  -26.9491  -23.1129   21.7538 H   0  0  0  0  0  0
  -27.7418  -22.6026   20.4476 H   0  0  0  0  0  0
  1 25  1  0  0  0
  1 30  2  0  0  0
  1 87  1  0  0  0
  2  3  1  0  0  0
  2 25  1  0  0  0
  2 90  1  0  0  0
  2 91  1  0  0  0
  3  4  1  0  0  0
  3 92  1  0  0  0
  3 93  1  0  0  0
  4  5  1  0  0  0
  4 94  1  0  0  0
  4 95  1  0  0  0
  5  6  1  0  0  0
  5 26  1  0  0  0
  5 96  1  0  0  0
  6 25  1  0  0  0
  6 97  1  0  0  0
  6 98  1  0  0  0
  7  8  2  0  0  0
  7 26  1  0  0  0
  7 29  1  0  0  0
  8  9  1  0  0  0
  8 22  1  0  0  0
  9 10  1  0  0  0
  9 27  2  0  0  0
 10 11  2  0  0  0
 10 15  1  0  0  0
 11 12  1  0  0  0
 11 99  1  0  0  0
 12 13  2  0  0  0
 12100  1  0  0  0
 13 14  1  0  0  0
 13 31  1  0  0  0
 14 15  2  0  0  0
 14101  1  0  0  0
 15102  1  0  0  0
 16 17  2  0  0  0
 16 21  1  0  0  0
 16 31  1  0  0  0
 17 18  1  0  0  0
 17103  1  0  0  0
 18 19  2  0  0  0
 18104  1  0  0  0
 19 20  1  0  0  0
 19 24  1  0  0  0
 20 21  2  0  0  0
 20105  1  0  0  0
 21 23  1  0  0  0
 22 28  1  0  0  0
 22 32  2  0  0  0
 26 27  1  0  0  0
 28106  1  0  0  0
 28107  1  0  0  0
 29108  1  0  0  0
 29109  1  0  0  0
 33 34  1  0  0  0
 33 66  1  0  0  0
 33 70  2  0  0  0
 34 36  1  0  0  0
 34 59  1  0  0  0
 34110  1  0  0  0
 35 44  2  0  0  0
 35 45  1  0  0  0
 35 68  1  0  0  0
 36 56  1  0  0  0
 36111  1  0  0  0
 37 39  1  0  0  0
 37 47  1  0  0  0
 37 66  1  0  0  0
 37112  1  0  0  0
 38 43  2  0  0  0
 38 46  1  0  0  0
 38 47  1  0  0  0
 39 64  1  0  0  0
 39 67  2  0  0  0
 40 52  1  0  0  0
 40 53  2  0  0  0
 40 58  1  0  0  0
 41113  1  0  0  0
 41114  1  0  0  0
 41115  1  0  0  0
 41 48  1  0  0  0
 42 43  1  0  0  0
 42 66  1  0  0  0
 42116  1  0  0  0
 42117  1  0  0  0
 43 44  1  0  0  0
 44118  1  0  0  0
 45 46  2  0  0  0
 45119  1  0  0  0
 46120  1  0  0  0
 47121  1  0  0  0
 47122  1  0  0  0
 48 56  1  0  0  0
 48 65  1  0  0  0
 48123  1  0  0  0
 49 50  1  0  0  0
 49 53  1  0  0  0
 49 64  1  0  0  0
 49124  1  0  0  0
 50 51  1  0  0  0
 50125  1  0  0  0
 50126  1  0  0  0
 51 52  1  0  0  0
 51127  1  0  0  0
 51128  1  0  0  0
 52129  1  0  0  0
 52130  1  0  0  0
 53 54  1  0  0  0
 54 55  2  0  0  0
 54131  1  0  0  0
 55 57  1  0  0  0
 55132  1  0  0  0
 56 69  2  0  0  0
 57 58  2  0  0  0
 57133  1  0  0  0
 58134  1  0  0  0
 59 60  1  0  0  0
 59 61  1  0  0  0
 59 62  1  0  0  0
 60135  1  0  0  0
 60136  1  0  0  0
 60137  1  0  0  0
 61138  1  0  0  0
 61139  1  0  0  0
 61140  1  0  0  0
 62141  1  0  0  0
 62142  1  0  0  0
 62143  1  0  0  0
 63 65  1  0  0  0
 63144  1  0  0  0
 63145  1  0  0  0
 63146  1  0  0  0
 64147  1  0  0  0
 65148  1  0  0  0
 68 82  1  0  0  0
 71 73  1  0  0  0
 71 87  1  0  0  0
 71149  1  0  0  0
 71150  1  0  0  0
 72 87  1  0  0  0
 72151  1  0  0  0
 72152  1  0  0  0
 72 74  1  0  0  0
 73153  1  0  0  0
 73154  1  0  0  0
 73 88  1  0  0  0
 74 83  1  0  0  0
 74 88  1  0  0  0
 74155  1  0  0  0
 75156  1  0  0  0
 75157  1  0  0  0
 75158  1  0  0  0
 75 83  1  0  0  0
 76 83  1  0  0  0
 76159  1  0  0  0
 76160  1  0  0  0
 76161  1  0  0  0
 77162  1  0  0  0
 77163  1  0  0  0
 77164  1  0  0  0
 77 84  1  0  0  0
 78165  1  0  0  0
 78166  1  0  0  0
 78167  1  0  0  0
 78 85  1  0  0  0
 79168  1  0  0  0
 79169  1  0  0  0
 79170  1  0  0  0
 79 86  1  0  0  0
 80 81  1  0  0  0
 80 84  1  0  0  0
 80171  1  0  0  0
 80172  1  0  0  0
 81 89  1  0  0  0
 81173  1  0  0  0
 81174  1  0  0  0
 82 86  1  0  0  0
 82175  1  0  0  0
 82176  1  0  0  0
 83177  1  0  0  0
 84 85  1  0  0  0
 84178  1  0  0  0
 85 88  1  0  0  0
 85179  1  0  0  0
 86 89  1  0  0  0
 86180  1  0  0  0
 88181  1  0  0  0
 89182  1  0  0  0
 89183  1  0  0  0
M  CHG  2  88   1  89   1
M  ISO  4   1 100  68 101  82 101  87 100
M  END
> <chiral flag>
0

> <version>
0

> <s_m_source_file>
/data/baiqing/PycharmProjects/Reinvent-master-3.2/result/LINK_invent/BTK/process_docking_weight1_custom_sum_contain_oxygen_bond_distance_aromatic_linkinvent_7_9_3/rearranged_h_0119.sdf

> <i_m_source_file_index>
89

> <r_mmod_Potential_Energy-OPLS-2005>
214.866256713867

> <r_mmod_Stretch_Energy-OPLS-2005>
60.6744232177734

> <r_mmod_Bend_Energy-OPLS-2005>
207.201995849609

> <r_mmod_Torsional_Energy-OPLS-2005>
453.557067871094

> <r_mmod_Improper_Torsional_Energy-OPLS-2005>
3.16092848777771

> <r_mmod_Van_der_Waal_Energy-OPLS-2005>
179.821151733398

> <r_mmod_Electrostatic_Energy-OPLS-2005>
145.207992553711

> <r_mmod_Solvation_Energy-OPLS-2005>
-859.400024414062

> <b_mmod_Minimization_Converged-OPLS-2005>
0

> <r_mmod_RMS_Derivative-OPLS-2005>
9.18366146087646

$$$$
89
                    3D
 Structure written by MMmdl.
155163  0  0  1  0            999 V2000
  -30.6625  -14.6139   20.4980 C   0  0  0  0  0  0
  -30.4238  -12.3769   19.4516 C   0  0  0  0  0  0
  -29.5020  -12.5009   18.2207 C   0  0  0  0  0  0
  -28.0257  -12.3450   18.6327 C   0  0  0  0  0  0
  -27.6498  -13.2209   19.8586 C   0  0  2  0  0  0
  -28.6947  -13.0944   20.9896 C   0  0  0  0  0  0
  -25.2552  -13.8178   20.5675 C   0  0  0  0  0  0
  -24.1829  -13.0438   20.9195 C   0  0  0  0  0  0
  -24.6399  -11.6909   20.8741 C   0  0  0  0  0  0
  -23.9073  -10.4289   21.0402 C   0  0  0  0  0  0
  -24.3627   -9.4207   21.9177 C   0  0  0  0  0  0
  -23.6301   -8.2247   22.0752 C   0  0  0  0  0  0
  -22.4284   -8.0281   21.3545 C   0  0  0  0  0  0
  -21.9917   -9.0253   20.4646 C   0  0  0  0  0  0
  -22.7246  -10.2132   20.3052 C   0  0  0  0  0  0
  -21.6855   -6.0738   22.5278 C   0  0  0  0  0  0
  -21.4014   -6.5643   23.8210 C   0  0  0  0  0  0
  -21.3660   -5.6797   24.9174 C   0  0  0  0  0  0
  -21.6048   -4.3060   24.7224 C   0  0  0  0  0  0
  -21.8822   -3.8151   23.4344 C   0  0  0  0  0  0
  -21.9193   -4.6967   22.3399 C   0  0  0  0  0  0
  -22.7852  -13.5228   21.1855 C   0  0  0  0  0  0
  -22.1662   -4.2153   21.0977 F   0  0  0  0  0  0
  -21.5627   -3.4540   25.7735 F   0  0  0  0  0  0
  -30.0092  -13.4141   20.4168 N   0  0  0  0  0  0
  -26.2977  -12.9368   20.3303 N   0  0  0  0  0  0
  -25.9330  -11.6520   20.5755 N   0  0  0  0  0  0
  -22.0498  -12.8221   22.0411 N   0  0  0  0  0  0
  -25.4260  -15.1899   20.4071 N   0  0  0  0  0  0
  -31.8395  -14.7098   20.1468 O   0  0  0  0  0  0
  -21.6648   -6.8879   21.4241 O   0  0  0  0  0  0
  -22.3536  -14.5531   20.6703 O   0  0  0  0  0  0
  -24.6241  -31.8609   23.2041 C   0  0  0  0  0  0
  -25.9096  -32.4787   23.8358 C   0  0  1  0  0  0
  -27.2203  -27.3380   20.1148 C   0  0  0  0  0  0
  -25.5913  -33.8585   24.2282 N   0  0  0  0  0  0
  -23.4157  -30.4862   21.5465 C   0  0  2  0  0  0
  -24.8603  -28.9452   20.1099 C   0  0  0  0  0  0
  -22.7461  -29.4635   22.4945 C   0  0  0  0  0  0
  -18.0280  -28.1384   22.8493 C   0  0  0  0  0  0
  -24.1489  -36.7302   23.2641 C   0  0  0  0  0  0
  -25.9548  -30.7985   21.3718 C   0  0  0  0  0  0
  -26.0279  -29.4277   20.7141 C   0  0  0  0  0  0
  -27.2114  -28.6355   20.7071 C   0  0  0  0  0  0
  -26.0307  -26.9043   19.4850 C   0  0  0  0  0  0
  -24.8623  -27.6878   19.4865 C   0  0  0  0  0  0
  -23.6276  -29.8225   20.1608 C   0  0  0  0  0  0
  -25.4114  -36.3088   24.0328 C   0  0  1  0  0  0
  -20.5881  -28.3692   23.1290 C   0  0  2  0  0  0
  -20.6775  -26.9419   22.5412 C   0  0  0  0  0  0
  -19.5749  -26.6386   21.5218 C   0  0  0  0  0  0
  -18.1928  -26.7929   22.1628 C   0  0  0  0  0  0
  -19.1533  -28.8855   23.2887 C   0  0  0  0  0  0
  -18.9457  -30.1455   23.8902 C   0  0  0  0  0  0
  -17.6458  -30.6588   24.0570 C   0  0  0  0  0  0
  -25.9046  -34.9459   23.5106 C   0  0  0  0  0  0
  -16.5350  -29.9087   23.6331 C   0  0  0  0  0  0
  -16.7268  -28.6504   23.0355 C   0  0  0  0  0  0
  -26.4488  -31.6595   25.0722 C   0  0  0  0  0  0
  -25.3732  -31.3724   26.1458 C   0  0  0  0  0  0
  -27.0328  -30.3024   24.6167 C   0  0  0  0  0  0
  -27.6043  -32.4333   25.7492 C   0  0  0  0  0  0
  -27.5580  -37.1808   24.8461 C   0  0  0  0  0  0
  -21.4175  -29.3047   22.3684 N   0  0  0  0  0  0
  -26.4293  -37.3782   23.9403 N   0  0  0  0  0  0
  -24.6837  -31.0641   22.0983 N   0  0  0  0  0  0
  -23.4192  -28.8172   23.3015 O   0  0  0  0  0  0
  -28.3444  -26.5052   20.1710 O   0  0  0  0  0  0
  -26.5612  -34.8922   22.4672 O   0  0  0  0  0  0
  -23.5410  -32.1395   23.7387 O   0  0  0  0  0  0
  -29.4821  -21.8701   19.2562 C   0  0  0  0  0  0
  -29.4768  -20.4501   19.2415 C   0  0  0  0  0  0
  -28.8936  -21.7547   21.5719 C   0  0  0  0  0  0
  -29.1818  -22.5691   20.4480 C   0  0  0  0  0  0
  -29.1792  -19.7162   20.4140 C   0  0  0  0  0  0
  -31.5275  -17.6121   20.1429 C   0  0  0  0  0  0
  -29.3102  -24.1289   20.5545 C   0  0  0  0  0  0
  -29.0276  -18.1508   20.3992 C   0  0  0  0  0  0
  -28.1391  -25.0501   20.0414 C   0  0  0  0  0  0
  -30.2203  -17.2051   20.8561 C   0  0  1  0  0  0
  -28.8904  -20.3880   21.5594 N   0  0  0  0  0  0
  -29.9030  -15.7184   20.7909 N   0  0  0  0  0  0
  -31.4679  -12.4780   19.1516 H   0  0  0  0  0  0
  -30.3369  -11.3860   19.8998 H   0  0  0  0  0  0
  -29.7645  -11.7497   17.4749 H   0  0  0  0  0  0
  -29.6529  -13.4709   17.7440 H   0  0  0  0  0  0
  -27.8608  -11.2921   18.8659 H   0  0  0  0  0  0
  -27.3720  -12.5738   17.7903 H   0  0  0  0  0  0
  -27.6636  -14.2538   19.5115 H   0  0  0  0  0  0
  -28.6999  -12.0834   21.3993 H   0  0  0  0  0  0
  -28.4482  -13.7545   21.8224 H   0  0  0  0  0  0
  -25.2767   -9.5690   22.4754 H   0  0  0  0  0  0
  -24.0009   -7.4643   22.7477 H   0  0  0  0  0  0
  -21.0842   -8.8775   19.8954 H   0  0  0  0  0  0
  -22.3695  -10.9676   19.6170 H   0  0  0  0  0  0
  -21.2008   -7.6150   23.9715 H   0  0  0  0  0  0
  -21.1477   -6.0524   25.9077 H   0  0  0  0  0  0
  -22.0600   -2.7612   23.2843 H   0  0  0  0  0  0
  -22.4112  -11.9877   22.4786 H   0  0  0  0  0  0
  -21.1122  -13.1252   22.2623 H   0  0  0  0  0  0
  -24.6566  -15.8430   20.5096 H   0  0  0  0  0  0
  -26.2690  -15.6252   20.0557 H   0  0  0  0  0  0
  -26.7165  -32.5459   23.1107 H   0  0  0  0  0  0
  -25.0065  -33.9739   25.0429 H   0  0  0  0  0  0
  -22.7090  -31.3067   21.4058 H   0  0  0  0  0  0
  -23.3744  -35.9640   23.3304 H   0  0  0  0  0  0
  -24.3588  -36.8922   22.2055 H   0  0  0  0  0  0
  -23.7248  -37.6508   23.6663 H   0  0  0  0  0  0
  -26.0837  -31.5633   20.6043 H   0  0  0  0  0  0
  -26.8367  -30.8465   21.9986 H   0  0  0  0  0  0
  -28.1064  -29.0020   21.1904 H   0  0  0  0  0  0
  -25.9757  -25.9451   18.9920 H   0  0  0  0  0  0
  -23.9676  -27.3137   19.0081 H   0  0  0  0  0  0
  -23.7416  -30.5988   19.4031 H   0  0  0  0  0  0
  -22.7484  -29.2494   19.8609 H   0  0  0  0  0  0
  -25.1295  -36.1950   25.0820 H   0  0  0  0  0  0
  -20.9975  -28.3268   24.1409 H   0  0  0  0  0  0
  -20.5692  -26.2301   23.3612 H   0  0  0  0  0  0
  -21.6645  -26.7459   22.1199 H   0  0  0  0  0  0
  -19.6916  -25.6296   21.1247 H   0  0  0  0  0  0
  -19.6685  -27.3199   20.6748 H   0  0  0  0  0  0
  -17.4205  -26.6682   21.4023 H   0  0  0  0  0  0
  -18.0324  -26.0063   22.9013 H   0  0  0  0  0  0
  -19.7933  -30.7270   24.2276 H   0  0  0  0  0  0
  -17.5013  -31.6272   24.5164 H   0  0  0  0  0  0
  -15.5352  -30.2995   23.7652 H   0  0  0  0  0  0
  -15.8666  -28.0823   22.7071 H   0  0  0  0  0  0
  -24.5898  -30.7080   25.7794 H   0  0  0  0  0  0
  -24.8928  -32.2883   26.4905 H   0  0  0  0  0  0
  -25.8067  -30.8889   27.0220 H   0  0  0  0  0  0
  -26.2891  -29.6781   24.1197 H   0  0  0  0  0  0
  -27.4033  -29.7280   25.4666 H   0  0  0  0  0  0
  -27.8760  -30.4308   23.9377 H   0  0  0  0  0  0
  -27.2640  -33.3623   26.2080 H   0  0  0  0  0  0
  -28.3849  -32.6917   25.0323 H   0  0  0  0  0  0
  -28.0720  -31.8455   26.5403 H   0  0  0  0  0  0
  -28.2602  -38.0103   24.7510 H   0  0  0  0  0  0
  -28.1075  -36.2633   24.6285 H   0  0  0  0  0  0
  -27.2298  -37.1457   25.8867 H   0  0  0  0  0  0
  -20.9349  -29.8774   21.6904 H   0  0  0  0  0  0
  -26.0176  -38.2860   24.1398 H   0  0  0  0  0  0
  -29.7345  -22.4156   18.3581 H   0  0  0  0  0  0
  -29.6942  -19.9267   18.3200 H   0  0  0  0  0  0
  -28.6834  -22.2108   22.5286 H   0  0  0  0  0  0
  -31.7171  -18.6815   20.2395 H   0  0  0  0  0  0
  -31.4944  -17.3802   19.0782 H   0  0  0  0  0  0
  -32.3965  -17.1176   20.5755 H   0  0  0  0  0  0
  -30.2211  -24.4156   20.0280 H   0  0  0  0  0  0
  -29.4989  -24.3730   21.6005 H   0  0  0  0  0  0
  -28.7522  -17.8739   19.3810 H   0  0  0  0  0  0
  -28.1486  -17.9106   20.9979 H   0  0  0  0  0  0
  -27.2393  -24.7638   20.5887 H   0  0  0  0  0  0
  -27.9576  -24.8208   18.9905 H   0  0  0  0  0  0
  -30.3785  -17.4146   21.9151 H   0  0  0  0  0  0
  -28.9491  -15.4867   21.0252 H   0  0  0  0  0  0
  1 25  1  0  0  0
  1 30  2  0  0  0
  1 82  1  0  0  0
  2  3  1  0  0  0
  2 25  1  0  0  0
  2 83  1  0  0  0
  2 84  1  0  0  0
  3  4  1  0  0  0
  3 85  1  0  0  0
  3 86  1  0  0  0
  4  5  1  0  0  0
  4 87  1  0  0  0
  4 88  1  0  0  0
  5  6  1  0  0  0
  5 26  1  0  0  0
  5 89  1  0  0  0
  6 25  1  0  0  0
  6 90  1  0  0  0
  6 91  1  0  0  0
  7  8  2  0  0  0
  7 26  1  0  0  0
  7 29  1  0  0  0
  8  9  1  0  0  0
  8 22  1  0  0  0
  9 10  1  0  0  0
  9 27  2  0  0  0
 10 11  2  0  0  0
 10 15  1  0  0  0
 11 12  1  0  0  0
 11 92  1  0  0  0
 12 13  2  0  0  0
 12 93  1  0  0  0
 13 14  1  0  0  0
 13 31  1  0  0  0
 14 15  2  0  0  0
 14 94  1  0  0  0
 15 95  1  0  0  0
 16 17  2  0  0  0
 16 21  1  0  0  0
 16 31  1  0  0  0
 17 18  1  0  0  0
 17 96  1  0  0  0
 18 19  2  0  0  0
 18 97  1  0  0  0
 19 20  1  0  0  0
 19 24  1  0  0  0
 20 21  2  0  0  0
 20 98  1  0  0  0
 21 23  1  0  0  0
 22 28  1  0  0  0
 22 32  2  0  0  0
 26 27  1  0  0  0
 28 99  1  0  0  0
 28100  1  0  0  0
 29101  1  0  0  0
 29102  1  0  0  0
 33 34  1  0  0  0
 33 66  1  0  0  0
 33 70  2  0  0  0
 34 36  1  0  0  0
 34 59  1  0  0  0
 34103  1  0  0  0
 35 44  2  0  0  0
 35 45  1  0  0  0
 35 68  1  0  0  0
 36 56  1  0  0  0
 36104  1  0  0  0
 37 39  1  0  0  0
 37 47  1  0  0  0
 37 66  1  0  0  0
 37105  1  0  0  0
 38 43  2  0  0  0
 38 46  1  0  0  0
 38 47  1  0  0  0
 39 64  1  0  0  0
 39 67  2  0  0  0
 40 52  1  0  0  0
 40 53  2  0  0  0
 40 58  1  0  0  0
 41106  1  0  0  0
 41107  1  0  0  0
 41108  1  0  0  0
 41 48  1  0  0  0
 42 43  1  0  0  0
 42 66  1  0  0  0
 42109  1  0  0  0
 42110  1  0  0  0
 43 44  1  0  0  0
 44111  1  0  0  0
 45 46  2  0  0  0
 45112  1  0  0  0
 46113  1  0  0  0
 47114  1  0  0  0
 47115  1  0  0  0
 48 56  1  0  0  0
 48 65  1  0  0  0
 48116  1  0  0  0
 49 50  1  0  0  0
 49 53  1  0  0  0
 49 64  1  0  0  0
 49117  1  0  0  0
 50 51  1  0  0  0
 50118  1  0  0  0
 50119  1  0  0  0
 51 52  1  0  0  0
 51120  1  0  0  0
 51121  1  0  0  0
 52122  1  0  0  0
 52123  1  0  0  0
 53 54  1  0  0  0
 54 55  2  0  0  0
 54124  1  0  0  0
 55 57  1  0  0  0
 55125  1  0  0  0
 56 69  2  0  0  0
 57 58  2  0  0  0
 57126  1  0  0  0
 58127  1  0  0  0
 59 60  1  0  0  0
 59 61  1  0  0  0
 59 62  1  0  0  0
 60128  1  0  0  0
 60129  1  0  0  0
 60130  1  0  0  0
 61131  1  0  0  0
 61132  1  0  0  0
 61133  1  0  0  0
 62134  1  0  0  0
 62135  1  0  0  0
 62136  1  0  0  0
 63 65  1  0  0  0
 63137  1  0  0  0
 63138  1  0  0  0
 63139  1  0  0  0
 64140  1  0  0  0
 65141  1  0  0  0
 68 79  1  0  0  0
 71 72  2  0  0  0
 71 74  1  0  0  0
 71142  1  0  0  0
 72 75  1  0  0  0
 72143  1  0  0  0
 73 74  2  0  0  0
 73 81  1  0  0  0
 73144  1  0  0  0
 74 77  1  0  0  0
 75 78  1  0  0  0
 75 81  2  0  0  0
 76145  1  0  0  0
 76146  1  0  0  0
 76147  1  0  0  0
 76 80  1  0  0  0
 77 79  1  0  0  0
 77148  1  0  0  0
 77149  1  0  0  0
 78 80  1  0  0  0
 78150  1  0  0  0
 78151  1  0  0  0
 79152  1  0  0  0
 79153  1  0  0  0
 80 82  1  0  0  0
 80154  1  0  0  0
 82155  1  0  0  0
M  ISO  4   1 100  68 101  79 101  82 100
M  END
> <chiral flag>
0

> <version>
0

> <s_m_source_file>
/data/baiqing/PycharmProjects/Reinvent-master-3.2/result/LINK_invent/BTK/process_docking_weight1_custom_sum_contain_oxygen_bond_distance_aromatic_linkinvent_7_9_3/rearranged_h_0119.sdf

> <i_m_source_file_index>
90

> <r_mmod_Potential_Energy-OPLS-2005>
-94.4132919311523

> <r_mmod_Stretch_Energy-OPLS-2005>
72.2380294799805

> <r_mmod_Bend_Energy-OPLS-2005>
128.506484985352

> <r_mmod_Torsional_Energy-OPLS-2005>
190.523834228516

> <r_mmod_Improper_Torsional_Energy-OPLS-2005>
5.14718580245972

> <r_mmod_Van_der_Waal_Energy-OPLS-2005>
147.816055297852

> <r_mmod_Electrostatic_Energy-OPLS-2005>
-458.714996337891

> <r_mmod_Solvation_Energy-OPLS-2005>
-222.253234863281

> <b_mmod_Minimization_Converged-OPLS-2005>
0

> <r_mmod_RMS_Derivative-OPLS-2005>
1.00903785228729

$$$$
90
                    3D
 Structure written by MMmdl.
158166  0  0  1  0            999 V2000
  -30.5999  -14.7566   20.4644 C   0  0  0  0  0  0
  -30.4349  -12.4670   19.4680 C   0  0  0  0  0  0
  -29.5090  -12.5063   18.2327 C   0  0  0  0  0  0
  -28.0362  -12.3261   18.6492 C   0  0  0  0  0  0
  -27.6397  -13.2300   19.8470 C   0  0  2  0  0  0
  -28.6845  -13.1707   20.9816 C   0  0  0  0  0  0
  -25.2503  -13.8196   20.5681 C   0  0  0  0  0  0
  -24.1798  -13.0442   20.9208 C   0  0  0  0  0  0
  -24.6390  -11.6920   20.8756 C   0  0  0  0  0  0
  -23.9071  -10.4292   21.0414 C   0  0  0  0  0  0
  -24.3617   -9.4202   21.9187 C   0  0  0  0  0  0
  -23.6287   -8.2240   22.0757 C   0  0  0  0  0  0
  -22.4270   -8.0277   21.3549 C   0  0  0  0  0  0
  -21.9908   -9.0253   20.4653 C   0  0  0  0  0  0
  -22.7242  -10.2129   20.3063 C   0  0  0  0  0  0
  -21.6850   -6.0728   22.5279 C   0  0  0  0  0  0
  -21.4013   -6.5635   23.8210 C   0  0  0  0  0  0
  -21.3660   -5.6788   24.9173 C   0  0  0  0  0  0
  -21.6043   -4.3052   24.7225 C   0  0  0  0  0  0
  -21.8819   -3.8143   23.4346 C   0  0  0  0  0  0
  -21.9192   -4.6957   22.3400 C   0  0  0  0  0  0
  -22.7822  -13.5225   21.1862 C   0  0  0  0  0  0
  -22.1664   -4.2143   21.0978 F   0  0  0  0  0  0
  -21.5632   -3.4535   25.7737 F   0  0  0  0  0  0
  -29.9807  -13.5290   20.3949 N   0  0  0  0  0  0
  -26.2925  -12.9397   20.3261 N   0  0  0  0  0  0
  -25.9318  -11.6542   20.5748 N   0  0  0  0  0  0
  -22.0467  -12.8222   22.0422 N   0  0  0  0  0  0
  -25.4186  -15.1923   20.4087 N   0  0  0  0  0  0
  -31.7951  -14.8559   20.1727 O   0  0  0  0  0  0
  -21.6640   -6.8871   21.4239 O   0  0  0  0  0  0
  -22.3506  -14.5524   20.6698 O   0  0  0  0  0  0
  -24.6308  -31.8539   23.1963 C   0  0  0  0  0  0
  -25.9136  -32.4746   23.8308 C   0  0  1  0  0  0
  -27.2206  -27.2557   20.1431 C   0  0  0  0  0  0
  -25.5930  -33.8550   24.2235 N   0  0  0  0  0  0
  -23.4280  -30.4732   21.5399 C   0  0  2  0  0  0
  -24.8746  -28.9089   20.1189 C   0  0  0  0  0  0
  -22.7490  -29.4593   22.4920 C   0  0  0  0  0  0
  -18.0291  -28.1387   22.8480 C   0  0  0  0  0  0
  -24.1490  -36.7282   23.2639 C   0  0  0  0  0  0
  -25.9722  -30.7657   21.3748 C   0  0  0  0  0  0
  -26.0451  -29.3836   20.7246 C   0  0  0  0  0  0
  -27.2229  -28.5708   20.7196 C   0  0  0  0  0  0
  -26.0313  -26.8427   19.5114 C   0  0  0  0  0  0
  -24.8725  -27.6468   19.5006 C   0  0  0  0  0  0
  -23.6472  -29.7992   20.1590 C   0  0  0  0  0  0
  -25.4115  -36.3064   24.0323 C   0  0  1  0  0  0
  -20.5885  -28.3700   23.1282 C   0  0  2  0  0  0
  -20.6770  -26.9407   22.5443 C   0  0  0  0  0  0
  -19.5770  -26.6382   21.5222 C   0  0  0  0  0  0
  -18.1938  -26.7941   22.1595 C   0  0  0  0  0  0
  -19.1540  -28.8861   23.2879 C   0  0  0  0  0  0
  -18.9459  -30.1451   23.8915 C   0  0  0  0  0  0
  -17.6457  -30.6581   24.0575 C   0  0  0  0  0  0
  -25.9056  -34.9438   23.5083 C   0  0  0  0  0  0
  -16.5350  -29.9083   23.6331 C   0  0  0  0  0  0
  -16.7276  -28.6502   23.0348 C   0  0  0  0  0  0
  -26.4504  -31.6574   25.0703 C   0  0  0  0  0  0
  -25.3725  -31.3735   26.1421 C   0  0  0  0  0  0
  -27.0343  -30.2987   24.6193 C   0  0  0  0  0  0
  -27.6048  -32.4320   25.7485 C   0  0  0  0  0  0
  -27.5577  -37.1798   24.8464 C   0  0  0  0  0  0
  -21.4200  -29.3037   22.3662 N   0  0  0  0  0  0
  -26.4288  -37.3766   23.9408 N   0  0  0  0  0  0
  -24.6961  -31.0497   22.0936 N   0  0  0  0  0  0
  -23.4190  -28.8148   23.3032 O   0  0  0  0  0  0
  -28.3444  -26.4056   20.1120 O   0  0  0  0  0  0
  -26.5633  -34.8919   22.4656 O   0  0  0  0  0  0
  -23.5460  -32.1364   23.7257 O   0  0  0  0  0  0
  -28.2636  -20.5671   23.1437 C   0  0  0  0  0  0
  -28.3184  -21.6553   22.2435 C   0  0  0  0  0  0
  -28.6294  -19.4514   22.4585 C   0  0  0  0  0  0
  -28.7056  -21.2169   21.0044 C   0  0  0  0  0  0
  -28.5232  -21.5076   18.4748 C   0  0  0  0  0  0
  -29.3642  -18.6177   20.2249 C   0  0  0  0  0  0
  -30.2439  -17.3607   20.8089 C   0  0  0  0  0  0
  -28.3277  -24.9997   20.6587 C   0  0  0  0  0  0
  -28.8305  -22.2288   19.8027 C   0  0  1  0  0  0
  -28.0238  -23.6765   19.7706 C   0  0  1  0  0  0
  -28.9613  -19.7740   21.1470 N   0  0  0  0  0  0
  -29.8207  -15.8894   20.6686 N   0  0  0  0  0  0
  -26.6367  -23.3900   19.8827 O   0  0  0  0  0  0
  -31.4734  -12.6014   19.1616 H   0  0  0  0  0  0
  -30.3889  -11.4928   19.9564 H   0  0  0  0  0  0
  -29.7951  -11.7303   17.5215 H   0  0  0  0  0  0
  -29.6282  -13.4580   17.7129 H   0  0  0  0  0  0
  -27.8956  -11.2780   18.9150 H   0  0  0  0  0  0
  -27.3779  -12.5135   17.8003 H   0  0  0  0  0  0
  -27.6318  -14.2493   19.4611 H   0  0  0  0  0  0
  -28.7278  -12.1748   21.4248 H   0  0  0  0  0  0
  -28.4168  -13.8535   21.7893 H   0  0  0  0  0  0
  -25.2760   -9.5673   22.4762 H   0  0  0  0  0  0
  -23.9992   -7.4631   22.7478 H   0  0  0  0  0  0
  -21.0836   -8.8772   19.8961 H   0  0  0  0  0  0
  -22.3700  -10.9665   19.6174 H   0  0  0  0  0  0
  -21.2011   -7.6143   23.9712 H   0  0  0  0  0  0
  -21.1483   -6.0520   25.9075 H   0  0  0  0  0  0
  -22.0601   -2.7604   23.2848 H   0  0  0  0  0  0
  -22.4082  -11.9885   22.4815 H   0  0  0  0  0  0
  -21.1091  -13.1257   22.2637 H   0  0  0  0  0  0
  -24.6466  -15.8412   20.5158 H   0  0  0  0  0  0
  -26.2553  -15.6330   20.0489 H   0  0  0  0  0  0
  -26.7202  -32.5397   23.1049 H   0  0  0  0  0  0
  -25.0070  -33.9678   25.0377 H   0  0  0  0  0  0
  -22.7247  -31.2951   21.3898 H   0  0  0  0  0  0
  -23.3751  -35.9618   23.3297 H   0  0  0  0  0  0
  -24.3578  -36.8912   22.2054 H   0  0  0  0  0  0
  -23.7247  -37.6483   23.6668 H   0  0  0  0  0  0
  -26.1063  -31.5227   20.6004 H   0  0  0  0  0  0
  -26.8517  -30.8198   22.0050 H   0  0  0  0  0  0
  -28.1265  -28.9362   21.1869 H   0  0  0  0  0  0
  -25.9969  -25.8888   19.0083 H   0  0  0  0  0  0
  -23.9789  -27.2819   19.0129 H   0  0  0  0  0  0
  -23.7756  -30.5718   19.3997 H   0  0  0  0  0  0
  -22.7655  -29.2325   19.8543 H   0  0  0  0  0  0
  -25.1302  -36.1908   25.0817 H   0  0  0  0  0  0
  -20.9973  -28.3284   24.1401 H   0  0  0  0  0  0
  -20.5625  -26.2318   23.3654 H   0  0  0  0  0  0
  -21.6649  -26.7405   22.1281 H   0  0  0  0  0  0
  -19.6933  -25.6287   21.1265 H   0  0  0  0  0  0
  -19.6741  -27.3186   20.6747 H   0  0  0  0  0  0
  -18.0290  -26.0065   22.8963 H   0  0  0  0  0  0
  -17.4232  -26.6731   21.3960 H   0  0  0  0  0  0
  -19.7933  -30.7260   24.2302 H   0  0  0  0  0  0
  -17.5008  -31.6260   24.5183 H   0  0  0  0  0  0
  -15.5351  -30.2987   23.7644 H   0  0  0  0  0  0
  -15.8679  -28.0818   22.7059 H   0  0  0  0  0  0
  -24.5909  -30.7070   25.7753 H   0  0  0  0  0  0
  -24.8905  -32.2908   26.4814 H   0  0  0  0  0  0
  -25.8043  -30.8939   27.0214 H   0  0  0  0  0  0
  -26.2919  -29.6738   24.1210 H   0  0  0  0  0  0
  -27.4006  -29.7251   25.4715 H   0  0  0  0  0  0
  -27.8807  -30.4249   23.9438 H   0  0  0  0  0  0
  -27.2645  -33.3627   26.2041 H   0  0  0  0  0  0
  -28.3877  -32.6869   25.0328 H   0  0  0  0  0  0
  -28.0696  -31.8458   26.5426 H   0  0  0  0  0  0
  -28.2593  -38.0093   24.7508 H   0  0  0  0  0  0
  -28.1073  -36.2625   24.6295 H   0  0  0  0  0  0
  -27.2294  -37.1455   25.8866 H   0  0  0  0  0  0
  -20.9384  -29.8745   21.6855 H   0  0  0  0  0  0
  -26.0164  -38.2840   24.1406 H   0  0  0  0  0  0
  -27.9713  -20.5963   24.1854 H   0  0  0  0  0  0
  -28.0738  -22.6810   22.4839 H   0  0  0  0  0  0
  -28.6751  -18.4290   22.8088 H   0  0  0  0  0  0
  -27.5205  -21.0799   18.4851 H   0  0  0  0  0  0
  -29.2301  -20.7102   18.2672 H   0  0  0  0  0  0
  -28.5791  -22.1863   17.6237 H   0  0  0  0  0  0
  -28.4490  -18.2327   19.7747 H   0  0  0  0  0  0
  -29.9364  -19.0406   19.4025 H   0  0  0  0  0  0
  -31.2284  -17.4437   20.3458 H   0  0  0  0  0  0
  -30.4552  -17.5218   21.8650 H   0  0  0  0  0  0
  -29.3424  -24.8646   21.0350 H   0  0  0  0  0  0
  -27.7108  -24.9879   21.5586 H   0  0  0  0  0  0
  -29.8853  -22.5022   19.7522 H   0  0  0  0  0  0
  -28.1711  -24.0544   18.7580 H   0  0  0  0  0  0
  -28.8416  -15.7047   20.8242 H   0  0  0  0  0  0
  -26.1680  -24.2158   19.8491 H   0  0  0  0  0  0
  1 25  1  0  0  0
  1 30  2  0  0  0
  1 82  1  0  0  0
  2  3  1  0  0  0
  2 25  1  0  0  0
  2 84  1  0  0  0
  2 85  1  0  0  0
  3  4  1  0  0  0
  3 86  1  0  0  0
  3 87  1  0  0  0
  4  5  1  0  0  0
  4 88  1  0  0  0
  4 89  1  0  0  0
  5  6  1  0  0  0
  5 26  1  0  0  0
  5 90  1  0  0  0
  6 25  1  0  0  0
  6 91  1  0  0  0
  6 92  1  0  0  0
  7  8  2  0  0  0
  7 26  1  0  0  0
  7 29  1  0  0  0
  8  9  1  0  0  0
  8 22  1  0  0  0
  9 10  1  0  0  0
  9 27  2  0  0  0
 10 11  2  0  0  0
 10 15  1  0  0  0
 11 12  1  0  0  0
 11 93  1  0  0  0
 12 13  2  0  0  0
 12 94  1  0  0  0
 13 14  1  0  0  0
 13 31  1  0  0  0
 14 15  2  0  0  0
 14 95  1  0  0  0
 15 96  1  0  0  0
 16 17  2  0  0  0
 16 21  1  0  0  0
 16 31  1  0  0  0
 17 18  1  0  0  0
 17 97  1  0  0  0
 18 19  2  0  0  0
 18 98  1  0  0  0
 19 20  1  0  0  0
 19 24  1  0  0  0
 20 21  2  0  0  0
 20 99  1  0  0  0
 21 23  1  0  0  0
 22 28  1  0  0  0
 22 32  2  0  0  0
 26 27  1  0  0  0
 28100  1  0  0  0
 28101  1  0  0  0
 29102  1  0  0  0
 29103  1  0  0  0
 33 34  1  0  0  0
 33 66  1  0  0  0
 33 70  2  0  0  0
 34 36  1  0  0  0
 34 59  1  0  0  0
 34104  1  0  0  0
 35 44  2  0  0  0
 35 45  1  0  0  0
 35 68  1  0  0  0
 36 56  1  0  0  0
 36105  1  0  0  0
 37 39  1  0  0  0
 37 47  1  0  0  0
 37 66  1  0  0  0
 37106  1  0  0  0
 38 43  2  0  0  0
 38 46  1  0  0  0
 38 47  1  0  0  0
 39 64  1  0  0  0
 39 67  2  0  0  0
 40 52  1  0  0  0
 40 53  2  0  0  0
 40 58  1  0  0  0
 41107  1  0  0  0
 41108  1  0  0  0
 41109  1  0  0  0
 41 48  1  0  0  0
 42 43  1  0  0  0
 42 66  1  0  0  0
 42110  1  0  0  0
 42111  1  0  0  0
 43 44  1  0  0  0
 44112  1  0  0  0
 45 46  2  0  0  0
 45113  1  0  0  0
 46114  1  0  0  0
 47115  1  0  0  0
 47116  1  0  0  0
 48 56  1  0  0  0
 48 65  1  0  0  0
 48117  1  0  0  0
 49 50  1  0  0  0
 49 53  1  0  0  0
 49 64  1  0  0  0
 49118  1  0  0  0
 50 51  1  0  0  0
 50119  1  0  0  0
 50120  1  0  0  0
 51 52  1  0  0  0
 51121  1  0  0  0
 51122  1  0  0  0
 52123  1  0  0  0
 52124  1  0  0  0
 53 54  1  0  0  0
 54 55  2  0  0  0
 54125  1  0  0  0
 55 57  1  0  0  0
 55126  1  0  0  0
 56 69  2  0  0  0
 57 58  2  0  0  0
 57127  1  0  0  0
 58128  1  0  0  0
 59 60  1  0  0  0
 59 61  1  0  0  0
 59 62  1  0  0  0
 60129  1  0  0  0
 60130  1  0  0  0
 60131  1  0  0  0
 61132  1  0  0  0
 61133  1  0  0  0
 61134  1  0  0  0
 62135  1  0  0  0
 62136  1  0  0  0
 62137  1  0  0  0
 63 65  1  0  0  0
 63138  1  0  0  0
 63139  1  0  0  0
 63140  1  0  0  0
 64141  1  0  0  0
 65142  1  0  0  0
 68 78  1  0  0  0
 71 72  1  0  0  0
 71 73  2  0  0  0
 71143  1  0  0  0
 72 74  2  0  0  0
 72144  1  0  0  0
 73 81  1  0  0  0
 73145  1  0  0  0
 74 79  1  0  0  0
 74 81  1  0  0  0
 75146  1  0  0  0
 75147  1  0  0  0
 75148  1  0  0  0
 75 79  1  0  0  0
 76 77  1  0  0  0
 76 81  1  0  0  0
 76149  1  0  0  0
 76150  1  0  0  0
 77 82  1  0  0  0
 77151  1  0  0  0
 77152  1  0  0  0
 78 80  1  0  0  0
 78153  1  0  0  0
 78154  1  0  0  0
 79 80  1  0  0  0
 79155  1  0  0  0
 80 83  1  0  0  0
 80156  1  0  0  0
 82157  1  0  0  0
 83158  1  0  0  0
M  ISO  4   1 100  68 101  78 101  82 100
M  END
> <chiral flag>
0

> <version>
0

> <s_m_source_file>
/data/baiqing/PycharmProjects/Reinvent-master-3.2/result/LINK_invent/BTK/process_docking_weight1_custom_sum_contain_oxygen_bond_distance_aromatic_linkinvent_7_9_3/rearranged_h_0119.sdf

> <i_m_source_file_index>
91

> <r_mmod_Potential_Energy-OPLS-2005>
248.89208984375

> <r_mmod_Stretch_Energy-OPLS-2005>
150.12580871582

> <r_mmod_Bend_Energy-OPLS-2005>
229.507934570312

> <r_mmod_Torsional_Energy-OPLS-2005>
258.134735107422

> <r_mmod_Improper_Torsional_Energy-OPLS-2005>
4.8634033203125

> <r_mmod_Van_der_Waal_Energy-OPLS-2005>
111.556526184082

> <r_mmod_Electrostatic_Energy-OPLS-2005>
-358.841461181641

> <r_mmod_Solvation_Energy-OPLS-2005>
-231.681976318359

> <b_mmod_Minimization_Converged-OPLS-2005>
0

> <r_mmod_RMS_Derivative-OPLS-2005>
1.05328333377838

$$$$
91
                    3D
 Structure written by MMmdl.
156164  0  0  1  0            999 V2000
  -30.4165  -15.2857   20.3902 C   0  0  0  0  0  0
  -30.4436  -12.8297   19.5126 C   0  0  0  0  0  0
  -29.5401  -12.5955   18.2785 C   0  0  0  0  0  0
  -28.0915  -12.3035   18.7083 C   0  0  0  0  0  0
  -27.6112  -13.2721   19.8190 C   0  0  2  0  0  0
  -28.6480  -13.4506   20.9474 C   0  0  0  0  0  0
  -25.2426  -13.8253   20.5764 C   0  0  0  0  0  0
  -24.1766  -13.0449   20.9227 C   0  0  0  0  0  0
  -24.6396  -11.6932   20.8746 C   0  0  0  0  0  0
  -23.9082  -10.4303   21.0416 C   0  0  0  0  0  0
  -24.3635   -9.4235   21.9203 C   0  0  0  0  0  0
  -23.6308   -8.2274   22.0768 C   0  0  0  0  0  0
  -22.4306   -8.0305   21.3544 C   0  0  0  0  0  0
  -21.9929   -9.0271   20.4656 C   0  0  0  0  0  0
  -22.7246  -10.2148   20.3065 C   0  0  0  0  0  0
  -21.6868   -6.0747   22.5279 C   0  0  0  0  0  0
  -21.4013   -6.5635   23.8217 C   0  0  0  0  0  0
  -21.3662   -5.6788   24.9169 C   0  0  0  0  0  0
  -21.6064   -4.3056   24.7219 C   0  0  0  0  0  0
  -21.8814   -3.8150   23.4331 C   0  0  0  0  0  0
  -21.9198   -4.6976   22.3401 C   0  0  0  0  0  0
  -22.7790  -13.5239   21.1850 C   0  0  0  0  0  0
  -22.1664   -4.2161   21.0976 F   0  0  0  0  0  0
  -21.5615   -3.4538   25.7723 F   0  0  0  0  0  0
  -29.8689  -13.9734   20.3110 N   0  0  0  0  0  0
  -26.2826  -12.9502   20.3204 N   0  0  0  0  0  0
  -25.9338  -11.6604   20.5681 N   0  0  0  0  0  0
  -22.0404  -12.8268   22.0402 N   0  0  0  0  0  0
  -25.4100  -15.1991   20.4174 N   0  0  0  0  0  0
  -31.6500  -15.2989   20.2564 O   0  0  0  0  0  0
  -21.6659   -6.8903   21.4250 O   0  0  0  0  0  0
  -22.3486  -14.5538   20.6674 O   0  0  0  0  0  0
  -24.6621  -31.8235   23.1715 C   0  0  0  0  0  0
  -25.9291  -32.4584   23.8176 C   0  0  1  0  0  0
  -27.2169  -26.9220   20.1987 C   0  0  0  0  0  0
  -25.5948  -33.8403   24.2088 N   0  0  0  0  0  0
  -23.4785  -30.4363   21.5199 C   0  0  2  0  0  0
  -24.9289  -28.8173   20.1224 C   0  0  0  0  0  0
  -22.7654  -29.4445   22.4779 C   0  0  0  0  0  0
  -18.0320  -28.1432   22.8466 C   0  0  0  0  0  0
  -24.1490  -36.7216   23.2651 C   0  0  0  0  0  0
  -26.0470  -30.6303   21.3987 C   0  0  0  0  0  0
  -26.1143  -29.2161   20.7503 C   0  0  0  0  0  0
  -27.2561  -28.2945   20.7539 C   0  0  0  0  0  0
  -25.9943  -26.6655   19.5355 C   0  0  0  0  0  0
  -24.8936  -27.5618   19.4937 C   0  0  0  0  0  0
  -23.7179  -29.7516   20.1483 C   0  0  0  0  0  0
  -25.4142  -36.2980   24.0302 C   0  0  1  0  0  0
  -20.5942  -28.3777   23.1185 C   0  0  2  0  0  0
  -20.6806  -26.9457   22.5402 C   0  0  0  0  0  0
  -19.5786  -26.6400   21.5220 C   0  0  0  0  0  0
  -18.1962  -26.7963   22.1621 C   0  0  0  0  0  0
  -19.1580  -28.8920   23.2816 C   0  0  0  0  0  0
  -18.9495  -30.1504   23.8860 C   0  0  0  0  0  0
  -17.6499  -30.6625   24.0575 C   0  0  0  0  0  0
  -25.9094  -34.9353   23.5029 C   0  0  0  0  0  0
  -16.5388  -29.9128   23.6339 C   0  0  0  0  0  0
  -16.7301  -28.6545   23.0360 C   0  0  0  0  0  0
  -26.4548  -31.6524   25.0703 C   0  0  0  0  0  0
  -25.3668  -31.3777   26.1360 C   0  0  0  0  0  0
  -27.0435  -30.2893   24.6398 C   0  0  0  0  0  0
  -27.6057  -32.4314   25.7497 C   0  0  0  0  0  0
  -27.5570  -37.1782   24.8476 C   0  0  0  0  0  0
  -21.4322  -29.3074   22.3521 N   0  0  0  0  0  0
  -26.4293  -37.3711   23.9384 N   0  0  0  0  0  0
  -24.7508  -30.9907   22.0850 N   0  0  0  0  0  0
  -23.4206  -28.7984   23.3005 O   0  0  0  0  0  0
  -28.2547  -25.8497   20.1808 O   0  0  0  0  0  0
  -26.5715  -34.8885   22.4635 O   0  0  0  0  0  0
  -23.5680  -32.1197   23.6814 O   0  0  0  0  0  0
  -30.0426  -23.1439   22.0340 C   0  0  0  0  0  0
  -29.8254  -21.6078   21.7720 C   0  0  0  0  0  0
  -28.6220  -22.6937   19.8225 C   0  0  0  0  0  0
  -28.8025  -24.1093   21.9874 C   0  0  1  0  0  0
  -28.1498  -24.2409   20.5721 C   0  0  1  0  0  0
  -27.7861  -23.7907   23.1004 C   0  0  0  0  0  0
  -29.7212  -18.1841   20.7877 C   0  0  0  0  0  0
  -29.1430  -19.7225   20.0160 C   0  0  0  0  0  0
  -29.6175  -16.5408   20.4192 N   0  0  0  0  0  0
  -28.9241  -21.2786   20.6319 N   0  3  1  0  0  0
  -31.4593  -13.0486   19.1827 H   0  0  0  0  0  0
  -30.5174  -11.9193   20.1119 H   0  0  0  0  0  0
  -29.9257  -11.7755   17.6699 H   0  0  0  0  0  0
  -29.5620  -13.4840   17.6452 H   0  0  0  0  0  0
  -28.0548  -11.2784   19.0749 H   0  0  0  0  0  0
  -27.4232  -12.3372   17.8446 H   0  0  0  0  0  0
  -27.5240  -14.2394   19.3234 H   0  0  0  0  0  0
  -28.8368  -12.5161   21.4798 H   0  0  0  0  0  0
  -28.2885  -14.1629   21.6913 H   0  0  0  0  0  0
  -25.2762   -9.5727   22.4794 H   0  0  0  0  0  0
  -24.0009   -7.4685   22.7503 H   0  0  0  0  0  0
  -21.0848   -8.8784   19.8971 H   0  0  0  0  0  0
  -22.3687  -10.9699   19.6185 H   0  0  0  0  0  0
  -21.2015   -7.6138   23.9713 H   0  0  0  0  0  0
  -21.1480   -6.0515   25.9072 H   0  0  0  0  0  0
  -22.0600   -2.7610   23.2822 H   0  0  0  0  0  0
  -22.3933  -11.9909   22.4818 H   0  0  0  0  0  0
  -21.1035  -13.1357   22.2585 H   0  0  0  0  0  0
  -24.6440  -15.8553   20.5310 H   0  0  0  0  0  0
  -26.2524  -15.6335   20.0672 H   0  0  0  0  0  0
  -26.7357  -32.5131   23.0882 H   0  0  0  0  0  0
  -25.0021  -33.9502   25.0178 H   0  0  0  0  0  0
  -22.7915  -31.2701   21.3500 H   0  0  0  0  0  0
  -23.3750  -35.9556   23.3340 H   0  0  0  0  0  0
  -24.3542  -36.8832   22.2063 H   0  0  0  0  0  0
  -23.7264  -37.6419   23.6684 H   0  0  0  0  0  0
  -26.2192  -31.3654   20.6140 H   0  0  0  0  0  0
  -26.9100  -30.6939   22.0494 H   0  0  0  0  0  0
  -28.1630  -28.6094   21.2466 H   0  0  0  0  0  0
  -25.8655  -25.7079   19.0537 H   0  0  0  0  0  0
  -23.9911  -27.2510   18.9841 H   0  0  0  0  0  0
  -23.8863  -30.5211   19.3942 H   0  0  0  0  0  0
  -22.8254  -29.2140   19.8232 H   0  0  0  0  0  0
  -25.1345  -36.1808   25.0791 H   0  0  0  0  0  0
  -21.0035  -28.3412   24.1313 H   0  0  0  0  0  0
  -20.5709  -26.2414   23.3653 H   0  0  0  0  0  0
  -21.6671  -26.7471   22.1208 H   0  0  0  0  0  0
  -19.6965  -25.6298   21.1297 H   0  0  0  0  0  0
  -19.6735  -27.3173   20.6725 H   0  0  0  0  0  0
  -17.4235  -26.6697   21.4019 H   0  0  0  0  0  0
  -18.0361  -26.0121   22.9032 H   0  0  0  0  0  0
  -19.7976  -30.7321   24.2227 H   0  0  0  0  0  0
  -17.5065  -31.6304   24.5189 H   0  0  0  0  0  0
  -15.5394  -30.3049   23.7681 H   0  0  0  0  0  0
  -15.8691  -28.0872   22.7106 H   0  0  0  0  0  0
  -24.5860  -30.7113   25.7655 H   0  0  0  0  0  0
  -24.8850  -32.2990   26.4655 H   0  0  0  0  0  0
  -25.7901  -30.9018   27.0220 H   0  0  0  0  0  0
  -26.3089  -29.6574   24.1393 H   0  0  0  0  0  0
  -27.3966  -29.7246   25.5036 H   0  0  0  0  0  0
  -27.9028  -30.4084   23.9800 H   0  0  0  0  0  0
  -27.2634  -33.3645   26.1985 H   0  0  0  0  0  0
  -28.3917  -32.6818   25.0357 H   0  0  0  0  0  0
  -28.0661  -31.8489   26.5488 H   0  0  0  0  0  0
  -28.2619  -38.0042   24.7449 H   0  0  0  0  0  0
  -28.1027  -36.2568   24.6403 H   0  0  0  0  0  0
  -27.2261  -37.1550   25.8871 H   0  0  0  0  0  0
  -20.9566  -29.8781   21.6667 H   0  0  0  0  0  0
  -26.0155  -38.2780   24.1345 H   0  0  0  0  0  0
  -30.7769  -23.5149   21.3163 H   0  0  0  0  0  0
  -30.5345  -23.2534   23.0032 H   0  0  0  0  0  0
  -29.4425  -21.1229   22.6707 H   0  0  0  0  0  0
  -30.8040  -21.1616   21.5830 H   0  0  0  0  0  0
  -29.5378  -22.8926   19.2666 H   0  0  0  0  0  0
  -27.8835  -22.4622   19.0555 H   0  0  0  0  0  0
  -29.1914  -25.0983   22.2293 H   0  0  0  0  0  0
  -27.0736  -24.1208   20.6961 H   0  0  0  0  0  0
  -27.3996  -22.7740   23.0237 H   0  0  0  0  0  0
  -26.9314  -24.4673   23.0578 H   0  0  0  0  0  0
  -28.2328  -23.9023   24.0889 H   0  0  0  0  0  0
  -29.2393  -18.2086   21.7663 H   0  0  0  0  0  0
  -30.7744  -18.3467   21.0170 H   0  0  0  0  0  0
  -28.1851  -19.4992   19.5463 H   0  0  0  0  0  0
  -29.8169  -19.8744   19.1749 H   0  0  0  0  0  0
  -28.6451  -16.2829   20.3309 H   0  0  0  0  0  0
  -28.0436  -21.1462   21.1103 H   0  0  0  0  0  0
  1 25  1  0  0  0
  1 30  2  0  0  0
  1 79  1  0  0  0
  2  3  1  0  0  0
  2 25  1  0  0  0
  2 81  1  0  0  0
  2 82  1  0  0  0
  3  4  1  0  0  0
  3 83  1  0  0  0
  3 84  1  0  0  0
  4  5  1  0  0  0
  4 85  1  0  0  0
  4 86  1  0  0  0
  5  6  1  0  0  0
  5 26  1  0  0  0
  5 87  1  0  0  0
  6 25  1  0  0  0
  6 88  1  0  0  0
  6 89  1  0  0  0
  7  8  2  0  0  0
  7 26  1  0  0  0
  7 29  1  0  0  0
  8  9  1  0  0  0
  8 22  1  0  0  0
  9 10  1  0  0  0
  9 27  2  0  0  0
 10 11  2  0  0  0
 10 15  1  0  0  0
 11 12  1  0  0  0
 11 90  1  0  0  0
 12 13  2  0  0  0
 12 91  1  0  0  0
 13 14  1  0  0  0
 13 31  1  0  0  0
 14 15  2  0  0  0
 14 92  1  0  0  0
 15 93  1  0  0  0
 16 17  2  0  0  0
 16 21  1  0  0  0
 16 31  1  0  0  0
 17 18  1  0  0  0
 17 94  1  0  0  0
 18 19  2  0  0  0
 18 95  1  0  0  0
 19 20  1  0  0  0
 19 24  1  0  0  0
 20 21  2  0  0  0
 20 96  1  0  0  0
 21 23  1  0  0  0
 22 28  1  0  0  0
 22 32  2  0  0  0
 26 27  1  0  0  0
 28 97  1  0  0  0
 28 98  1  0  0  0
 29 99  1  0  0  0
 29100  1  0  0  0
 33 34  1  0  0  0
 33 66  1  0  0  0
 33 70  2  0  0  0
 34 36  1  0  0  0
 34 59  1  0  0  0
 34101  1  0  0  0
 35 44  2  0  0  0
 35 45  1  0  0  0
 35 68  1  0  0  0
 36 56  1  0  0  0
 36102  1  0  0  0
 37 39  1  0  0  0
 37 47  1  0  0  0
 37 66  1  0  0  0
 37103  1  0  0  0
 38 43  2  0  0  0
 38 46  1  0  0  0
 38 47  1  0  0  0
 39 64  1  0  0  0
 39 67  2  0  0  0
 40 52  1  0  0  0
 40 53  2  0  0  0
 40 58  1  0  0  0
 41104  1  0  0  0
 41105  1  0  0  0
 41106  1  0  0  0
 41 48  1  0  0  0
 42 43  1  0  0  0
 42 66  1  0  0  0
 42107  1  0  0  0
 42108  1  0  0  0
 43 44  1  0  0  0
 44109  1  0  0  0
 45 46  2  0  0  0
 45110  1  0  0  0
 46111  1  0  0  0
 47112  1  0  0  0
 47113  1  0  0  0
 48 56  1  0  0  0
 48 65  1  0  0  0
 48114  1  0  0  0
 49 50  1  0  0  0
 49 53  1  0  0  0
 49 64  1  0  0  0
 49115  1  0  0  0
 50 51  1  0  0  0
 50116  1  0  0  0
 50117  1  0  0  0
 51 52  1  0  0  0
 51118  1  0  0  0
 51119  1  0  0  0
 52120  1  0  0  0
 52121  1  0  0  0
 53 54  1  0  0  0
 54 55  2  0  0  0
 54122  1  0  0  0
 55 57  1  0  0  0
 55123  1  0  0  0
 56 69  2  0  0  0
 57 58  2  0  0  0
 57124  1  0  0  0
 58125  1  0  0  0
 59 60  1  0  0  0
 59 61  1  0  0  0
 59 62  1  0  0  0
 60126  1  0  0  0
 60127  1  0  0  0
 60128  1  0  0  0
 61129  1  0  0  0
 61130  1  0  0  0
 61131  1  0  0  0
 62132  1  0  0  0
 62133  1  0  0  0
 62134  1  0  0  0
 63 65  1  0  0  0
 63135  1  0  0  0
 63136  1  0  0  0
 63137  1  0  0  0
 64138  1  0  0  0
 65139  1  0  0  0
 68 75  1  0  0  0
 71 72  1  0  0  0
 71 74  1  0  0  0
 71140  1  0  0  0
 71141  1  0  0  0
 72 80  1  0  0  0
 72142  1  0  0  0
 72143  1  0  0  0
 73 75  1  0  0  0
 73 80  1  0  0  0
 73144  1  0  0  0
 73145  1  0  0  0
 74 75  1  0  0  0
 74 76  1  0  0  0
 74146  1  0  0  0
 75147  1  0  0  0
 76148  1  0  0  0
 76149  1  0  0  0
 76150  1  0  0  0
 77 78  1  0  0  0
 77 79  1  0  0  0
 77151  1  0  0  0
 77152  1  0  0  0
 78153  1  0  0  0
 78154  1  0  0  0
 78 80  1  0  0  0
 79155  1  0  0  0
 80156  1  0  0  0
M  CHG  1  80   1
M  ISO  4   1 100  68 101  75 101  79 100
M  END
> <chiral flag>
0

> <version>
0

> <s_m_source_file>
/data/baiqing/PycharmProjects/Reinvent-master-3.2/result/LINK_invent/BTK/process_docking_weight1_custom_sum_contain_oxygen_bond_distance_aromatic_linkinvent_7_9_3/rearranged_h_0119.sdf

> <i_m_source_file_index>
92

> <r_mmod_Potential_Energy-OPLS-2005>
1294.41870117188

> <r_mmod_Stretch_Energy-OPLS-2005>
618.933410644531

> <r_mmod_Bend_Energy-OPLS-2005>
470.698608398438

> <r_mmod_Torsional_Energy-OPLS-2005>
296.633544921875

> <r_mmod_Improper_Torsional_Energy-OPLS-2005>
4.44042253494263

> <r_mmod_Van_der_Waal_Energy-OPLS-2005>
114.413536071777

> <r_mmod_Electrostatic_Energy-OPLS-2005>
-228.382202148438

> <r_mmod_Solvation_Energy-OPLS-2005>
-450.257110595703

> <b_mmod_Minimization_Converged-OPLS-2005>
0

> <r_mmod_RMS_Derivative-OPLS-2005>
4.51106786727905

$$$$
92
                    3D
 Structure written by MMmdl.
169177  0  0  1  0            999 V2000
  -30.7837  -14.3860   20.6516 C   0  0  0  0  0  0
  -30.4103  -12.2887   19.4076 C   0  0  0  0  0  0
  -29.4851  -12.5142   18.1973 C   0  0  0  0  0  0
  -28.0078  -12.3818   18.6100 C   0  0  0  0  0  0
  -27.6641  -13.2116   19.8749 C   0  0  2  0  0  0
  -28.7043  -12.9867   20.9972 C   0  0  0  0  0  0
  -25.2586  -13.8187   20.5665 C   0  0  0  0  0  0
  -24.1839  -13.0456   20.9150 C   0  0  0  0  0  0
  -24.6407  -11.6917   20.8720 C   0  0  0  0  0  0
  -23.9076  -10.4302   21.0394 C   0  0  0  0  0  0
  -24.3628   -9.4220   21.9183 C   0  0  0  0  0  0
  -23.6297   -8.2251   22.0756 C   0  0  0  0  0  0
  -22.4282   -8.0290   21.3544 C   0  0  0  0  0  0
  -21.9926   -9.0258   20.4637 C   0  0  0  0  0  0
  -22.7248  -10.2134   20.3040 C   0  0  0  0  0  0
  -21.6852   -6.0744   22.5278 C   0  0  0  0  0  0
  -21.4020   -6.5641   23.8213 C   0  0  0  0  0  0
  -21.3655   -5.6789   24.9174 C   0  0  0  0  0  0
  -21.6033   -4.3053   24.7219 C   0  0  0  0  0  0
  -21.8820   -3.8155   23.4340 C   0  0  0  0  0  0
  -21.9194   -4.6975   22.3397 C   0  0  0  0  0  0
  -22.7854  -13.5231   21.1817 C   0  0  0  0  0  0
  -22.1660   -4.2160   21.0973 F   0  0  0  0  0  0
  -21.5623   -3.4541   25.7732 F   0  0  0  0  0  0
  -30.0479  -13.2599   20.4531 N   0  0  0  0  0  0
  -26.3042  -12.9367   20.3358 N   0  0  0  0  0  0
  -25.9338  -11.6521   20.5759 N   0  0  0  0  0  0
  -22.0493  -12.8204   22.0370 N   0  0  0  0  0  0
  -25.4320  -15.1902   20.4093 N   0  0  0  0  0  0
  -31.8222  -14.6308   20.0323 O   0  0  0  0  0  0
  -21.6637   -6.8889   21.4248 O   0  0  0  0  0  0
  -22.3534  -14.5544   20.6686 O   0  0  0  0  0  0
  -24.6144  -31.8674   23.2122 C   0  0  0  0  0  0
  -25.9036  -32.4833   23.8411 C   0  0  1  0  0  0
  -27.2315  -27.4279   20.0807 C   0  0  0  0  0  0
  -25.5887  -33.8628   24.2328 N   0  0  0  0  0  0
  -23.4017  -30.4933   21.5526 C   0  0  2  0  0  0
  -24.8470  -28.9683   20.1072 C   0  0  0  0  0  0
  -22.7422  -29.4632   22.4986 C   0  0  0  0  0  0
  -18.0267  -28.1368   22.8457 C   0  0  0  0  0  0
  -24.1482  -36.7308   23.2640 C   0  0  0  0  0  0
  -25.9329  -30.8297   21.3681 C   0  0  0  0  0  0
  -26.0085  -29.4658   20.7106 C   0  0  0  0  0  0
  -27.2009  -28.7027   20.6960 C   0  0  0  0  0  0
  -26.0488  -26.9610   19.4574 C   0  0  0  0  0  0
  -24.8641  -27.7154   19.4780 C   0  0  0  0  0  0
  -23.6080  -29.8325   20.1647 C   0  0  0  0  0  0
  -25.4102  -36.3115   24.0345 C   0  0  1  0  0  0
  -20.5867  -28.3635   23.1315 C   0  0  2  0  0  0
  -20.6756  -26.9370   22.5412 C   0  0  0  0  0  0
  -19.5739  -26.6357   21.5194 C   0  0  0  0  0  0
  -18.1897  -26.7906   22.1583 C   0  0  0  0  0  0
  -19.1526  -28.8819   23.2881 C   0  0  0  0  0  0
  -18.9464  -30.1420   23.8913 C   0  0  0  0  0  0
  -17.6467  -30.6564   24.0556 C   0  0  0  0  0  0
  -25.9037  -34.9480   23.5135 C   0  0  0  0  0  0
  -16.5351  -29.9062   23.6341 C   0  0  0  0  0  0
  -16.7259  -28.6494   23.0335 C   0  0  0  0  0  0
  -26.4463  -31.6619   25.0742 C   0  0  0  0  0  0
  -25.3724  -31.3724   26.1490 C   0  0  0  0  0  0
  -27.0297  -30.3069   24.6112 C   0  0  0  0  0  0
  -27.6047  -32.4337   25.7495 C   0  0  0  0  0  0
  -27.5579  -37.1809   24.8463 C   0  0  0  0  0  0
  -21.4150  -29.3024   22.3757 N   0  0  0  0  0  0
  -26.4283  -37.3792   23.9415 N   0  0  0  0  0  0
  -24.6681  -31.0781   22.1014 N   0  0  0  0  0  0
  -23.4206  -28.8149   23.2994 O   0  0  0  0  0  0
  -28.4011  -26.6818   20.1159 O   0  0  0  0  0  0
  -26.5604  -34.8925   22.4701 O   0  0  0  0  0  0
  -23.5335  -32.1426   23.7523 O   0  0  0  0  0  0
  -30.5274  -21.9860   22.1333 C   0  0  0  0  0  0
  -30.1813  -21.8733   20.6394 C   0  0  1  0  0  0
  -29.6909  -20.4157   20.4934 C   0  0  2  0  0  0
  -30.4061  -19.6231   21.6114 C   0  0  2  0  0  0
  -29.9068  -19.8204   19.0905 C   0  0  0  0  0  0
  -29.3814  -16.5411   23.9338 C   0  0  0  0  0  0
  -29.1314  -22.9043   20.1432 C   0  0  0  0  0  0
  -29.4508  -24.4097   20.3337 C   0  0  0  0  0  0
  -31.0981  -16.4024   22.0642 C   0  0  0  0  0  0
  -28.3057  -25.2875   19.7773 C   0  0  0  0  0  0
  -29.5275  -18.4808   22.2114 C   0  0  1  0  0  0
  -30.2910  -17.3592   22.9849 C   0  0  1  0  0  0
  -30.3399  -15.2343   21.5904 N   0  0  0  0  0  0
  -30.6933  -20.6171   22.6584 N   0  3  0  0  0  0
  -28.6068  -19.1152   23.0983 O   0  0  0  0  0  0
  -31.4548  -12.3707   19.1022 H   0  0  0  0  0  0
  -30.2955  -11.2741   19.7905 H   0  0  0  0  0  0
  -29.7174  -11.7957   17.4095 H   0  0  0  0  0  0
  -29.6639  -13.5037   17.7750 H   0  0  0  0  0  0
  -27.8031  -11.3258   18.7896 H   0  0  0  0  0  0
  -27.3624  -12.6789   17.7813 H   0  0  0  0  0  0
  -27.7127  -14.2617   19.5873 H   0  0  0  0  0  0
  -28.6603  -11.9580   21.3561 H   0  0  0  0  0  0
  -28.4548  -13.6045   21.8601 H   0  0  0  0  0  0
  -25.2777   -9.5682   22.4745 H   0  0  0  0  0  0
  -24.0003   -7.4645   22.7486 H   0  0  0  0  0  0
  -21.0858   -8.8778   19.8935 H   0  0  0  0  0  0
  -22.3736  -10.9668   19.6135 H   0  0  0  0  0  0
  -21.2023   -7.6151   23.9723 H   0  0  0  0  0  0
  -21.1461   -6.0519   25.9069 H   0  0  0  0  0  0
  -22.0602   -2.7621   23.2836 H   0  0  0  0  0  0
  -22.4105  -11.9855   22.4744 H   0  0  0  0  0  0
  -21.1107  -13.1215   22.2561 H   0  0  0  0  0  0
  -24.6688  -15.8495   20.5166 H   0  0  0  0  0  0
  -26.2895  -15.6290   20.0980 H   0  0  0  0  0  0
  -26.7101  -32.5524   23.1157 H   0  0  0  0  0  0
  -25.0078  -33.9808   25.0503 H   0  0  0  0  0  0
  -22.6878  -31.3081   21.4173 H   0  0  0  0  0  0
  -23.3761  -35.9622   23.3300 H   0  0  0  0  0  0
  -24.3574  -36.8928   22.2055 H   0  0  0  0  0  0
  -23.7218  -37.6497   23.6664 H   0  0  0  0  0  0
  -26.0518  -31.5994   20.6031 H   0  0  0  0  0  0
  -26.8182  -30.8770   21.9900 H   0  0  0  0  0  0
  -28.0958  -29.0820   21.1703 H   0  0  0  0  0  0
  -26.0112  -26.0145   18.9378 H   0  0  0  0  0  0
  -23.9766  -27.3331   18.9931 H   0  0  0  0  0  0
  -23.7079  -30.6103   19.4077 H   0  0  0  0  0  0
  -22.7309  -29.2528   19.8697 H   0  0  0  0  0  0
  -25.1278  -36.1974   25.0840 H   0  0  0  0  0  0
  -20.9944  -28.3188   24.1438 H   0  0  0  0  0  0
  -20.5624  -26.2247   23.3600 H   0  0  0  0  0  0
  -21.6637  -26.7362   22.1234 H   0  0  0  0  0  0
  -19.6923  -25.6268   21.1210 H   0  0  0  0  0  0
  -19.6714  -27.3198   20.6745 H   0  0  0  0  0  0
  -17.4189  -26.6680   21.3956 H   0  0  0  0  0  0
  -18.0274  -26.0014   22.8952 H   0  0  0  0  0  0
  -19.7948  -30.7217   24.2287 H   0  0  0  0  0  0
  -17.5019  -31.6254   24.5135 H   0  0  0  0  0  0
  -15.5354  -30.2962   23.7659 H   0  0  0  0  0  0
  -15.8648  -28.0809   22.7039 H   0  0  0  0  0  0
  -24.5908  -30.7048   25.7838 H   0  0  0  0  0  0
  -24.8896  -32.2876   26.4931 H   0  0  0  0  0  0
  -25.8056  -30.8907   27.0261 H   0  0  0  0  0  0
  -26.2845  -29.6831   24.1149 H   0  0  0  0  0  0
  -27.4083  -29.7295   25.4556 H   0  0  0  0  0  0
  -27.8663  -30.4421   23.9247 H   0  0  0  0  0  0
  -27.2689  -33.3651   26.2061 H   0  0  0  0  0  0
  -28.3846  -32.6867   25.0302 H   0  0  0  0  0  0
  -28.0707  -31.8460   26.5412 H   0  0  0  0  0  0
  -28.2590  -38.0110   24.7508 H   0  0  0  0  0  0
  -28.1077  -36.2643   24.6273 H   0  0  0  0  0  0
  -27.2308  -37.1452   25.8868 H   0  0  0  0  0  0
  -20.9305  -29.8792   21.7014 H   0  0  0  0  0  0
  -26.0182  -38.2866   24.1412 H   0  0  0  0  0  0
  -29.7242  -22.4654   22.6916 H   0  0  0  0  0  0
  -31.4326  -22.5763   22.2850 H   0  0  0  0  0  0
  -31.1059  -21.9923   20.0717 H   0  0  0  0  0  0
  -28.6193  -20.4022   20.7046 H   0  0  0  0  0  0
  -31.3551  -19.2428   21.2313 H   0  0  0  0  0  0
  -30.9642  -19.8067   18.8196 H   0  0  0  0  0  0
  -29.3773  -20.3974   18.3324 H   0  0  0  0  0  0
  -29.5391  -18.7940   19.0340 H   0  0  0  0  0  0
  -29.9362  -15.7246   24.3978 H   0  0  0  0  0  0
  -28.5327  -16.1033   23.4073 H   0  0  0  0  0  0
  -28.9858  -17.1485   24.7484 H   0  0  0  0  0  0
  -28.1858  -22.6985   20.6485 H   0  0  0  0  0  0
  -28.9375  -22.7179   19.0858 H   0  0  0  0  0  0
  -30.3972  -24.6718   19.8600 H   0  0  0  0  0  0
  -29.5697  -24.6172   21.3974 H   0  0  0  0  0  0
  -31.9460  -16.0123   22.6321 H   0  0  0  0  0  0
  -31.5338  -16.9418   21.2223 H   0  0  0  0  0  0
  -27.3836  -24.8656   20.1809 H   0  0  0  0  0  0
  -28.2603  -25.1910   18.6909 H   0  0  0  0  0  0
  -28.9588  -18.0097   21.4076 H   0  0  0  0  0  0
  -31.0198  -17.8614   23.6243 H   0  0  0  0  0  0
  -29.4956  -14.9820   22.0813 H   0  0  0  0  0  0
  -29.9505  -20.4309   23.3235 H   0  0  0  0  0  0
  -31.5823  -20.4695   23.1061 H   0  0  0  0  0  0
  -27.9302  -18.4800   23.3096 H   0  0  0  0  0  0
  1 25  1  0  0  0
  1 30  2  0  0  0
  1 83  1  0  0  0
  2  3  1  0  0  0
  2 25  1  0  0  0
  2 86  1  0  0  0
  2 87  1  0  0  0
  3  4  1  0  0  0
  3 88  1  0  0  0
  3 89  1  0  0  0
  4  5  1  0  0  0
  4 90  1  0  0  0
  4 91  1  0  0  0
  5  6  1  0  0  0
  5 26  1  0  0  0
  5 92  1  0  0  0
  6 25  1  0  0  0
  6 93  1  0  0  0
  6 94  1  0  0  0
  7  8  2  0  0  0
  7 26  1  0  0  0
  7 29  1  0  0  0
  8  9  1  0  0  0
  8 22  1  0  0  0
  9 10  1  0  0  0
  9 27  2  0  0  0
 10 11  2  0  0  0
 10 15  1  0  0  0
 11 12  1  0  0  0
 11 95  1  0  0  0
 12 13  2  0  0  0
 12 96  1  0  0  0
 13 14  1  0  0  0
 13 31  1  0  0  0
 14 15  2  0  0  0
 14 97  1  0  0  0
 15 98  1  0  0  0
 16 17  2  0  0  0
 16 21  1  0  0  0
 16 31  1  0  0  0
 17 18  1  0  0  0
 17 99  1  0  0  0
 18 19  2  0  0  0
 18100  1  0  0  0
 19 20  1  0  0  0
 19 24  1  0  0  0
 20 21  2  0  0  0
 20101  1  0  0  0
 21 23  1  0  0  0
 22 28  1  0  0  0
 22 32  2  0  0  0
 26 27  1  0  0  0
 28102  1  0  0  0
 28103  1  0  0  0
 29104  1  0  0  0
 29105  1  0  0  0
 33 34  1  0  0  0
 33 66  1  0  0  0
 33 70  2  0  0  0
 34 36  1  0  0  0
 34 59  1  0  0  0
 34106  1  0  0  0
 35 44  2  0  0  0
 35 45  1  0  0  0
 35 68  1  0  0  0
 36 56  1  0  0  0
 36107  1  0  0  0
 37 39  1  0  0  0
 37 47  1  0  0  0
 37 66  1  0  0  0
 37108  1  0  0  0
 38 43  2  0  0  0
 38 46  1  0  0  0
 38 47  1  0  0  0
 39 64  1  0  0  0
 39 67  2  0  0  0
 40 52  1  0  0  0
 40 53  2  0  0  0
 40 58  1  0  0  0
 41109  1  0  0  0
 41110  1  0  0  0
 41111  1  0  0  0
 41 48  1  0  0  0
 42 43  1  0  0  0
 42 66  1  0  0  0
 42112  1  0  0  0
 42113  1  0  0  0
 43 44  1  0  0  0
 44114  1  0  0  0
 45 46  2  0  0  0
 45115  1  0  0  0
 46116  1  0  0  0
 47117  1  0  0  0
 47118  1  0  0  0
 48 56  1  0  0  0
 48 65  1  0  0  0
 48119  1  0  0  0
 49 50  1  0  0  0
 49 53  1  0  0  0
 49 64  1  0  0  0
 49120  1  0  0  0
 50 51  1  0  0  0
 50121  1  0  0  0
 50122  1  0  0  0
 51 52  1  0  0  0
 51123  1  0  0  0
 51124  1  0  0  0
 52125  1  0  0  0
 52126  1  0  0  0
 53 54  1  0  0  0
 54 55  2  0  0  0
 54127  1  0  0  0
 55 57  1  0  0  0
 55128  1  0  0  0
 56 69  2  0  0  0
 57 58  2  0  0  0
 57129  1  0  0  0
 58130  1  0  0  0
 59 60  1  0  0  0
 59 61  1  0  0  0
 59 62  1  0  0  0
 60131  1  0  0  0
 60132  1  0  0  0
 60133  1  0  0  0
 61134  1  0  0  0
 61135  1  0  0  0
 61136  1  0  0  0
 62137  1  0  0  0
 62138  1  0  0  0
 62139  1  0  0  0
 63 65  1  0  0  0
 63140  1  0  0  0
 63141  1  0  0  0
 63142  1  0  0  0
 64143  1  0  0  0
 65144  1  0  0  0
 68 80  1  0  0  0
 71 72  1  0  0  0
 71 84  1  0  0  0
 71145  1  0  0  0
 71146  1  0  0  0
 72 73  1  0  0  0
 72 77  1  0  0  0
 72147  1  0  0  0
 73 74  1  0  0  0
 73 75  1  0  0  0
 73148  1  0  0  0
 74 81  1  0  0  0
 74 84  1  0  0  0
 74149  1  0  0  0
 75150  1  0  0  0
 75151  1  0  0  0
 75152  1  0  0  0
 76153  1  0  0  0
 76154  1  0  0  0
 76155  1  0  0  0
 76 82  1  0  0  0
 77 78  1  0  0  0
 77156  1  0  0  0
 77157  1  0  0  0
 78 80  1  0  0  0
 78158  1  0  0  0
 78159  1  0  0  0
 79 82  1  0  0  0
 79 83  1  0  0  0
 79160  1  0  0  0
 79161  1  0  0  0
 80162  1  0  0  0
 80163  1  0  0  0
 81 82  1  0  0  0
 81 85  1  0  0  0
 81164  1  0  0  0
 82165  1  0  0  0
 83166  1  0  0  0
 84167  1  0  0  0
 84168  1  0  0  0
 85169  1  0  0  0
M  CHG  1  84   1
M  ISO  4   1 100  68 101  80 101  83 100
M  END
> <chiral flag>
0

> <version>
0

> <s_m_source_file>
/data/baiqing/PycharmProjects/Reinvent-master-3.2/result/LINK_invent/BTK/process_docking_weight1_custom_sum_contain_oxygen_bond_distance_aromatic_linkinvent_7_9_3/rearranged_h_0119.sdf

> <i_m_source_file_index>
93

> <r_mmod_Potential_Energy-OPLS-2005>
-170.351348876953

> <r_mmod_Stretch_Energy-OPLS-2005>
38.8563461303711

> <r_mmod_Bend_Energy-OPLS-2005>
120.807418823242

> <r_mmod_Torsional_Energy-OPLS-2005>
315.284606933594

> <r_mmod_Improper_Torsional_Energy-OPLS-2005>
1.8186286687851

> <r_mmod_Van_der_Waal_Energy-OPLS-2005>
146.596633911133

> <r_mmod_Electrostatic_Energy-OPLS-2005>
-363.593444824219

> <r_mmod_Solvation_Energy-OPLS-2005>
-440.563751220703

> <b_mmod_Minimization_Converged-OPLS-2005>
0

> <r_mmod_RMS_Derivative-OPLS-2005>
2.91291093826294

$$$$
93
                    3D
 Structure written by MMmdl.
149157  0  0  1  0            999 V2000
  -30.4238  -15.3489   20.3837 C   0  0  0  0  0  0
  -30.4509  -12.8766   19.5269 C   0  0  0  0  0  0
  -29.5443  -12.5745   18.3023 C   0  0  0  0  0  0
  -28.1026  -12.2835   18.7415 C   0  0  0  0  0  0
  -27.6188  -13.2735   19.8247 C   0  0  2  0  0  0
  -28.6482  -13.4803   20.9587 C   0  0  0  0  0  0
  -25.2453  -13.8232   20.5796 C   0  0  0  0  0  0
  -24.1802  -13.0450   20.9240 C   0  0  0  0  0  0
  -24.6466  -11.6926   20.8798 C   0  0  0  0  0  0
  -23.9157  -10.4300   21.0429 C   0  0  0  0  0  0
  -24.3670   -9.4188   21.9192 C   0  0  0  0  0  0
  -23.6326   -8.2235   22.0746 C   0  0  0  0  0  0
  -22.4298   -8.0309   21.3541 C   0  0  0  0  0  0
  -21.9962   -9.0300   20.4635 C   0  0  0  0  0  0
  -22.7326  -10.2164   20.3058 C   0  0  0  0  0  0
  -21.6863   -6.0765   22.5294 C   0  0  0  0  0  0
  -21.4007   -6.5666   23.8224 C   0  0  0  0  0  0
  -21.3636   -5.6811   24.9183 C   0  0  0  0  0  0
  -21.6052   -4.3076   24.7231 C   0  0  0  0  0  0
  -21.8808   -3.8180   23.4346 C   0  0  0  0  0  0
  -21.9198   -4.7000   22.3409 C   0  0  0  0  0  0
  -22.7798  -13.5190   21.1895 C   0  0  0  0  0  0
  -22.1671   -4.2200   21.0980 F   0  0  0  0  0  0
  -21.5634   -3.4540   25.7722 F   0  0  0  0  0  0
  -29.8665  -14.0253   20.3291 N   0  0  0  0  0  0
  -26.2893  -12.9512   20.3252 N   0  0  0  0  0  0
  -25.9400  -11.6624   20.5747 N   0  0  0  0  0  0
  -22.0450  -12.8191   22.0434 N   0  0  0  0  0  0
  -25.4180  -15.1969   20.4302 N   0  0  0  0  0  0
  -31.6445  -15.3168   20.1595 O   0  0  0  0  0  0
  -21.6644   -6.8915   21.4251 O   0  0  0  0  0  0
  -22.3483  -14.5498   20.6734 O   0  0  0  0  0  0
  -24.6610  -31.8160   23.1649 C   0  0  0  0  0  0
  -25.9275  -32.4553   23.8160 C   0  0  1  0  0  0
  -27.2288  -26.8937   20.2288 C   0  0  0  0  0  0
  -25.5934  -33.8375   24.2014 N   0  0  0  0  0  0
  -23.4862  -30.4244   21.4993 C   0  0  2  0  0  0
  -24.9504  -28.7998   20.1172 C   0  0  0  0  0  0
  -22.7610  -29.4481   22.4639 C   0  0  0  0  0  0
  -18.0302  -28.1399   22.8431 C   0  0  0  0  0  0
  -24.1459  -36.7237   23.2651 C   0  0  0  0  0  0
  -26.0511  -30.6321   21.3864 C   0  0  0  0  0  0
  -26.1284  -29.2101   20.7485 C   0  0  0  0  0  0
  -27.2626  -28.2750   20.7781 C   0  0  0  0  0  0
  -26.0291  -26.6571   19.5173 C   0  0  0  0  0  0
  -24.9268  -27.5499   19.4790 C   0  0  0  0  0  0
  -23.7334  -29.7199   20.1336 C   0  0  0  0  0  0
  -25.4108  -36.2958   24.0277 C   0  0  1  0  0  0
  -20.5918  -28.3818   23.1084 C   0  0  2  0  0  0
  -20.6816  -26.9468   22.5408 C   0  0  0  0  0  0
  -19.5790  -26.6175   21.5259 C   0  0  0  0  0  0
  -18.1890  -26.8016   22.1400 C   0  0  0  0  0  0
  -19.1573  -28.8853   23.2851 C   0  0  0  0  0  0
  -18.9536  -30.1315   23.9136 C   0  0  0  0  0  0
  -17.6566  -30.6465   24.0858 C   0  0  0  0  0  0
  -25.9068  -34.9350   23.4989 C   0  0  0  0  0  0
  -16.5420  -29.9085   23.6456 C   0  0  0  0  0  0
  -16.7301  -28.6553   23.0348 C   0  0  0  0  0  0
  -26.4547  -31.6544   25.0717 C   0  0  0  0  0  0
  -25.3702  -31.3804   26.1405 C   0  0  0  0  0  0
  -27.0453  -30.2913   24.6463 C   0  0  0  0  0  0
  -27.6029  -32.4400   25.7524 C   0  0  0  0  0  0
  -27.5538  -37.1785   24.8479 C   0  0  0  0  0  0
  -21.4253  -29.3152   22.3407 N   0  0  0  0  0  0
  -26.4242  -37.3714   23.9419 N   0  0  0  0  0  0
  -24.7526  -30.9845   22.0743 N   0  0  0  0  0  0
  -23.4101  -28.8041   23.2913 O   0  0  0  0  0  0
  -28.2166  -25.7752   20.3984 O   0  0  0  0  0  0
  -26.5714  -34.8931   22.4604 O   0  0  0  0  0  0
  -23.5685  -32.1063   23.6767 O   0  0  0  0  0  0
  -30.5978  -21.1103   19.9287 C   0  0  0  0  0  0
  -28.9710  -19.4918   20.5993 C   0  0  0  0  0  0
  -31.4275  -19.9764   19.7284 C   0  0  0  0  0  0
  -29.2699  -21.0034   20.3934 C   0  0  0  0  0  0
  -29.8831  -18.2525   20.3544 C   0  0  0  0  0  0
  -28.7671  -22.7850   22.2989 C   0  0  0  0  0  0
  -28.1633  -24.1413   20.0233 C   0  0  0  0  0  0
  -28.4551  -22.5136   20.8172 C   0  0  1  0  0  0
  -31.0952  -18.6615   19.9088 N   0  0  0  0  0  0
  -29.6618  -16.6386   20.5216 N   0  0  0  0  0  0
  -31.4580  -13.1051   19.1724 H   0  0  0  0  0  0
  -30.5637  -11.9873   20.1481 H   0  0  0  0  0  0
  -29.9401  -11.7284   17.7367 H   0  0  0  0  0  0
  -29.5453  -13.4262   17.6227 H   0  0  0  0  0  0
  -28.0910  -11.2731   19.1495 H   0  0  0  0  0  0
  -27.4268  -12.2784   17.8854 H   0  0  0  0  0  0
  -27.5265  -14.2282   19.3062 H   0  0  0  0  0  0
  -28.8478  -12.5527   21.4996 H   0  0  0  0  0  0
  -28.2623  -14.1944   21.6896 H   0  0  0  0  0  0
  -25.2806   -9.5664   22.4768 H   0  0  0  0  0  0
  -24.0031   -7.4625   22.7457 H   0  0  0  0  0  0
  -21.0884   -8.8855   19.8944 H   0  0  0  0  0  0
  -22.3808  -10.9716   19.6176 H   0  0  0  0  0  0
  -21.1989   -7.6174   23.9738 H   0  0  0  0  0  0
  -21.1452   -6.0542   25.9084 H   0  0  0  0  0  0
  -22.0604   -2.7653   23.2843 H   0  0  0  0  0  0
  -22.4053  -11.9859   22.4848 H   0  0  0  0  0  0
  -21.1056  -13.1204   22.2584 H   0  0  0  0  0  0
  -24.6509  -15.8524   20.5155 H   0  0  0  0  0  0
  -26.2876  -15.6404   20.1692 H   0  0  0  0  0  0
  -26.7369  -32.5076   23.0909 H   0  0  0  0  0  0
  -25.0002  -33.9401   25.0110 H   0  0  0  0  0  0
  -22.8138  -31.2609   21.3003 H   0  0  0  0  0  0
  -23.3682  -35.9599   23.3279 H   0  0  0  0  0  0
  -24.3539  -36.8919   22.2071 H   0  0  0  0  0  0
  -23.7239  -37.6440   23.6731 H   0  0  0  0  0  0
  -26.2093  -31.3682   20.5949 H   0  0  0  0  0  0
  -26.9214  -30.7212   22.0260 H   0  0  0  0  0  0
  -28.1623  -28.5784   21.2969 H   0  0  0  0  0  0
  -25.8827  -25.7006   19.0366 H   0  0  0  0  0  0
  -24.0197  -27.2310   18.9802 H   0  0  0  0  0  0
  -23.9001  -30.4631   19.3535 H   0  0  0  0  0  0
  -22.8521  -29.1564   19.8146 H   0  0  0  0  0  0
  -25.1281  -36.1764   25.0755 H   0  0  0  0  0  0
  -21.0148  -28.3501   24.1144 H   0  0  0  0  0  0
  -21.6715  -26.7445   22.1277 H   0  0  0  0  0  0
  -20.5679  -26.2556   23.3770 H   0  0  0  0  0  0
  -19.6875  -25.5903   21.1793 H   0  0  0  0  0  0
  -19.6844  -27.2513   20.6451 H   0  0  0  0  0  0
  -17.4317  -26.7025   21.3614 H   0  0  0  0  0  0
  -17.9903  -26.0029   22.8577 H   0  0  0  0  0  0
  -19.8053  -30.6935   24.2734 H   0  0  0  0  0  0
  -17.5224  -31.6015   24.5751 H   0  0  0  0  0  0
  -15.5430  -30.3047   23.7825 H   0  0  0  0  0  0
  -15.8683  -28.0923   22.6977 H   0  0  0  0  0  0
  -24.5946  -30.7057   25.7777 H   0  0  0  0  0  0
  -24.8824  -32.2991   26.4668 H   0  0  0  0  0  0
  -25.7971  -30.9156   27.0307 H   0  0  0  0  0  0
  -26.3154  -29.6594   24.1401 H   0  0  0  0  0  0
  -27.3891  -29.7322   25.5174 H   0  0  0  0  0  0
  -27.9111  -30.4072   23.9953 H   0  0  0  0  0  0
  -27.2583  -33.3754   26.1967 H   0  0  0  0  0  0
  -28.3936  -32.6874   25.0423 H   0  0  0  0  0  0
  -28.0613  -31.8644   26.5571 H   0  0  0  0  0  0
  -28.2572  -38.0063   24.7472 H   0  0  0  0  0  0
  -28.1001  -36.2591   24.6324 H   0  0  0  0  0  0
  -27.2301  -37.1518   25.8902 H   0  0  0  0  0  0
  -20.9487  -29.8800   21.6511 H   0  0  0  0  0  0
  -26.0060  -38.2770   24.1421 H   0  0  0  0  0  0
  -31.0255  -22.0916   19.7577 H   0  0  0  0  0  0
  -27.9847  -19.2767   20.9854 H   0  0  0  0  0  0
  -32.4529  -20.1399   19.4261 H   0  0  0  0  0  0
  -28.4984  -21.9355   22.9318 H   0  0  0  0  0  0
  -28.1939  -23.6365   22.6654 H   0  0  0  0  0  0
  -29.8239  -23.0110   22.4432 H   0  0  0  0  0  0
  -27.1308  -24.0228   19.6957 H   0  0  0  0  0  0
  -28.7124  -24.0780   19.0846 H   0  0  0  0  0  0
  -27.4326  -22.1411   20.8669 H   0  0  0  0  0  0
  -28.7092  -16.4305   20.7742 H   0  0  0  0  0  0
  1 25  1  0  0  0
  1 30  2  0  0  0
  1 80  1  0  0  0
  2  3  1  0  0  0
  2 25  1  0  0  0
  2 81  1  0  0  0
  2 82  1  0  0  0
  3  4  1  0  0  0
  3 83  1  0  0  0
  3 84  1  0  0  0
  4  5  1  0  0  0
  4 85  1  0  0  0
  4 86  1  0  0  0
  5  6  1  0  0  0
  5 26  1  0  0  0
  5 87  1  0  0  0
  6 25  1  0  0  0
  6 88  1  0  0  0
  6 89  1  0  0  0
  7  8  2  0  0  0
  7 26  1  0  0  0
  7 29  1  0  0  0
  8  9  1  0  0  0
  8 22  1  0  0  0
  9 10  1  0  0  0
  9 27  2  0  0  0
 10 11  2  0  0  0
 10 15  1  0  0  0
 11 12  1  0  0  0
 11 90  1  0  0  0
 12 13  2  0  0  0
 12 91  1  0  0  0
 13 14  1  0  0  0
 13 31  1  0  0  0
 14 15  2  0  0  0
 14 92  1  0  0  0
 15 93  1  0  0  0
 16 17  2  0  0  0
 16 21  1  0  0  0
 16 31  1  0  0  0
 17 18  1  0  0  0
 17 94  1  0  0  0
 18 19  2  0  0  0
 18 95  1  0  0  0
 19 20  1  0  0  0
 19 24  1  0  0  0
 20 21  2  0  0  0
 20 96  1  0  0  0
 21 23  1  0  0  0
 22 28  1  0  0  0
 22 32  2  0  0  0
 26 27  1  0  0  0
 28 97  1  0  0  0
 28 98  1  0  0  0
 29 99  1  0  0  0
 29100  1  0  0  0
 33 34  1  0  0  0
 33 66  1  0  0  0
 33 70  2  0  0  0
 34 36  1  0  0  0
 34 59  1  0  0  0
 34101  1  0  0  0
 35 44  2  0  0  0
 35 45  1  0  0  0
 35 68  1  0  0  0
 36 56  1  0  0  0
 36102  1  0  0  0
 37 39  1  0  0  0
 37 47  1  0  0  0
 37 66  1  0  0  0
 37103  1  0  0  0
 38 43  2  0  0  0
 38 46  1  0  0  0
 38 47  1  0  0  0
 39 64  1  0  0  0
 39 67  2  0  0  0
 40 52  1  0  0  0
 40 53  2  0  0  0
 40 58  1  0  0  0
 41104  1  0  0  0
 41105  1  0  0  0
 41106  1  0  0  0
 41 48  1  0  0  0
 42 43  1  0  0  0
 42 66  1  0  0  0
 42107  1  0  0  0
 42108  1  0  0  0
 43 44  1  0  0  0
 44109  1  0  0  0
 45 46  2  0  0  0
 45110  1  0  0  0
 46111  1  0  0  0
 47112  1  0  0  0
 47113  1  0  0  0
 48 56  1  0  0  0
 48 65  1  0  0  0
 48114  1  0  0  0
 49 50  1  0  0  0
 49 53  1  0  0  0
 49 64  1  0  0  0
 49115  1  0  0  0
 50 51  1  0  0  0
 50116  1  0  0  0
 50117  1  0  0  0
 51 52  1  0  0  0
 51118  1  0  0  0
 51119  1  0  0  0
 52120  1  0  0  0
 52121  1  0  0  0
 53 54  1  0  0  0
 54 55  2  0  0  0
 54122  1  0  0  0
 55 57  1  0  0  0
 55123  1  0  0  0
 56 69  2  0  0  0
 57 58  2  0  0  0
 57124  1  0  0  0
 58125  1  0  0  0
 59 60  1  0  0  0
 59 61  1  0  0  0
 59 62  1  0  0  0
 60126  1  0  0  0
 60127  1  0  0  0
 60128  1  0  0  0
 61129  1  0  0  0
 61130  1  0  0  0
 61131  1  0  0  0
 62132  1  0  0  0
 62133  1  0  0  0
 62134  1  0  0  0
 63 65  1  0  0  0
 63135  1  0  0  0
 63136  1  0  0  0
 63137  1  0  0  0
 64138  1  0  0  0
 65139  1  0  0  0
 68 77  1  0  0  0
 71 73  2  0  0  0
 71 74  1  0  0  0
 71140  1  0  0  0
 72 74  2  0  0  0
 72 75  1  0  0  0
 72141  1  0  0  0
 73 79  1  0  0  0
 73142  1  0  0  0
 74 78  1  0  0  0
 75 79  2  0  0  0
 75 80  1  0  0  0
 76143  1  0  0  0
 76144  1  0  0  0
 76145  1  0  0  0
 76 78  1  0  0  0
 77 78  1  0  0  0
 77146  1  0  0  0
 77147  1  0  0  0
 78148  1  0  0  0
 80149  1  0  0  0
M  ISO  4   1 100  68 101  77 101  80 100
M  END
> <chiral flag>
0

> <version>
0

> <s_m_source_file>
/data/baiqing/PycharmProjects/Reinvent-master-3.2/result/LINK_invent/BTK/process_docking_weight1_custom_sum_contain_oxygen_bond_distance_aromatic_linkinvent_7_9_3/rearranged_h_0119.sdf

> <i_m_source_file_index>
94

> <r_mmod_Potential_Energy-OPLS-2005>
1305.13208007812

> <r_mmod_Stretch_Energy-OPLS-2005>
655.605590820312

> <r_mmod_Bend_Energy-OPLS-2005>
471.573699951172

> <r_mmod_Torsional_Energy-OPLS-2005>
230.371185302734

> <r_mmod_Improper_Torsional_Energy-OPLS-2005>
4.49802875518799

> <r_mmod_Van_der_Waal_Energy-OPLS-2005>
125.098823547363

> <r_mmod_Electrostatic_Energy-OPLS-2005>
-475.5732421875

> <r_mmod_Solvation_Energy-OPLS-2005>
-241.698913574219

> <b_mmod_Minimization_Converged-OPLS-2005>
0

> <r_mmod_RMS_Derivative-OPLS-2005>
7.64463138580322

$$$$
94
                    3D
 Structure written by MMmdl.
182191  0  0  1  0            999 V2000
  -30.7129  -14.4541   20.6358 C   0  0  0  0  0  0
  -30.4262  -12.3142   19.4177 C   0  0  0  0  0  0
  -29.4927  -12.5183   18.2068 C   0  0  0  0  0  0
  -28.0139  -12.3824   18.6176 C   0  0  0  0  0  0
  -27.6667  -13.2060   19.8824 C   0  0  2  0  0  0
  -28.7070  -12.9684   21.0007 C   0  0  0  0  0  0
  -25.2620  -13.8156   20.5684 C   0  0  0  0  0  0
  -24.1852  -13.0440   20.9150 C   0  0  0  0  0  0
  -24.6390  -11.6907   20.8719 C   0  0  0  0  0  0
  -23.9041  -10.4299   21.0362 C   0  0  0  0  0  0
  -24.3603   -9.4232   21.9151 C   0  0  0  0  0  0
  -23.6299   -8.2257   22.0741 C   0  0  0  0  0  0
  -22.4280   -8.0284   21.3534 C   0  0  0  0  0  0
  -21.9884   -9.0236   20.4630 C   0  0  0  0  0  0
  -22.7199  -10.2124   20.3023 C   0  0  0  0  0  0
  -21.6854   -6.0716   22.5272 C   0  0  0  0  0  0
  -21.4019   -6.5610   23.8207 C   0  0  0  0  0  0
  -21.3669   -5.6771   24.9174 C   0  0  0  0  0  0
  -21.6056   -4.3041   24.7234 C   0  0  0  0  0  0
  -21.8831   -3.8123   23.4364 C   0  0  0  0  0  0
  -21.9195   -4.6940   22.3414 C   0  0  0  0  0  0
  -22.7880  -13.5241   21.1820 C   0  0  0  0  0  0
  -22.1657   -4.2112   21.1002 F   0  0  0  0  0  0
  -21.5643   -3.4539   25.7744 F   0  0  0  0  0  0
  -30.0465  -13.2759   20.4668 N   0  0  0  0  0  0
  -26.3068  -12.9320   20.3419 N   0  0  0  0  0  0
  -25.9327  -11.6482   20.5784 N   0  0  0  0  0  0
  -22.0497  -12.8258   22.0394 N   0  0  0  0  0  0
  -25.4361  -15.1877   20.4084 N   0  0  0  0  0  0
  -31.7690  -14.7162   20.0512 O   0  0  0  0  0  0
  -21.6670   -6.8865   21.4227 O   0  0  0  0  0  0
  -22.3555  -14.5523   20.6627 O   0  0  0  0  0  0
  -24.6156  -31.8652   23.2094 C   0  0  0  0  0  0
  -25.9055  -32.4806   23.8355 C   0  0  1  0  0  0
  -27.2265  -27.4307   20.0713 C   0  0  0  0  0  0
  -25.5905  -33.8605   24.2267 N   0  0  0  0  0  0
  -23.4007  -30.4872   21.5577 C   0  0  2  0  0  0
  -24.8400  -28.9522   20.1183 C   0  0  0  0  0  0
  -22.7377  -29.4651   22.5067 C   0  0  0  0  0  0
  -18.0252  -28.1352   22.8516 C   0  0  0  0  0  0
  -24.1482  -36.7321   23.2645 C   0  0  0  0  0  0
  -25.9315  -30.8232   21.3641 C   0  0  0  0  0  0
  -26.0023  -29.4598   20.7058 C   0  0  0  0  0  0
  -27.1999  -28.7090   20.6767 C   0  0  0  0  0  0
  -26.0438  -26.9413   19.4737 C   0  0  0  0  0  0
  -24.8509  -27.6883   19.5056 C   0  0  0  0  0  0
  -23.6019  -29.8178   20.1734 C   0  0  0  0  0  0
  -25.4120  -36.3123   24.0333 C   0  0  1  0  0  0
  -20.5836  -28.3624   23.1371 C   0  0  2  0  0  0
  -20.6735  -26.9355   22.5447 C   0  0  0  0  0  0
  -19.5721  -26.6363   21.5236 C   0  0  0  0  0  0
  -18.1904  -26.7906   22.1638 C   0  0  0  0  0  0
  -19.1496  -28.8812   23.2926 C   0  0  0  0  0  0
  -18.9431  -30.1438   23.8906 C   0  0  0  0  0  0
  -17.6435  -30.6585   24.0557 C   0  0  0  0  0  0
  -25.9034  -34.9481   23.5111 C   0  0  0  0  0  0
  -16.5322  -29.9078   23.6355 C   0  0  0  0  0  0
  -16.7241  -28.6493   23.0372 C   0  0  0  0  0  0
  -26.4467  -31.6636   25.0720 C   0  0  0  0  0  0
  -25.3739  -31.3757   26.1486 C   0  0  0  0  0  0
  -27.0290  -30.3078   24.6134 C   0  0  0  0  0  0
  -27.6010  -32.4406   25.7493 C   0  0  0  0  0  0
  -27.5577  -37.1811   24.8453 C   0  0  0  0  0  0
  -21.4113  -29.2996   22.3784 N   0  0  0  0  0  0
  -26.4290  -37.3829   23.9403 N   0  0  0  0  0  0
  -24.6686  -31.0720   22.1022 N   0  0  0  0  0  0
  -23.4163  -28.8176   23.3096 O   0  0  0  0  0  0
  -28.4064  -26.7111   20.0709 O   0  0  0  0  0  0
  -26.5611  -34.8951   22.4673 O   0  0  0  0  0  0
  -23.5366  -32.1407   23.7506 O   0  0  0  0  0  0
  -30.2983  -18.7929   22.8612 C   0  0  0  0  0  0
  -30.3246  -17.3877   22.7846 C   0  0  0  0  0  0
  -30.0692  -17.5341   20.3839 C   0  0  0  0  0  0
  -30.0953  -19.6016   21.7164 C   0  0  0  0  0  0
  -29.9329  -18.9500   20.4528 C   0  0  0  0  0  0
  -30.2340  -16.7395   21.5403 C   0  0  0  0  0  0
  -32.0250  -22.5859   21.6285 C   0  0  0  0  0  0
  -29.5758  -19.6357   19.1251 C   0  0  0  0  0  0
  -29.9743  -21.1182   21.9644 C   0  0  0  0  0  0
  -28.5616  -20.8151   19.1069 C   0  0  0  0  0  0
  -30.4906  -22.2902   19.7876 C   0  0  0  0  0  0
  -33.6886  -24.5864   24.6208 C   0  0  0  0  0  0
  -32.7289  -25.5781   22.5078 C   0  0  0  0  0  0
  -28.8260  -24.7152   18.6639 C   0  0  0  0  0  0
  -28.5660  -23.1958   18.4044 C   0  0  0  0  0  0
  -28.3348  -25.2757   20.0155 C   0  0  0  0  0  0
  -32.2550  -23.0702   23.1005 C   0  0  1  0  0  0
  -33.2513  -24.2803   23.1757 C   0  0  0  0  0  0
  -30.8742  -22.0009   21.1871 N   0  0  0  0  0  0
  -30.1530  -15.3118   21.5092 N   0  0  0  0  0  0
  -29.0507  -22.1979   19.4181 N   0  3  1  0  0  0
  -31.0314  -23.4219   23.8549 N   0  3  0  0  0  0
  -32.9126  -22.8452   20.8095 O   0  0  0  0  0  0
  -31.4691  -12.4242   19.1144 H   0  0  0  0  0  0
  -30.3332  -11.2940   19.7921 H   0  0  0  0  0  0
  -29.7268  -11.7879   17.4316 H   0  0  0  0  0  0
  -29.6737  -13.5027   17.7696 H   0  0  0  0  0  0
  -27.8221  -11.3231   18.7985 H   0  0  0  0  0  0
  -27.3568  -12.6728   17.7953 H   0  0  0  0  0  0
  -27.7191  -14.2605   19.6072 H   0  0  0  0  0  0
  -28.6822  -11.9312   21.3328 H   0  0  0  0  0  0
  -28.4460  -13.5588   21.8797 H   0  0  0  0  0  0
  -25.2729   -9.5731   22.4736 H   0  0  0  0  0  0
  -24.0004   -7.4657   22.7471 H   0  0  0  0  0  0
  -21.0793   -8.8715   19.8959 H   0  0  0  0  0  0
  -22.3594  -10.9649   19.6148 H   0  0  0  0  0  0
  -21.1992   -7.6113   23.9688 H   0  0  0  0  0  0
  -21.1486   -6.0512   25.9073 H   0  0  0  0  0  0
  -22.0596   -2.7573   23.2876 H   0  0  0  0  0  0
  -22.4061  -11.9924   22.4844 H   0  0  0  0  0  0
  -21.1097  -13.1274   22.2542 H   0  0  0  0  0  0
  -24.6750  -15.8503   20.5177 H   0  0  0  0  0  0
  -26.3026  -15.6261   20.1216 H   0  0  0  0  0  0
  -26.7087  -32.5467   23.1054 H   0  0  0  0  0  0
  -25.0008  -33.9742   25.0389 H   0  0  0  0  0  0
  -22.6935  -31.3096   21.4210 H   0  0  0  0  0  0
  -23.3765  -35.9629   23.3327 H   0  0  0  0  0  0
  -24.3563  -36.8929   22.2047 H   0  0  0  0  0  0
  -23.7199  -37.6519   23.6662 H   0  0  0  0  0  0
  -26.0511  -31.5934   20.6014 H   0  0  0  0  0  0
  -26.8165  -30.8637   21.9859 H   0  0  0  0  0  0
  -28.0997  -29.1023   21.1232 H   0  0  0  0  0  0
  -26.0235  -25.9911   18.9587 H   0  0  0  0  0  0
  -23.9534  -27.2918   19.0531 H   0  0  0  0  0  0
  -23.6956  -30.5919   19.4104 H   0  0  0  0  0  0
  -22.7284  -29.2297   19.8871 H   0  0  0  0  0  0
  -25.1302  -36.1985   25.0831 H   0  0  0  0  0  0
  -20.9894  -28.3141   24.1506 H   0  0  0  0  0  0
  -20.5662  -26.2172   23.3598 H   0  0  0  0  0  0
  -21.6600  -26.7406   22.1208 H   0  0  0  0  0  0
  -19.6854  -25.6289   21.1239 H   0  0  0  0  0  0
  -19.6686  -27.3196   20.6798 H   0  0  0  0  0  0
  -17.4158  -26.6677   21.4046 H   0  0  0  0  0  0
  -18.0284  -26.0036   22.9015 H   0  0  0  0  0  0
  -19.7907  -30.7255   24.2247 H   0  0  0  0  0  0
  -17.5000  -31.6285   24.5111 H   0  0  0  0  0  0
  -15.5329  -30.2971   23.7710 H   0  0  0  0  0  0
  -15.8633  -28.0833   22.7083 H   0  0  0  0  0  0
  -24.5866  -30.7149   25.7855 H   0  0  0  0  0  0
  -24.8971  -32.2900   26.5036 H   0  0  0  0  0  0
  -25.8105  -30.8859   27.0192 H   0  0  0  0  0  0
  -26.2800  -29.6862   24.1200 H   0  0  0  0  0  0
  -27.4030  -29.7349   25.4630 H   0  0  0  0  0  0
  -27.8687  -30.4417   23.9305 H   0  0  0  0  0  0
  -27.2570  -33.3672   26.2136 H   0  0  0  0  0  0
  -28.3788  -32.7051   25.0308 H   0  0  0  0  0  0
  -28.0722  -31.8499   26.5358 H   0  0  0  0  0  0
  -28.2618  -38.0090   24.7544 H   0  0  0  0  0  0
  -28.1046  -36.2630   24.6252 H   0  0  0  0  0  0
  -27.2278  -37.1431   25.8848 H   0  0  0  0  0  0
  -20.9245  -29.8689   21.6991 H   0  0  0  0  0  0
  -26.0187  -38.2904   24.1462 H   0  0  0  0  0  0
  -30.3903  -19.2406   23.8416 H   0  0  0  0  0  0
  -30.4065  -16.8112   23.6960 H   0  0  0  0  0  0
  -29.9682  -17.0397   19.4267 H   0  0  0  0  0  0
  -29.0751  -18.8678   18.5321 H   0  0  0  0  0  0
  -30.4772  -19.8329   18.5464 H   0  0  0  0  0  0
  -30.1219  -21.2657   23.0309 H   0  0  0  0  0  0
  -28.9318  -21.4083   21.8258 H   0  0  0  0  0  0
  -27.7029  -20.5879   19.7400 H   0  0  0  0  0  0
  -28.1481  -20.8220   18.0980 H   0  0  0  0  0  0
  -31.1276  -21.7486   19.0907 H   0  0  0  0  0  0
  -30.7792  -23.3232   19.6041 H   0  0  0  0  0  0
  -34.4369  -25.3803   24.6369 H   0  0  0  0  0  0
  -34.1359  -23.7137   25.0995 H   0  0  0  0  0  0
  -32.8549  -24.9203   25.2383 H   0  0  0  0  0  0
  -33.4868  -26.3622   22.5472 H   0  0  0  0  0  0
  -31.8412  -25.9685   23.0061 H   0  0  0  0  0  0
  -32.4838  -25.4364   21.4538 H   0  0  0  0  0  0
  -28.3105  -25.2551   17.8686 H   0  0  0  0  0  0
  -29.8771  -24.9716   18.5206 H   0  0  0  0  0  0
  -28.9772  -22.9311   17.4291 H   0  0  0  0  0  0
  -27.4860  -23.0580   18.3121 H   0  0  0  0  0  0
  -28.9898  -24.9039   20.8022 H   0  0  0  0  0  0
  -27.3494  -24.8823   20.2677 H   0  0  0  0  0  0
  -32.7187  -22.2313   23.6206 H   0  0  0  0  0  0
  -34.1648  -23.9960   22.6493 H   0  0  0  0  0  0
  -29.4457  -14.9082   22.1047 H   0  0  0  0  0  0
  -28.5516  -22.4398   20.2599 H   0  0  0  0  0  0
  -30.4801  -24.1094   23.3755 H   0  0  0  0  0  0
  -31.3030  -23.8112   24.7418 H   0  0  0  0  0  0
  -30.4664  -22.6149   24.0444 H   0  0  0  0  0  0
  1 25  1  0  0  0
  1 30  2  0  0  0
  1 90  1  0  0  0
  2  3  1  0  0  0
  2 25  1  0  0  0
  2 94  1  0  0  0
  2 95  1  0  0  0
  3  4  1  0  0  0
  3 96  1  0  0  0
  3 97  1  0  0  0
  4  5  1  0  0  0
  4 98  1  0  0  0
  4 99  1  0  0  0
  5  6  1  0  0  0
  5 26  1  0  0  0
  5100  1  0  0  0
  6 25  1  0  0  0
  6101  1  0  0  0
  6102  1  0  0  0
  7  8  2  0  0  0
  7 26  1  0  0  0
  7 29  1  0  0  0
  8  9  1  0  0  0
  8 22  1  0  0  0
  9 10  1  0  0  0
  9 27  2  0  0  0
 10 11  2  0  0  0
 10 15  1  0  0  0
 11 12  1  0  0  0
 11103  1  0  0  0
 12 13  2  0  0  0
 12104  1  0  0  0
 13 14  1  0  0  0
 13 31  1  0  0  0
 14 15  2  0  0  0
 14105  1  0  0  0
 15106  1  0  0  0
 16 17  2  0  0  0
 16 21  1  0  0  0
 16 31  1  0  0  0
 17 18  1  0  0  0
 17107  1  0  0  0
 18 19  2  0  0  0
 18108  1  0  0  0
 19 20  1  0  0  0
 19 24  1  0  0  0
 20 21  2  0  0  0
 20109  1  0  0  0
 21 23  1  0  0  0
 22 28  1  0  0  0
 22 32  2  0  0  0
 26 27  1  0  0  0
 28110  1  0  0  0
 28111  1  0  0  0
 29112  1  0  0  0
 29113  1  0  0  0
 33 34  1  0  0  0
 33 66  1  0  0  0
 33 70  2  0  0  0
 34 36  1  0  0  0
 34 59  1  0  0  0
 34114  1  0  0  0
 35 44  2  0  0  0
 35 45  1  0  0  0
 35 68  1  0  0  0
 36 56  1  0  0  0
 36115  1  0  0  0
 37 39  1  0  0  0
 37 47  1  0  0  0
 37 66  1  0  0  0
 37116  1  0  0  0
 38 43  2  0  0  0
 38 46  1  0  0  0
 38 47  1  0  0  0
 39 64  1  0  0  0
 39 67  2  0  0  0
 40 52  1  0  0  0
 40 53  2  0  0  0
 40 58  1  0  0  0
 41117  1  0  0  0
 41118  1  0  0  0
 41119  1  0  0  0
 41 48  1  0  0  0
 42 43  1  0  0  0
 42 66  1  0  0  0
 42120  1  0  0  0
 42121  1  0  0  0
 43 44  1  0  0  0
 44122  1  0  0  0
 45 46  2  0  0  0
 45123  1  0  0  0
 46124  1  0  0  0
 47125  1  0  0  0
 47126  1  0  0  0
 48 56  1  0  0  0
 48 65  1  0  0  0
 48127  1  0  0  0
 49 50  1  0  0  0
 49 53  1  0  0  0
 49 64  1  0  0  0
 49128  1  0  0  0
 50 51  1  0  0  0
 50129  1  0  0  0
 50130  1  0  0  0
 51 52  1  0  0  0
 51131  1  0  0  0
 51132  1  0  0  0
 52133  1  0  0  0
 52134  1  0  0  0
 53 54  1  0  0  0
 54 55  2  0  0  0
 54135  1  0  0  0
 55 57  1  0  0  0
 55136  1  0  0  0
 56 69  2  0  0  0
 57 58  2  0  0  0
 57137  1  0  0  0
 58138  1  0  0  0
 59 60  1  0  0  0
 59 61  1  0  0  0
 59 62  1  0  0  0
 60139  1  0  0  0
 60140  1  0  0  0
 60141  1  0  0  0
 61142  1  0  0  0
 61143  1  0  0  0
 61144  1  0  0  0
 62145  1  0  0  0
 62146  1  0  0  0
 62147  1  0  0  0
 63 65  1  0  0  0
 63148  1  0  0  0
 63149  1  0  0  0
 63150  1  0  0  0
 64151  1  0  0  0
 65152  1  0  0  0
 68 86  1  0  0  0
 71 72  2  0  0  0
 71 74  1  0  0  0
 71153  1  0  0  0
 72 76  1  0  0  0
 72154  1  0  0  0
 73 75  1  0  0  0
 73 76  2  0  0  0
 73155  1  0  0  0
 74 75  2  0  0  0
 74 79  1  0  0  0
 75 78  1  0  0  0
 76 90  1  0  0  0
 77 87  1  0  0  0
 77 89  1  0  0  0
 77 93  2  0  0  0
 78 80  1  0  0  0
 78156  1  0  0  0
 78157  1  0  0  0
 79 89  1  0  0  0
 79158  1  0  0  0
 79159  1  0  0  0
 80 91  1  0  0  0
 80160  1  0  0  0
 80161  1  0  0  0
 81 89  1  0  0  0
 81 91  1  0  0  0
 81162  1  0  0  0
 81163  1  0  0  0
 82164  1  0  0  0
 82165  1  0  0  0
 82166  1  0  0  0
 82 88  1  0  0  0
 83 88  1  0  0  0
 83167  1  0  0  0
 83168  1  0  0  0
 83169  1  0  0  0
 84 85  1  0  0  0
 84 86  1  0  0  0
 84170  1  0  0  0
 84171  1  0  0  0
 85172  1  0  0  0
 85173  1  0  0  0
 85 91  1  0  0  0
 86174  1  0  0  0
 86175  1  0  0  0
 87 88  1  0  0  0
 87 92  1  0  0  0
 87176  1  0  0  0
 88177  1  0  0  0
 90178  1  0  0  0
 91179  1  0  0  0
 92180  1  0  0  0
 92181  1  0  0  0
 92182  1  0  0  0
M  CHG  2  91   1  92   1
M  ISO  4   1 100  68 101  86 101  90 100
M  END
> <chiral flag>
0

> <version>
0

> <s_m_source_file>
/data/baiqing/PycharmProjects/Reinvent-master-3.2/result/LINK_invent/BTK/process_docking_weight1_custom_sum_contain_oxygen_bond_distance_aromatic_linkinvent_7_9_3/rearranged_h_0119.sdf

> <i_m_source_file_index>
95

> <r_mmod_Potential_Energy-OPLS-2005>
-322.396179199219

> <r_mmod_Stretch_Energy-OPLS-2005>
54.5777740478516

> <r_mmod_Bend_Energy-OPLS-2005>
163.083984375

> <r_mmod_Torsional_Energy-OPLS-2005>
320.192962646484

> <r_mmod_Improper_Torsional_Energy-OPLS-2005>
4.05130386352539

> <r_mmod_Van_der_Waal_Energy-OPLS-2005>
181.372421264648

> <r_mmod_Electrostatic_Energy-OPLS-2005>
-36.969425201416

> <r_mmod_Solvation_Energy-OPLS-2005>
-1019.90557861328

> <b_mmod_Minimization_Converged-OPLS-2005>
0

> <r_mmod_RMS_Derivative-OPLS-2005>
4.51915884017944

$$$$
95
                    3D
 Structure written by MMmdl.
164172  0  0  1  0            999 V2000
  -30.7547  -14.4534   20.6325 C   0  0  0  0  0  0
  -30.4162  -12.3239   19.4186 C   0  0  0  0  0  0
  -29.4818  -12.4871   18.2038 C   0  0  0  0  0  0
  -28.0074  -12.3430   18.6269 C   0  0  0  0  0  0
  -27.6538  -13.2000   19.8671 C   0  0  2  0  0  0
  -28.6969  -13.0141   20.9924 C   0  0  0  0  0  0
  -25.2580  -13.8157   20.5726 C   0  0  0  0  0  0
  -24.1828  -13.0438   20.9224 C   0  0  0  0  0  0
  -24.6374  -11.6905   20.8783 C   0  0  0  0  0  0
  -23.9043  -10.4294   21.0433 C   0  0  0  0  0  0
  -24.3600   -9.4213   21.9209 C   0  0  0  0  0  0
  -23.6284   -8.2244   22.0754 C   0  0  0  0  0  0
  -22.4271   -8.0288   21.3540 C   0  0  0  0  0  0
  -21.9910   -9.0260   20.4640 C   0  0  0  0  0  0
  -22.7229  -10.2145   20.3060 C   0  0  0  0  0  0
  -21.6853   -6.0745   22.5278 C   0  0  0  0  0  0
  -21.4007   -6.5640   23.8211 C   0  0  0  0  0  0
  -21.3653   -5.6797   24.9178 C   0  0  0  0  0  0
  -21.6041   -4.3058   24.7227 C   0  0  0  0  0  0
  -21.8822   -3.8148   23.4347 C   0  0  0  0  0  0
  -21.9193   -4.6970   22.3406 C   0  0  0  0  0  0
  -22.7856  -13.5242   21.1895 C   0  0  0  0  0  0
  -22.1664   -4.2153   21.0984 F   0  0  0  0  0  0
  -21.5631   -3.4540   25.7740 F   0  0  0  0  0  0
  -30.0289  -13.3137   20.4405 N   0  0  0  0  0  0
  -26.2984  -12.9307   20.3368 N   0  0  0  0  0  0
  -25.9296  -11.6479   20.5817 N   0  0  0  0  0  0
  -22.0486  -12.8212   22.0432 N   0  0  0  0  0  0
  -25.4304  -15.1878   20.4109 N   0  0  0  0  0  0
  -31.8408  -14.6369   20.0734 O   0  0  0  0  0  0
  -21.6631   -6.8892   21.4237 O   0  0  0  0  0  0
  -22.3557  -14.5576   20.6789 O   0  0  0  0  0  0
  -24.6171  -31.8662   23.2095 C   0  0  0  0  0  0
  -25.9058  -32.4808   23.8382 C   0  0  1  0  0  0
  -27.2216  -27.4232   20.0918 C   0  0  0  0  0  0
  -25.5914  -33.8614   24.2321 N   0  0  0  0  0  0
  -23.4031  -30.4959   21.5499 C   0  0  2  0  0  0
  -24.8440  -28.9681   20.1086 C   0  0  0  0  0  0
  -22.7416  -29.4665   22.4948 C   0  0  0  0  0  0
  -18.0281  -28.1388   22.8504 C   0  0  0  0  0  0
  -24.1480  -36.7289   23.2642 C   0  0  0  0  0  0
  -25.9347  -30.8331   21.3602 C   0  0  0  0  0  0
  -26.0090  -29.4698   20.7028 C   0  0  0  0  0  0
  -27.2016  -28.7076   20.6888 C   0  0  0  0  0  0
  -26.0324  -26.9485   19.4839 C   0  0  0  0  0  0
  -24.8513  -27.7066   19.4966 C   0  0  0  0  0  0
  -23.6093  -29.8368   20.1606 C   0  0  0  0  0  0
  -25.4101  -36.3100   24.0349 C   0  0  1  0  0  0
  -20.5880  -28.3663   23.1305 C   0  0  2  0  0  0
  -20.6780  -26.9392   22.5408 C   0  0  0  0  0  0
  -19.5751  -26.6388   21.5209 C   0  0  0  0  0  0
  -18.1927  -26.7942   22.1612 C   0  0  0  0  0  0
  -19.1540  -28.8840   23.2910 C   0  0  0  0  0  0
  -18.9463  -30.1446   23.8903 C   0  0  0  0  0  0
  -17.6468  -30.6594   24.0575 C   0  0  0  0  0  0
  -25.9036  -34.9472   23.5131 C   0  0  0  0  0  0
  -16.5356  -29.9102   23.6341 C   0  0  0  0  0  0
  -16.7269  -28.6524   23.0351 C   0  0  0  0  0  0
  -26.4485  -31.6596   25.0713 C   0  0  0  0  0  0
  -25.3768  -31.3703   26.1471 C   0  0  0  0  0  0
  -27.0320  -30.3056   24.6055 C   0  0  0  0  0  0
  -27.6040  -32.4325   25.7498 C   0  0  0  0  0  0
  -27.5573  -37.1793   24.8467 C   0  0  0  0  0  0
  -21.4147  -29.3038   22.3705 N   0  0  0  0  0  0
  -26.4277  -37.3789   23.9434 N   0  0  0  0  0  0
  -24.6703  -31.0791   22.0974 N   0  0  0  0  0  0
  -23.4207  -28.8192   23.2971 O   0  0  0  0  0  0
  -28.3775  -26.6615   20.1243 O   0  0  0  0  0  0
  -26.5579  -34.8934   22.4678 O   0  0  0  0  0  0
  -23.5368  -32.1384   23.7512 O   0  0  0  0  0  0
  -30.0970  -19.6131   19.6424 C   0  0  0  0  0  0
  -29.8379  -18.2372   19.8172 C   0  0  0  0  0  0
  -29.5215  -17.7545   21.1172 C   0  0  0  0  0  0
  -30.0259  -20.4818   20.7446 C   0  0  0  0  0  0
  -29.4537  -18.7195   22.1616 C   0  0  0  0  0  0
  -29.8863  -17.3260   18.5997 C   0  0  0  0  0  0
  -29.0972  -18.3646   23.5952 C   0  0  0  0  0  0
  -31.2459  -15.7158   22.6436 C   0  0  0  0  0  0
  -29.1913  -16.2580   21.3617 C   0  0  0  0  0  0
  -30.3467  -21.9725   20.6137 C   0  0  0  0  0  0
  -29.1082  -22.8805   20.4391 C   0  0  0  0  0  0
  -29.4203  -24.4020   20.4206 C   0  0  0  0  0  0
  -28.1894  -25.2381   20.0230 C   0  0  0  0  0  0
  -29.6973  -20.0359   21.9730 N   0  0  0  0  0  0
  -30.3213  -15.3235   21.5787 N   0  0  0  0  0  0
  -31.4556  -12.4258   19.1022 H   0  0  0  0  0  0
  -30.3374  -11.3178   19.8343 H   0  0  0  0  0  0
  -29.7214  -11.7391   17.4470 H   0  0  0  0  0  0
  -29.6411  -13.4585   17.7340 H   0  0  0  0  0  0
  -27.8258  -11.2897   18.8442 H   0  0  0  0  0  0
  -27.3479  -12.5991   17.7968 H   0  0  0  0  0  0
  -27.6804  -14.2329   19.5306 H   0  0  0  0  0  0
  -28.6804  -11.9881   21.3631 H   0  0  0  0  0  0
  -28.4432  -13.6325   21.8531 H   0  0  0  0  0  0
  -25.2741   -9.5699   22.4794 H   0  0  0  0  0  0
  -23.9995   -7.4628   22.7461 H   0  0  0  0  0  0
  -21.0856   -8.8782   19.8932 H   0  0  0  0  0  0
  -22.3700  -10.9695   19.6166 H   0  0  0  0  0  0
  -21.1991   -7.6148   23.9720 H   0  0  0  0  0  0
  -21.1468   -6.0525   25.9085 H   0  0  0  0  0  0
  -22.0606   -2.7609   23.2843 H   0  0  0  0  0  0
  -22.4070  -11.9823   22.4745 H   0  0  0  0  0  0
  -21.1116  -13.1254   22.2678 H   0  0  0  0  0  0
  -24.6647  -15.8437   20.5252 H   0  0  0  0  0  0
  -26.2757  -15.6258   20.0681 H   0  0  0  0  0  0
  -26.7124  -32.5506   23.1141 H   0  0  0  0  0  0
  -25.0137  -33.9768   25.0515 H   0  0  0  0  0  0
  -22.6950  -31.3159   21.4163 H   0  0  0  0  0  0
  -23.3753  -35.9605   23.3295 H   0  0  0  0  0  0
  -24.3581  -36.8901   22.2056 H   0  0  0  0  0  0
  -23.7223  -37.6494   23.6647 H   0  0  0  0  0  0
  -26.0534  -31.6018   20.5939 H   0  0  0  0  0  0
  -26.8226  -30.8772   21.9798 H   0  0  0  0  0  0
  -28.0994  -29.0920   21.1521 H   0  0  0  0  0  0
  -25.9875  -25.9878   18.9931 H   0  0  0  0  0  0
  -23.9542  -27.3149   19.0354 H   0  0  0  0  0  0
  -23.7222  -30.6165   19.4062 H   0  0  0  0  0  0
  -22.7313  -29.2622   19.8592 H   0  0  0  0  0  0
  -25.1280  -36.1924   25.0839 H   0  0  0  0  0  0
  -20.9990  -28.3203   24.1415 H   0  0  0  0  0  0
  -20.5684  -26.2251   23.3588 H   0  0  0  0  0  0
  -21.6647  -26.7430   22.1184 H   0  0  0  0  0  0
  -19.6911  -25.6305   21.1219 H   0  0  0  0  0  0
  -19.6717  -27.3220   20.6759 H   0  0  0  0  0  0
  -17.4213  -26.6705   21.3998 H   0  0  0  0  0  0
  -18.0315  -26.0086   22.9000 H   0  0  0  0  0  0
  -19.7941  -30.7274   24.2252 H   0  0  0  0  0  0
  -17.5032  -31.6269   24.5184 H   0  0  0  0  0  0
  -15.5359  -30.3016   23.7680 H   0  0  0  0  0  0
  -15.8663  -28.0859   22.7038 H   0  0  0  0  0  0
  -24.5959  -30.7008   25.7844 H   0  0  0  0  0  0
  -24.8939  -32.2861   26.4892 H   0  0  0  0  0  0
  -25.8163  -30.8926   27.0238 H   0  0  0  0  0  0
  -26.2843  -29.6824   24.1143 H   0  0  0  0  0  0
  -27.4170  -29.7271   25.4459 H   0  0  0  0  0  0
  -27.8644  -30.4414   23.9152 H   0  0  0  0  0  0
  -27.2625  -33.3630   26.2051 H   0  0  0  0  0  0
  -28.3888  -32.6874   25.0361 H   0  0  0  0  0  0
  -28.0664  -31.8463   26.5448 H   0  0  0  0  0  0
  -28.2569  -38.0112   24.7544 H   0  0  0  0  0  0
  -28.1090  -36.2648   24.6243 H   0  0  0  0  0  0
  -27.2303  -37.1383   25.8871 H   0  0  0  0  0  0
  -20.9276  -29.8785   21.6962 H   0  0  0  0  0  0
  -26.0148  -38.2848   24.1474 H   0  0  0  0  0  0
  -30.3535  -20.0069   18.6666 H   0  0  0  0  0  0
  -30.7224  -16.6318   18.6669 H   0  0  0  0  0  0
  -28.9631  -16.7587   18.4860 H   0  0  0  0  0  0
  -30.0191  -17.8998   17.6817 H   0  0  0  0  0  0
  -28.1948  -17.7592   23.6522 H   0  0  0  0  0  0
  -28.9108  -19.2614   24.1877 H   0  0  0  0  0  0
  -29.9152  -17.8316   24.0745 H   0  0  0  0  0  0
  -30.7098  -15.8061   23.5868 H   0  0  0  0  0  0
  -31.7313  -16.6649   22.4187 H   0  0  0  0  0  0
  -32.0266  -14.9685   22.8016 H   0  0  0  0  0  0
  -28.5885  -15.9177   20.5257 H   0  0  0  0  0  0
  -28.5188  -16.1553   22.2116 H   0  0  0  0  0  0
  -31.0213  -22.1179   19.7709 H   0  0  0  0  0  0
  -30.9039  -22.2799   21.4993 H   0  0  0  0  0  0
  -28.4015  -22.6755   21.2444 H   0  0  0  0  0  0
  -28.6020  -22.6027   19.5148 H   0  0  0  0  0  0
  -30.2316  -24.6106   19.7229 H   0  0  0  0  0  0
  -29.7677  -24.7132   21.4055 H   0  0  0  0  0  0
  -27.3585  -24.9361   20.6650 H   0  0  0  0  0  0
  -27.9210  -24.9783   18.9989 H   0  0  0  0  0  0
  1 25  1  0  0  0
  1 30  2  0  0  0
  1 85  1  0  0  0
  2  3  1  0  0  0
  2 25  1  0  0  0
  2 86  1  0  0  0
  2 87  1  0  0  0
  3  4  1  0  0  0
  3 88  1  0  0  0
  3 89  1  0  0  0
  4  5  1  0  0  0
  4 90  1  0  0  0
  4 91  1  0  0  0
  5  6  1  0  0  0
  5 26  1  0  0  0
  5 92  1  0  0  0
  6 25  1  0  0  0
  6 93  1  0  0  0
  6 94  1  0  0  0
  7  8  2  0  0  0
  7 26  1  0  0  0
  7 29  1  0  0  0
  8  9  1  0  0  0
  8 22  1  0  0  0
  9 10  1  0  0  0
  9 27  2  0  0  0
 10 11  2  0  0  0
 10 15  1  0  0  0
 11 12  1  0  0  0
 11 95  1  0  0  0
 12 13  2  0  0  0
 12 96  1  0  0  0
 13 14  1  0  0  0
 13 31  1  0  0  0
 14 15  2  0  0  0
 14 97  1  0  0  0
 15 98  1  0  0  0
 16 17  2  0  0  0
 16 21  1  0  0  0
 16 31  1  0  0  0
 17 18  1  0  0  0
 17 99  1  0  0  0
 18 19  2  0  0  0
 18100  1  0  0  0
 19 20  1  0  0  0
 19 24  1  0  0  0
 20 21  2  0  0  0
 20101  1  0  0  0
 21 23  1  0  0  0
 22 28  1  0  0  0
 22 32  2  0  0  0
 26 27  1  0  0  0
 28102  1  0  0  0
 28103  1  0  0  0
 29104  1  0  0  0
 29105  1  0  0  0
 33 34  1  0  0  0
 33 66  1  0  0  0
 33 70  2  0  0  0
 34 36  1  0  0  0
 34 59  1  0  0  0
 34106  1  0  0  0
 35 44  2  0  0  0
 35 45  1  0  0  0
 35 68  1  0  0  0
 36 56  1  0  0  0
 36107  1  0  0  0
 37 39  1  0  0  0
 37 47  1  0  0  0
 37 66  1  0  0  0
 37108  1  0  0  0
 38 43  2  0  0  0
 38 46  1  0  0  0
 38 47  1  0  0  0
 39 64  1  0  0  0
 39 67  2  0  0  0
 40 52  1  0  0  0
 40 53  2  0  0  0
 40 58  1  0  0  0
 41109  1  0  0  0
 41110  1  0  0  0
 41111  1  0  0  0
 41 48  1  0  0  0
 42 43  1  0  0  0
 42 66  1  0  0  0
 42112  1  0  0  0
 42113  1  0  0  0
 43 44  1  0  0  0
 44114  1  0  0  0
 45 46  2  0  0  0
 45115  1  0  0  0
 46116  1  0  0  0
 47117  1  0  0  0
 47118  1  0  0  0
 48 56  1  0  0  0
 48 65  1  0  0  0
 48119  1  0  0  0
 49 50  1  0  0  0
 49 53  1  0  0  0
 49 64  1  0  0  0
 49120  1  0  0  0
 50 51  1  0  0  0
 50121  1  0  0  0
 50122  1  0  0  0
 51 52  1  0  0  0
 51123  1  0  0  0
 51124  1  0  0  0
 52125  1  0  0  0
 52126  1  0  0  0
 53 54  1  0  0  0
 54 55  2  0  0  0
 54127  1  0  0  0
 55 57  1  0  0  0
 55128  1  0  0  0
 56 69  2  0  0  0
 57 58  2  0  0  0
 57129  1  0  0  0
 58130  1  0  0  0
 59 60  1  0  0  0
 59 61  1  0  0  0
 59 62  1  0  0  0
 60131  1  0  0  0
 60132  1  0  0  0
 60133  1  0  0  0
 61134  1  0  0  0
 61135  1  0  0  0
 61136  1  0  0  0
 62137  1  0  0  0
 62138  1  0  0  0
 62139  1  0  0  0
 63 65  1  0  0  0
 63140  1  0  0  0
 63141  1  0  0  0
 63142  1  0  0  0
 64143  1  0  0  0
 65144  1  0  0  0
 68 83  1  0  0  0
 71 72  2  0  0  0
 71 74  1  0  0  0
 71145  1  0  0  0
 72 73  1  0  0  0
 72 76  1  0  0  0
 73 75  2  0  0  0
 73 79  1  0  0  0
 74 80  1  0  0  0
 74 84  2  0  0  0
 75 77  1  0  0  0
 75 84  1  0  0  0
 76146  1  0  0  0
 76147  1  0  0  0
 76148  1  0  0  0
 77149  1  0  0  0
 77150  1  0  0  0
 77151  1  0  0  0
 78 85  1  0  0  0
 78152  1  0  0  0
 78153  1  0  0  0
 78154  1  0  0  0
 79 85  1  0  0  0
 79155  1  0  0  0
 79156  1  0  0  0
 80 81  1  0  0  0
 80157  1  0  0  0
 80158  1  0  0  0
 81 82  1  0  0  0
 81159  1  0  0  0
 81160  1  0  0  0
 82 83  1  0  0  0
 82161  1  0  0  0
 82162  1  0  0  0
 83163  1  0  0  0
 83164  1  0  0  0
M  ISO  4   1 100  68 101  83 101  85 100
M  END
> <chiral flag>
0

> <version>
0

> <s_m_source_file>
/data/baiqing/PycharmProjects/Reinvent-master-3.2/result/LINK_invent/BTK/process_docking_weight1_custom_sum_contain_oxygen_bond_distance_aromatic_linkinvent_7_9_3/rearranged_h_0119.sdf

> <i_m_source_file_index>
96

> <r_mmod_Potential_Energy-OPLS-2005>
-68.057991027832

> <r_mmod_Stretch_Energy-OPLS-2005>
41.7450523376465

> <r_mmod_Bend_Energy-OPLS-2005>
99.6353378295898

> <r_mmod_Torsional_Energy-OPLS-2005>
259.121551513672

> <r_mmod_Improper_Torsional_Energy-OPLS-2005>
4.33379411697388

> <r_mmod_Van_der_Waal_Energy-OPLS-2005>
155.614013671875

> <r_mmod_Electrostatic_Energy-OPLS-2005>
-433.999725341797

> <r_mmod_Solvation_Energy-OPLS-2005>
-208.614196777344

> <b_mmod_Minimization_Converged-OPLS-2005>
0

> <r_mmod_RMS_Derivative-OPLS-2005>
2.49886298179626

$$$$
96
                    3D
 Structure written by MMmdl.
164172  0  0  1  0            999 V2000
  -30.6609  -14.4775   20.6513 C   0  0  0  0  0  0
  -30.4394  -12.3403   19.4099 C   0  0  0  0  0  0
  -29.5154  -12.5719   18.1974 C   0  0  0  0  0  0
  -28.0289  -12.4226   18.5852 C   0  0  0  0  0  0
  -27.6636  -13.2103   19.8735 C   0  0  2  0  0  0
  -28.6938  -12.9357   20.9864 C   0  0  0  0  0  0
  -25.2607  -13.8098   20.5595 C   0  0  0  0  0  0
  -24.1877  -13.0379   20.9124 C   0  0  0  0  0  0
  -24.6414  -11.6855   20.8596 C   0  0  0  0  0  0
  -23.9085  -10.4255   21.0304 C   0  0  0  0  0  0
  -24.3626   -9.4222   21.9127 C   0  0  0  0  0  0
  -23.6320   -8.2264   22.0723 C   0  0  0  0  0  0
  -22.4299   -8.0273   21.3526 C   0  0  0  0  0  0
  -21.9912   -9.0224   20.4601 C   0  0  0  0  0  0
  -22.7235  -10.2113   20.2994 C   0  0  0  0  0  0
  -21.6882   -6.0709   22.5268 C   0  0  0  0  0  0
  -21.4023   -6.5616   23.8191 C   0  0  0  0  0  0
  -21.3686   -5.6787   24.9159 C   0  0  0  0  0  0
  -21.6080   -4.3046   24.7215 C   0  0  0  0  0  0
  -21.8838   -3.8122   23.4329 C   0  0  0  0  0  0
  -21.9209   -4.6934   22.3380 C   0  0  0  0  0  0
  -22.7930  -13.5185   21.1858 C   0  0  0  0  0  0
  -22.1695   -4.2128   21.0959 F   0  0  0  0  0  0
  -21.5647   -3.4527   25.7718 F   0  0  0  0  0  0
  -30.0246  -13.2878   20.4540 N   0  0  0  0  0  0
  -26.3035  -12.9276   20.3233 N   0  0  0  0  0  0
  -25.9327  -11.6423   20.5541 N   0  0  0  0  0  0
  -22.0626  -12.8114   22.0392 N   0  0  0  0  0  0
  -25.4299  -15.1821   20.4073 N   0  0  0  0  0  0
  -31.7802  -14.7266   20.1946 O   0  0  0  0  0  0
  -21.6682   -6.8862   21.4232 O   0  0  0  0  0  0
  -22.3584  -14.5506   20.6767 O   0  0  0  0  0  0
  -24.6173  -31.8649   23.2093 C   0  0  0  0  0  0
  -25.9050  -32.4818   23.8429 C   0  0  1  0  0  0
  -27.2336  -27.4224   20.1057 C   0  0  0  0  0  0
  -25.5914  -33.8620   24.2323 N   0  0  0  0  0  0
  -23.4070  -30.4863   21.5540 C   0  0  2  0  0  0
  -24.8490  -28.9508   20.1175 C   0  0  0  0  0  0
  -22.7439  -29.4602   22.5037 C   0  0  0  0  0  0
  -18.0257  -28.1357   22.8502 C   0  0  0  0  0  0
  -24.1469  -36.7313   23.2652 C   0  0  0  0  0  0
  -25.9369  -30.8313   21.3586 C   0  0  0  0  0  0
  -26.0106  -29.4630   20.7109 C   0  0  0  0  0  0
  -27.2062  -28.7095   20.6930 C   0  0  0  0  0  0
  -26.0544  -26.9234   19.5109 C   0  0  0  0  0  0
  -24.8678  -27.6812   19.5136 C   0  0  0  0  0  0
  -23.6140  -29.8195   20.1676 C   0  0  0  0  0  0
  -25.4094  -36.3100   24.0334 C   0  0  1  0  0  0
  -20.5858  -28.3620   23.1361 C   0  0  2  0  0  0
  -20.6736  -26.9363   22.5436 C   0  0  0  0  0  0
  -19.5719  -26.6369   21.5223 C   0  0  0  0  0  0
  -18.1900  -26.7912   22.1630 C   0  0  0  0  0  0
  -19.1521  -28.8805   23.2925 C   0  0  0  0  0  0
  -18.9442  -30.1412   23.8917 C   0  0  0  0  0  0
  -17.6447  -30.6565   24.0551 C   0  0  0  0  0  0
  -25.9037  -34.9473   23.5134 C   0  0  0  0  0  0
  -16.5330  -29.9056   23.6329 C   0  0  0  0  0  0
  -16.7251  -28.6471   23.0365 C   0  0  0  0  0  0
  -26.4440  -31.6625   25.0788 C   0  0  0  0  0  0
  -25.3700  -31.3671   26.1527 C   0  0  0  0  0  0
  -27.0274  -30.3092   24.6152 C   0  0  0  0  0  0
  -27.6054  -32.4301   25.7516 C   0  0  0  0  0  0
  -27.5539  -37.1801   24.8469 C   0  0  0  0  0  0
  -21.4147  -29.3004   22.3793 N   0  0  0  0  0  0
  -26.4248  -37.3812   23.9429 N   0  0  0  0  0  0
  -24.6725  -31.0787   22.0981 N   0  0  0  0  0  0
  -23.4200  -28.8123   23.3050 O   0  0  0  0  0  0
  -28.3996  -26.6859   20.0903 O   0  0  0  0  0  0
  -26.5627  -34.8916   22.4690 O   0  0  0  0  0  0
  -23.5345  -32.1356   23.7497 O   0  0  0  0  0  0
  -32.1655  -19.6301   20.6440 C   0  0  0  0  0  0
  -31.0596  -20.3164   20.1160 C   0  0  0  0  0  0
  -31.9560  -18.3825   21.2505 C   0  0  0  0  0  0
  -29.7756  -19.7453   20.2284 C   0  0  0  0  0  0
  -30.6535  -17.8539   21.3052 C   0  0  0  0  0  0
  -26.2373  -21.4661   21.8760 C   0  0  0  0  0  0
  -28.5503  -20.4534   19.6235 C   0  0  0  0  0  0
  -30.4050  -16.5584   22.0781 C   0  0  0  0  0  0
  -27.7011  -21.8879   21.6453 C   0  0  0  0  0  0
  -28.5445  -24.2844   19.4061 C   0  0  0  0  0  0
  -28.3295  -25.3196   20.5460 C   0  0  0  0  0  0
  -28.1216  -21.8701   20.1529 C   0  0  1  0  0  0
  -29.5835  -18.5247   20.8055 N   0  0  0  0  0  0
  -29.9404  -15.3820   21.3354 N   0  0  0  0  0  0
  -29.0981  -22.9568   19.8381 N   0  3  0  0  0  0
  -31.4879  -12.4683   19.1332 H   0  0  0  0  0  0
  -30.3514  -11.3123   19.7671 H   0  0  0  0  0  0
  -29.7736  -11.8909   17.3861 H   0  0  0  0  0  0
  -29.6874  -13.5777   17.8120 H   0  0  0  0  0  0
  -27.8247  -11.3590   18.7201 H   0  0  0  0  0  0
  -27.4062  -12.7618   17.7590 H   0  0  0  0  0  0
  -27.7157  -14.2716   19.6332 H   0  0  0  0  0  0
  -28.6715  -11.8789   21.2597 H   0  0  0  0  0  0
  -28.4327  -13.4689   21.9013 H   0  0  0  0  0  0
  -25.2790   -9.5724   22.4653 H   0  0  0  0  0  0
  -24.0057   -7.4661   22.7425 H   0  0  0  0  0  0
  -21.0869   -8.8718   19.8878 H   0  0  0  0  0  0
  -22.3689  -10.9631   19.6082 H   0  0  0  0  0  0
  -21.2005   -7.6124   23.9677 H   0  0  0  0  0  0
  -21.1530   -6.0514   25.9074 H   0  0  0  0  0  0
  -22.0591   -2.7580   23.2828 H   0  0  0  0  0  0
  -22.4316  -11.9752   22.4673 H   0  0  0  0  0  0
  -21.1226  -13.1029   22.2628 H   0  0  0  0  0  0
  -24.6516  -15.8257   20.5047 H   0  0  0  0  0  0
  -26.2821  -15.6235   20.0840 H   0  0  0  0  0  0
  -26.7136  -32.5465   23.1202 H   0  0  0  0  0  0
  -25.0057  -33.9828   25.0468 H   0  0  0  0  0  0
  -22.6983  -31.3024   21.4165 H   0  0  0  0  0  0
  -23.3724  -35.9656   23.3313 H   0  0  0  0  0  0
  -24.3544  -36.8931   22.2063 H   0  0  0  0  0  0
  -23.7222  -37.6512   23.6670 H   0  0  0  0  0  0
  -26.0538  -31.5923   20.5844 H   0  0  0  0  0  0
  -26.8275  -30.8814   21.9757 H   0  0  0  0  0  0
  -28.1023  -29.1114   21.1456 H   0  0  0  0  0  0
  -26.0426  -25.9482   19.0469 H   0  0  0  0  0  0
  -23.9762  -27.2774   19.0520 H   0  0  0  0  0  0
  -23.7182  -30.5987   19.4131 H   0  0  0  0  0  0
  -22.7415  -29.2377   19.8669 H   0  0  0  0  0  0
  -25.1248  -36.1970   25.0829 H   0  0  0  0  0  0
  -20.9908  -28.3112   24.1498 H   0  0  0  0  0  0
  -20.5635  -26.2206   23.3607 H   0  0  0  0  0  0
  -21.6603  -26.7407   22.1221 H   0  0  0  0  0  0
  -19.6884  -25.6284   21.1234 H   0  0  0  0  0  0
  -19.6671  -27.3205   20.6779 H   0  0  0  0  0  0
  -17.4179  -26.6680   21.4021 H   0  0  0  0  0  0
  -18.0268  -26.0052   22.9022 H   0  0  0  0  0  0
  -19.7928  -30.7216   24.2310 H   0  0  0  0  0  0
  -17.5011  -31.6275   24.5099 H   0  0  0  0  0  0
  -15.5329  -30.2961   23.7667 H   0  0  0  0  0  0
  -15.8649  -28.0789   22.7091 H   0  0  0  0  0  0
  -24.5968  -30.6926   25.7822 H   0  0  0  0  0  0
  -24.8788  -32.2776   26.4963 H   0  0  0  0  0  0
  -25.8056  -30.8860   27.0303 H   0  0  0  0  0  0
  -26.2808  -29.6873   24.1208 H   0  0  0  0  0  0
  -27.4060  -29.7297   25.4589 H   0  0  0  0  0  0
  -27.8622  -30.4437   23.9276 H   0  0  0  0  0  0
  -27.2762  -33.3637   26.2068 H   0  0  0  0  0  0
  -28.3835  -32.6775   25.0295 H   0  0  0  0  0  0
  -28.0749  -31.8444   26.5428 H   0  0  0  0  0  0
  -28.2557  -38.0096   24.7499 H   0  0  0  0  0  0
  -28.0998  -36.2621   24.6256 H   0  0  0  0  0  0
  -27.2266  -37.1402   25.8876 H   0  0  0  0  0  0
  -20.9316  -29.8749   21.7046 H   0  0  0  0  0  0
  -26.0114  -38.2867   24.1489 H   0  0  0  0  0  0
  -33.1603  -20.0468   20.5838 H   0  0  0  0  0  0
  -31.2281  -21.2598   19.6148 H   0  0  0  0  0  0
  -32.7868  -17.8422   21.6808 H   0  0  0  0  0  0
  -25.9099  -21.7644   22.8718 H   0  0  0  0  0  0
  -26.1010  -20.3849   21.7928 H   0  0  0  0  0  0
  -25.5595  -21.9442   21.1647 H   0  0  0  0  0  0
  -27.6907  -19.7908   19.7270 H   0  0  0  0  0  0
  -28.7244  -20.5103   18.5472 H   0  0  0  0  0  0
  -29.6420  -16.7713   22.8280 H   0  0  0  0  0  0
  -31.2926  -16.2983   22.6542 H   0  0  0  0  0  0
  -28.3646  -21.2644   22.2490 H   0  0  0  0  0  0
  -27.8129  -22.8967   22.0404 H   0  0  0  0  0  0
  -29.2842  -24.6927   18.7155 H   0  0  0  0  0  0
  -27.6354  -24.1625   18.8166 H   0  0  0  0  0  0
  -29.1295  -25.2200   21.2790 H   0  0  0  0  0  0
  -27.4063  -25.1139   21.0951 H   0  0  0  0  0  0
  -27.2349  -22.1077   19.5617 H   0  0  0  0  0  0
  -28.9884  -15.1148   21.5264 H   0  0  0  0  0  0
  -29.7704  -23.0628   20.5822 H   0  0  0  0  0  0
  -29.6155  -22.6326   19.0353 H   0  0  0  0  0  0
  1 25  1  0  0  0
  1 30  2  0  0  0
  1 84  1  0  0  0
  2  3  1  0  0  0
  2 25  1  0  0  0
  2 86  1  0  0  0
  2 87  1  0  0  0
  3  4  1  0  0  0
  3 88  1  0  0  0
  3 89  1  0  0  0
  4  5  1  0  0  0
  4 90  1  0  0  0
  4 91  1  0  0  0
  5  6  1  0  0  0
  5 26  1  0  0  0
  5 92  1  0  0  0
  6 25  1  0  0  0
  6 93  1  0  0  0
  6 94  1  0  0  0
  7  8  2  0  0  0
  7 26  1  0  0  0
  7 29  1  0  0  0
  8  9  1  0  0  0
  8 22  1  0  0  0
  9 10  1  0  0  0
  9 27  2  0  0  0
 10 11  2  0  0  0
 10 15  1  0  0  0
 11 12  1  0  0  0
 11 95  1  0  0  0
 12 13  2  0  0  0
 12 96  1  0  0  0
 13 14  1  0  0  0
 13 31  1  0  0  0
 14 15  2  0  0  0
 14 97  1  0  0  0
 15 98  1  0  0  0
 16 17  2  0  0  0
 16 21  1  0  0  0
 16 31  1  0  0  0
 17 18  1  0  0  0
 17 99  1  0  0  0
 18 19  2  0  0  0
 18100  1  0  0  0
 19 20  1  0  0  0
 19 24  1  0  0  0
 20 21  2  0  0  0
 20101  1  0  0  0
 21 23  1  0  0  0
 22 28  1  0  0  0
 22 32  2  0  0  0
 26 27  1  0  0  0
 28102  1  0  0  0
 28103  1  0  0  0
 29104  1  0  0  0
 29105  1  0  0  0
 33 34  1  0  0  0
 33 66  1  0  0  0
 33 70  2  0  0  0
 34 36  1  0  0  0
 34 59  1  0  0  0
 34106  1  0  0  0
 35 44  2  0  0  0
 35 45  1  0  0  0
 35 68  1  0  0  0
 36 56  1  0  0  0
 36107  1  0  0  0
 37 39  1  0  0  0
 37 47  1  0  0  0
 37 66  1  0  0  0
 37108  1  0  0  0
 38 43  2  0  0  0
 38 46  1  0  0  0
 38 47  1  0  0  0
 39 64  1  0  0  0
 39 67  2  0  0  0
 40 52  1  0  0  0
 40 53  2  0  0  0
 40 58  1  0  0  0
 41109  1  0  0  0
 41110  1  0  0  0
 41111  1  0  0  0
 41 48  1  0  0  0
 42 43  1  0  0  0
 42 66  1  0  0  0
 42112  1  0  0  0
 42113  1  0  0  0
 43 44  1  0  0  0
 44114  1  0  0  0
 45 46  2  0  0  0
 45115  1  0  0  0
 46116  1  0  0  0
 47117  1  0  0  0
 47118  1  0  0  0
 48 56  1  0  0  0
 48 65  1  0  0  0
 48119  1  0  0  0
 49 50  1  0  0  0
 49 53  1  0  0  0
 49 64  1  0  0  0
 49120  1  0  0  0
 50 51  1  0  0  0
 50121  1  0  0  0
 50122  1  0  0  0
 51 52  1  0  0  0
 51123  1  0  0  0
 51124  1  0  0  0
 52125  1  0  0  0
 52126  1  0  0  0
 53 54  1  0  0  0
 54 55  2  0  0  0
 54127  1  0  0  0
 55 57  1  0  0  0
 55128  1  0  0  0
 56 69  2  0  0  0
 57 58  2  0  0  0
 57129  1  0  0  0
 58130  1  0  0  0
 59 60  1  0  0  0
 59 61  1  0  0  0
 59 62  1  0  0  0
 60131  1  0  0  0
 60132  1  0  0  0
 60133  1  0  0  0
 61134  1  0  0  0
 61135  1  0  0  0
 61136  1  0  0  0
 62137  1  0  0  0
 62138  1  0  0  0
 62139  1  0  0  0
 63 65  1  0  0  0
 63140  1  0  0  0
 63141  1  0  0  0
 63142  1  0  0  0
 64143  1  0  0  0
 65144  1  0  0  0
 68 81  1  0  0  0
 71 72  2  0  0  0
 71 73  1  0  0  0
 71145  1  0  0  0
 72 74  1  0  0  0
 72146  1  0  0  0
 73 75  2  0  0  0
 73147  1  0  0  0
 74 77  1  0  0  0
 74 83  2  0  0  0
 75 78  1  0  0  0
 75 83  1  0  0  0
 76 79  1  0  0  0
 76148  1  0  0  0
 76149  1  0  0  0
 76150  1  0  0  0
 77151  1  0  0  0
 77152  1  0  0  0
 77 82  1  0  0  0
 78 84  1  0  0  0
 78153  1  0  0  0
 78154  1  0  0  0
 79 82  1  0  0  0
 79155  1  0  0  0
 79156  1  0  0  0
 80 81  1  0  0  0
 80 85  1  0  0  0
 80157  1  0  0  0
 80158  1  0  0  0
 81159  1  0  0  0
 81160  1  0  0  0
 82 85  1  0  0  0
 82161  1  0  0  0
 84162  1  0  0  0
 85163  1  0  0  0
 85164  1  0  0  0
M  CHG  1  85   1
M  ISO  4   1 100  68 101  81 101  84 100
M  END
> <chiral flag>
0

> <version>
0

> <s_m_source_file>
/data/baiqing/PycharmProjects/Reinvent-master-3.2/result/LINK_invent/BTK/process_docking_weight1_custom_sum_contain_oxygen_bond_distance_aromatic_linkinvent_7_9_3/rearranged_h_0119.sdf

> <i_m_source_file_index>
97

> <r_mmod_Potential_Energy-OPLS-2005>
-393.635864257812

> <r_mmod_Stretch_Energy-OPLS-2005>
41.9549980163574

> <r_mmod_Bend_Energy-OPLS-2005>
116.626762390137

> <r_mmod_Torsional_Energy-OPLS-2005>
246.275939941406

> <r_mmod_Improper_Torsional_Energy-OPLS-2005>
3.14315986633301

> <r_mmod_Van_der_Waal_Energy-OPLS-2005>
142.804565429688

> <r_mmod_Electrostatic_Energy-OPLS-2005>
-497.716827392578

> <r_mmod_Solvation_Energy-OPLS-2005>
-462.081420898438

> <b_mmod_Minimization_Converged-OPLS-2005>
0

> <r_mmod_RMS_Derivative-OPLS-2005>
5.80158519744873

$$$$
97
                    3D
 Structure written by MMmdl.
158166  0  0  1  0            999 V2000
  -30.5802  -14.8589   20.4085 C   0  0  0  0  0  0
  -30.4358  -12.5268   19.4844 C   0  0  0  0  0  0
  -29.5161  -12.4929   18.2439 C   0  0  0  0  0  0
  -28.0425  -12.3169   18.6575 C   0  0  0  0  0  0
  -27.6338  -13.2418   19.8347 C   0  0  2  0  0  0
  -28.6778  -13.2436   20.9716 C   0  0  0  0  0  0
  -25.2486  -13.8216   20.5675 C   0  0  0  0  0  0
  -24.1814  -13.0443   20.9241 C   0  0  0  0  0  0
  -24.6423  -11.6925   20.8764 C   0  0  0  0  0  0
  -23.9093  -10.4296   21.0402 C   0  0  0  0  0  0
  -24.3635   -9.4209   21.9180 C   0  0  0  0  0  0
  -23.6315   -8.2232   22.0724 C   0  0  0  0  0  0
  -22.4297   -8.0280   21.3514 C   0  0  0  0  0  0
  -21.9936   -9.0260   20.4621 C   0  0  0  0  0  0
  -22.7256  -10.2150   20.3051 C   0  0  0  0  0  0
  -21.6866   -6.0731   22.5274 C   0  0  0  0  0  0
  -21.4010   -6.5629   23.8212 C   0  0  0  0  0  0
  -21.3667   -5.6790   24.9174 C   0  0  0  0  0  0
  -21.6044   -4.3046   24.7228 C   0  0  0  0  0  0
  -21.8824   -3.8142   23.4347 C   0  0  0  0  0  0
  -21.9192   -4.6955   22.3406 C   0  0  0  0  0  0
  -22.7841  -13.5228   21.1892 C   0  0  0  0  0  0
  -22.1670   -4.2145   21.0981 F   0  0  0  0  0  0
  -21.5634   -3.4528   25.7733 F   0  0  0  0  0  0
  -29.9606  -13.6216   20.3717 N   0  0  0  0  0  0
  -26.2902  -12.9440   20.3207 N   0  0  0  0  0  0
  -25.9347  -11.6575   20.5732 N   0  0  0  0  0  0
  -22.0485  -12.8210   22.0432 N   0  0  0  0  0  0
  -25.4162  -15.1929   20.4040 N   0  0  0  0  0  0
  -31.7860  -14.9093   20.1435 O   0  0  0  0  0  0
  -21.6647   -6.8874   21.4241 O   0  0  0  0  0  0
  -22.3511  -14.5503   20.6694 O   0  0  0  0  0  0
  -24.6393  -31.8489   23.1913 C   0  0  0  0  0  0
  -25.9179  -32.4720   23.8298 C   0  0  1  0  0  0
  -27.2027  -27.1749   20.1471 C   0  0  0  0  0  0
  -25.5950  -33.8530   24.2230 N   0  0  0  0  0  0
  -23.4372  -30.4722   21.5337 C   0  0  2  0  0  0
  -24.8829  -28.9010   20.1114 C   0  0  0  0  0  0
  -22.7519  -29.4615   22.4864 C   0  0  0  0  0  0
  -18.0303  -28.1377   22.8497 C   0  0  0  0  0  0
  -24.1484  -36.7257   23.2638 C   0  0  0  0  0  0
  -25.9898  -30.7379   21.3767 C   0  0  0  0  0  0
  -26.0595  -29.3503   20.7249 C   0  0  0  0  0  0
  -27.2266  -28.5041   20.7229 C   0  0  0  0  0  0
  -26.0040  -26.8173   19.4962 C   0  0  0  0  0  0
  -24.8650  -27.6481   19.4819 C   0  0  0  0  0  0
  -23.6588  -29.7993   20.1527 C   0  0  0  0  0  0
  -25.4108  -36.3039   24.0331 C   0  0  1  0  0  0
  -20.5918  -28.3707   23.1225 C   0  0  2  0  0  0
  -20.6785  -26.9418   22.5361 C   0  0  0  0  0  0
  -19.5742  -26.6385   21.5179 C   0  0  0  0  0  0
  -18.1940  -26.7916   22.1627 C   0  0  0  0  0  0
  -19.1565  -28.8863   23.2860 C   0  0  0  0  0  0
  -18.9471  -30.1460   23.8887 C   0  0  0  0  0  0
  -17.6468  -30.6582   24.0567 C   0  0  0  0  0  0
  -25.9064  -34.9422   23.5085 C   0  0  0  0  0  0
  -16.5368  -29.9076   23.6331 C   0  0  0  0  0  0
  -16.7289  -28.6483   23.0381 C   0  0  0  0  0  0
  -26.4535  -31.6561   25.0701 C   0  0  0  0  0  0
  -25.3748  -31.3761   26.1416 C   0  0  0  0  0  0
  -27.0356  -30.2962   24.6210 C   0  0  0  0  0  0
  -27.6113  -32.4278   25.7452 C   0  0  0  0  0  0
  -27.5567  -37.1779   24.8477 C   0  0  0  0  0  0
  -21.4222  -29.3057   22.3607 N   0  0  0  0  0  0
  -26.4272  -37.3746   23.9435 N   0  0  0  0  0  0
  -24.7087  -31.0405   22.0896 N   0  0  0  0  0  0
  -23.4183  -28.8151   23.2993 O   0  0  0  0  0  0
  -28.2694  -26.2235   20.1672 O   0  0  0  0  0  0
  -26.5617  -34.8926   22.4638 O   0  0  0  0  0  0
  -23.5520  -32.1360   23.7153 O   0  0  0  0  0  0
  -29.9430  -19.9065   21.3477 C   0  0  0  0  0  0
  -29.6262  -21.3112   21.2729 C   0  0  0  0  0  0
  -29.5903  -18.9622   20.3316 C   0  0  0  0  0  0
  -28.9186  -21.8816   20.1781 C   0  0  0  0  0  0
  -28.7944  -19.5928   19.3083 C   0  0  0  0  0  0
  -26.3191  -17.2933   17.2823 C   0  0  0  0  0  0
  -30.3371  -17.5007   20.2283 C   0  0  0  0  0  0
  -28.9224  -23.4867   19.8151 C   0  0  0  0  0  0
  -26.7777  -18.3848   18.2686 C   0  0  0  0  0  0
  -28.0246  -24.7232   20.4574 C   0  0  0  0  0  0
  -28.2678  -18.7554   18.1351 C   0  0  1  0  0  0
  -28.4857  -20.9571   19.2523 N   0  0  0  0  0  0
  -29.8315  -16.0521   20.5031 N   0  0  0  0  0  0
  -28.4634  -19.3926   16.9760 F   0  0  0  0  0  0
  -31.4702  -12.6695   19.1696 H   0  0  0  0  0  0
  -30.4185  -11.5728   20.0118 H   0  0  0  0  0  0
  -29.8191  -11.6805   17.5815 H   0  0  0  0  0  0
  -29.6355  -13.4139   17.6705 H   0  0  0  0  0  0
  -27.9116  -11.2738   18.9467 H   0  0  0  0  0  0
  -27.3866  -12.4733   17.7998 H   0  0  0  0  0  0
  -27.6068  -14.2506   19.4196 H   0  0  0  0  0  0
  -28.7467  -12.2654   21.4490 H   0  0  0  0  0  0
  -28.3965  -13.9532   21.7511 H   0  0  0  0  0  0
  -25.2790   -9.5684   22.4738 H   0  0  0  0  0  0
  -24.0036   -7.4627   22.7433 H   0  0  0  0  0  0
  -21.0863   -8.8787   19.8935 H   0  0  0  0  0  0
  -22.3722  -10.9687   19.6148 H   0  0  0  0  0  0
  -21.1999   -7.6133   23.9712 H   0  0  0  0  0  0
  -21.1488   -6.0510   25.9079 H   0  0  0  0  0  0
  -22.0598   -2.7600   23.2846 H   0  0  0  0  0  0
  -22.4136  -11.9924   22.4900 H   0  0  0  0  0  0
  -21.1063  -13.1147   22.2554 H   0  0  0  0  0  0
  -24.6420  -15.8372   20.5121 H   0  0  0  0  0  0
  -26.2312  -15.6206   19.9876 H   0  0  0  0  0  0
  -26.7241  -32.5360   23.1031 H   0  0  0  0  0  0
  -25.0135  -33.9659   25.0408 H   0  0  0  0  0  0
  -22.7384  -31.2979   21.3819 H   0  0  0  0  0  0
  -23.3751  -35.9579   23.3273 H   0  0  0  0  0  0
  -24.3581  -36.8891   22.2052 H   0  0  0  0  0  0
  -23.7230  -37.6456   23.6675 H   0  0  0  0  0  0
  -26.1273  -31.4878   20.5962 H   0  0  0  0  0  0
  -26.8683  -30.7987   22.0072 H   0  0  0  0  0  0
  -28.1303  -28.8486   21.2070 H   0  0  0  0  0  0
  -25.9263  -25.8639   18.9946 H   0  0  0  0  0  0
  -23.9674  -27.3042   18.9863 H   0  0  0  0  0  0
  -23.7885  -30.5717   19.3937 H   0  0  0  0  0  0
  -22.7745  -29.2369   19.8493 H   0  0  0  0  0  0
  -25.1288  -36.1861   25.0822 H   0  0  0  0  0  0
  -21.0051  -28.3266   24.1332 H   0  0  0  0  0  0
  -20.5631  -26.2330   23.3571 H   0  0  0  0  0  0
  -21.6654  -26.7386   22.1193 H   0  0  0  0  0  0
  -19.6884  -25.6286   21.1224 H   0  0  0  0  0  0
  -19.6662  -27.3182   20.6696 H   0  0  0  0  0  0
  -17.4193  -26.6662   21.4052 H   0  0  0  0  0  0
  -18.0380  -26.0051   22.9024 H   0  0  0  0  0  0
  -19.7943  -30.7297   24.2246 H   0  0  0  0  0  0
  -17.5014  -31.6263   24.5153 H   0  0  0  0  0  0
  -15.5365  -30.2978   23.7642 H   0  0  0  0  0  0
  -15.8696  -28.0784   22.7121 H   0  0  0  0  0  0
  -24.5889  -30.7145   25.7759 H   0  0  0  0  0  0
  -24.8986  -32.2954   26.4833 H   0  0  0  0  0  0
  -25.8039  -30.8934   27.0199 H   0  0  0  0  0  0
  -26.2924  -29.6694   24.1259 H   0  0  0  0  0  0
  -27.4045  -29.7248   25.4737 H   0  0  0  0  0  0
  -27.8822  -30.4220   23.9450 H   0  0  0  0  0  0
  -27.2810  -33.3691   26.1860 H   0  0  0  0  0  0
  -28.4017  -32.6606   25.0302 H   0  0  0  0  0  0
  -28.0652  -31.8456   26.5483 H   0  0  0  0  0  0
  -28.2589  -38.0073   24.7521 H   0  0  0  0  0  0
  -28.1053  -36.2603   24.6299 H   0  0  0  0  0  0
  -27.2288  -37.1422   25.8881 H   0  0  0  0  0  0
  -20.9388  -29.8797   21.6846 H   0  0  0  0  0  0
  -26.0130  -38.2813   24.1436 H   0  0  0  0  0  0
  -30.5627  -19.5761   22.1693 H   0  0  0  0  0  0
  -30.0192  -21.9712   22.0351 H   0  0  0  0  0  0
  -25.2507  -17.0958   17.3815 H   0  0  0  0  0  0
  -26.8406  -16.3498   17.4594 H   0  0  0  0  0  0
  -26.4993  -17.5885   16.2477 H   0  0  0  0  0  0
  -30.7325  -17.4680   19.2114 H   0  0  0  0  0  0
  -31.2412  -17.6029   20.8306 H   0  0  0  0  0  0
  -28.7534  -23.5366   18.7395 H   0  0  0  0  0  0
  -29.9622  -23.7879   19.9316 H   0  0  0  0  0  0
  -26.5918  -18.0257   19.2819 H   0  0  0  0  0  0
  -26.1676  -19.2805   18.1476 H   0  0  0  0  0  0
  -28.1404  -24.6412   21.5380 H   0  0  0  0  0  0
  -26.9782  -24.4782   20.2835 H   0  0  0  0  0  0
  -28.8470  -17.8400   18.0501 H   0  0  0  0  0  0
  -28.8480  -15.9435   20.6985 H   0  0  0  0  0  0
  1 25  1  0  0  0
  1 30  2  0  0  0
  1 83  1  0  0  0
  2  3  1  0  0  0
  2 25  1  0  0  0
  2 85  1  0  0  0
  2 86  1  0  0  0
  3  4  1  0  0  0
  3 87  1  0  0  0
  3 88  1  0  0  0
  4  5  1  0  0  0
  4 89  1  0  0  0
  4 90  1  0  0  0
  5  6  1  0  0  0
  5 26  1  0  0  0
  5 91  1  0  0  0
  6 25  1  0  0  0
  6 92  1  0  0  0
  6 93  1  0  0  0
  7  8  2  0  0  0
  7 26  1  0  0  0
  7 29  1  0  0  0
  8  9  1  0  0  0
  8 22  1  0  0  0
  9 10  1  0  0  0
  9 27  2  0  0  0
 10 11  2  0  0  0
 10 15  1  0  0  0
 11 12  1  0  0  0
 11 94  1  0  0  0
 12 13  2  0  0  0
 12 95  1  0  0  0
 13 14  1  0  0  0
 13 31  1  0  0  0
 14 15  2  0  0  0
 14 96  1  0  0  0
 15 97  1  0  0  0
 16 17  2  0  0  0
 16 21  1  0  0  0
 16 31  1  0  0  0
 17 18  1  0  0  0
 17 98  1  0  0  0
 18 19  2  0  0  0
 18 99  1  0  0  0
 19 20  1  0  0  0
 19 24  1  0  0  0
 20 21  2  0  0  0
 20100  1  0  0  0
 21 23  1  0  0  0
 22 28  1  0  0  0
 22 32  2  0  0  0
 26 27  1  0  0  0
 28101  1  0  0  0
 28102  1  0  0  0
 29103  1  0  0  0
 29104  1  0  0  0
 33 34  1  0  0  0
 33 66  1  0  0  0
 33 70  2  0  0  0
 34 36  1  0  0  0
 34 59  1  0  0  0
 34105  1  0  0  0
 35 44  2  0  0  0
 35 45  1  0  0  0
 35 68  1  0  0  0
 36 56  1  0  0  0
 36106  1  0  0  0
 37 39  1  0  0  0
 37 47  1  0  0  0
 37 66  1  0  0  0
 37107  1  0  0  0
 38 43  2  0  0  0
 38 46  1  0  0  0
 38 47  1  0  0  0
 39 64  1  0  0  0
 39 67  2  0  0  0
 40 52  1  0  0  0
 40 53  2  0  0  0
 40 58  1  0  0  0
 41108  1  0  0  0
 41109  1  0  0  0
 41110  1  0  0  0
 41 48  1  0  0  0
 42 43  1  0  0  0
 42 66  1  0  0  0
 42111  1  0  0  0
 42112  1  0  0  0
 43 44  1  0  0  0
 44113  1  0  0  0
 45 46  2  0  0  0
 45114  1  0  0  0
 46115  1  0  0  0
 47116  1  0  0  0
 47117  1  0  0  0
 48 56  1  0  0  0
 48 65  1  0  0  0
 48118  1  0  0  0
 49 50  1  0  0  0
 49 53  1  0  0  0
 49 64  1  0  0  0
 49119  1  0  0  0
 50 51  1  0  0  0
 50120  1  0  0  0
 50121  1  0  0  0
 51 52  1  0  0  0
 51122  1  0  0  0
 51123  1  0  0  0
 52124  1  0  0  0
 52125  1  0  0  0
 53 54  1  0  0  0
 54 55  2  0  0  0
 54126  1  0  0  0
 55 57  1  0  0  0
 55127  1  0  0  0
 56 69  2  0  0  0
 57 58  2  0  0  0
 57128  1  0  0  0
 58129  1  0  0  0
 59 60  1  0  0  0
 59 61  1  0  0  0
 59 62  1  0  0  0
 60130  1  0  0  0
 60131  1  0  0  0
 60132  1  0  0  0
 61133  1  0  0  0
 61134  1  0  0  0
 61135  1  0  0  0
 62136  1  0  0  0
 62137  1  0  0  0
 62138  1  0  0  0
 63 65  1  0  0  0
 63139  1  0  0  0
 63140  1  0  0  0
 63141  1  0  0  0
 64142  1  0  0  0
 65143  1  0  0  0
 68 80  1  0  0  0
 71 72  2  0  0  0
 71 73  1  0  0  0
 71144  1  0  0  0
 72 74  1  0  0  0
 72145  1  0  0  0
 73 75  2  0  0  0
 73 77  1  0  0  0
 74 78  1  0  0  0
 74 82  2  0  0  0
 75 81  1  0  0  0
 75 82  1  0  0  0
 76 79  1  0  0  0
 76146  1  0  0  0
 76147  1  0  0  0
 76148  1  0  0  0
 77 83  1  0  0  0
 77149  1  0  0  0
 77150  1  0  0  0
 78 80  1  0  0  0
 78151  1  0  0  0
 78152  1  0  0  0
 79 81  1  0  0  0
 79153  1  0  0  0
 79154  1  0  0  0
 80155  1  0  0  0
 80156  1  0  0  0
 81 84  1  0  0  0
 81157  1  0  0  0
 83158  1  0  0  0
M  ISO  4   1 100  68 101  80 101  83 100
M  END
> <chiral flag>
0

> <version>
0

> <s_m_source_file>
/data/baiqing/PycharmProjects/Reinvent-master-3.2/result/LINK_invent/BTK/process_docking_weight1_custom_sum_contain_oxygen_bond_distance_aromatic_linkinvent_7_9_3/rearranged_h_0119.sdf

> <i_m_source_file_index>
98

> <r_mmod_Potential_Energy-OPLS-2005>
282.484405517578

> <r_mmod_Stretch_Energy-OPLS-2005>
195.734619140625

> <r_mmod_Bend_Energy-OPLS-2005>
239.189971923828

> <r_mmod_Torsional_Energy-OPLS-2005>
232.808502197266

> <r_mmod_Improper_Torsional_Energy-OPLS-2005>
10.2935810089111

> <r_mmod_Van_der_Waal_Energy-OPLS-2005>
127.716361999512

> <r_mmod_Electrostatic_Energy-OPLS-2005>
-445.498474121094

> <r_mmod_Solvation_Energy-OPLS-2005>
-222.769760131836

> <b_mmod_Minimization_Converged-OPLS-2005>
0

> <r_mmod_RMS_Derivative-OPLS-2005>
3.49269270896912

$$$$
98
                    3D
 Structure written by MMmdl.
177186  0  0  1  0            999 V2000
  -30.6527  -14.5917   20.4859 C   0  0  0  0  0  0
  -30.4241  -12.3575   19.4508 C   0  0  0  0  0  0
  -29.4988  -12.4844   18.2210 C   0  0  0  0  0  0
  -28.0198  -12.3426   18.6334 C   0  0  0  0  0  0
  -27.6482  -13.2158   19.8623 C   0  0  2  0  0  0
  -28.6945  -13.0824   20.9918 C   0  0  0  0  0  0
  -25.2532  -13.8186   20.5713 C   0  0  0  0  0  0
  -24.1801  -13.0444   20.9206 C   0  0  0  0  0  0
  -24.6380  -11.6916   20.8760 C   0  0  0  0  0  0
  -23.9053  -10.4291   21.0413 C   0  0  0  0  0  0
  -24.3603   -9.4204   21.9186 C   0  0  0  0  0  0
  -23.6278   -8.2239   22.0762 C   0  0  0  0  0  0
  -22.4259   -8.0281   21.3556 C   0  0  0  0  0  0
  -21.9898   -9.0254   20.4652 C   0  0  0  0  0  0
  -22.7228  -10.2133   20.3058 C   0  0  0  0  0  0
  -21.6853   -6.0725   22.5273 C   0  0  0  0  0  0
  -21.4020   -6.5632   23.8211 C   0  0  0  0  0  0
  -21.3659   -5.6784   24.9175 C   0  0  0  0  0  0
  -21.6046   -4.3044   24.7217 C   0  0  0  0  0  0
  -21.8818   -3.8138   23.4341 C   0  0  0  0  0  0
  -21.9197   -4.6956   22.3399 C   0  0  0  0  0  0
  -22.7821  -13.5234   21.1855 C   0  0  0  0  0  0
  -22.1665   -4.2143   21.0978 F   0  0  0  0  0  0
  -21.5632   -3.4532   25.7728 F   0  0  0  0  0  0
  -30.0076  -13.3917   20.4153 N   0  0  0  0  0  0
  -26.2962  -12.9365   20.3352 N   0  0  0  0  0  0
  -25.9315  -11.6527   20.5800 N   0  0  0  0  0  0
  -22.0462  -12.8223   22.0406 N   0  0  0  0  0  0
  -25.4203  -15.1909   20.4114 N   0  0  0  0  0  0
  -31.8487  -14.6906   20.1967 O   0  0  0  0  0  0
  -21.6634   -6.8871   21.4238 O   0  0  0  0  0  0
  -22.3507  -14.5538   20.6704 O   0  0  0  0  0  0
  -24.6203  -31.8640   23.2064 C   0  0  0  0  0  0
  -25.9071  -32.4809   23.8384 C   0  0  1  0  0  0
  -27.2237  -27.3821   20.1121 C   0  0  0  0  0  0
  -25.5899  -33.8609   24.2314 N   0  0  0  0  0  0
  -23.4124  -30.4885   21.5493 C   0  0  2  0  0  0
  -24.8604  -28.9525   20.1100 C   0  0  0  0  0  0
  -22.7459  -29.4641   22.4970 C   0  0  0  0  0  0
  -18.0277  -28.1380   22.8491 C   0  0  0  0  0  0
  -24.1487  -36.7317   23.2640 C   0  0  0  0  0  0
  -25.9478  -30.8168   21.3681 C   0  0  0  0  0  0
  -26.0268  -29.4494   20.7091 C   0  0  0  0  0  0
  -27.2175  -28.6738   20.7039 C   0  0  0  0  0  0
  -26.0464  -26.9232   19.4871 C   0  0  0  0  0  0
  -24.8673  -27.6917   19.4918 C   0  0  0  0  0  0
  -23.6241  -29.8244   20.1630 C   0  0  0  0  0  0
  -25.4109  -36.3104   24.0328 C   0  0  1  0  0  0
  -20.5878  -28.3683   23.1293 C   0  0  2  0  0  0
  -20.6767  -26.9410   22.5417 C   0  0  0  0  0  0
  -19.5745  -26.6389   21.5214 C   0  0  0  0  0  0
  -18.1924  -26.7922   22.1620 C   0  0  0  0  0  0
  -19.1531  -28.8846   23.2888 C   0  0  0  0  0  0
  -18.9449  -30.1445   23.8907 C   0  0  0  0  0  0
  -17.6449  -30.6585   24.0567 C   0  0  0  0  0  0
  -25.9039  -34.9470   23.5127 C   0  0  0  0  0  0
  -16.5342  -29.9094   23.6324 C   0  0  0  0  0  0
  -16.7263  -28.6507   23.0350 C   0  0  0  0  0  0
  -26.4474  -31.6596   25.0732 C   0  0  0  0  0  0
  -25.3718  -31.3689   26.1460 C   0  0  0  0  0  0
  -27.0325  -30.3028   24.6152 C   0  0  0  0  0  0
  -27.6055  -32.4320   25.7482 C   0  0  0  0  0  0
  -27.5590  -37.1802   24.8459 C   0  0  0  0  0  0
  -21.4175  -29.3042   22.3693 N   0  0  0  0  0  0
  -26.4299  -37.3792   23.9402 N   0  0  0  0  0  0
  -24.6788  -31.0700   22.1001 N   0  0  0  0  0  0
  -23.4209  -28.8178   23.3026 O   0  0  0  0  0  0
  -28.3117  -26.5216   20.1614 O   0  0  0  0  0  0
  -26.5629  -34.8925   22.4705 O   0  0  0  0  0  0
  -23.5374  -32.1407   23.7415 O   0  0  0  0  0  0
  -29.9972  -22.0665   21.5943 C   0  0  0  0  0  0
  -29.5131  -23.3791   21.7978 C   0  0  0  0  0  0
  -29.7155  -21.3873   20.3870 C   0  0  0  0  0  0
  -28.7483  -24.0234   20.8015 C   0  0  0  0  0  0
  -28.9128  -22.1005   19.4483 C   0  0  0  0  0  0
  -29.9189  -16.4045   18.9939 C   0  0  0  0  0  0
  -29.1876  -16.5252   21.2956 C   0  0  0  0  0  0
  -30.5809  -17.7932   19.1196 C   0  0  0  0  0  0
  -29.7795  -17.9882   21.4427 C   0  0  1  0  0  0
  -28.5499  -21.5057   18.1013 C   0  0  0  0  0  0
  -31.7389  -17.1828   26.0836 C   0  0  0  0  0  0
  -33.2231  -18.4256   24.4672 C   0  0  0  0  0  0
  -30.5066  -20.0855   20.0409 C   0  0  0  0  0  0
  -28.0955  -25.4091   21.0842 C   0  0  0  0  0  0
  -31.0946  -17.9384   22.2754 C   0  0  0  0  0  0
  -30.8496  -17.7153   23.7838 C   0  0  0  0  0  0
  -32.1101  -17.3757   24.6066 C   0  0  0  0  0  0
  -28.4418  -23.3655   19.6546 N   0  0  0  0  0  0
  -29.8542  -15.6866   20.2744 N   0  0  0  0  0  0
  -29.9064  -18.6878   20.1069 N   0  3  1  0  0  0
  -31.4701  -12.4603   19.1528 H   0  0  0  0  0  0
  -30.3357  -11.3680   19.9009 H   0  0  0  0  0  0
  -29.7553  -11.7306   17.4748 H   0  0  0  0  0  0
  -29.6538  -13.4522   17.7431 H   0  0  0  0  0  0
  -27.8414  -11.2913   18.8619 H   0  0  0  0  0  0
  -27.3683  -12.5868   17.7931 H   0  0  0  0  0  0
  -27.6595  -14.2480   19.5158 H   0  0  0  0  0  0
  -28.6936  -12.0724   21.4053 H   0  0  0  0  0  0
  -28.4605  -13.7520   21.8203 H   0  0  0  0  0  0
  -25.2758   -9.5688   22.4748 H   0  0  0  0  0  0
  -23.9990   -7.4634   22.7486 H   0  0  0  0  0  0
  -21.0841   -8.8789   19.8944 H   0  0  0  0  0  0
  -22.3707  -10.9676   19.6158 H   0  0  0  0  0  0
  -21.2012   -7.6136   23.9714 H   0  0  0  0  0  0
  -21.1488   -6.0514   25.9084 H   0  0  0  0  0  0
  -22.0595   -2.7599   23.2851 H   0  0  0  0  0  0
  -22.4084  -11.9884   22.4790 H   0  0  0  0  0  0
  -21.1076  -13.1258   22.2618 H   0  0  0  0  0  0
  -24.6466  -15.8376   20.5177 H   0  0  0  0  0  0
  -26.2591  -15.6310   20.0589 H   0  0  0  0  0  0
  -26.7158  -32.5490   23.1155 H   0  0  0  0  0  0
  -24.9979  -33.9763   25.0406 H   0  0  0  0  0  0
  -22.7025  -31.3060   21.4104 H   0  0  0  0  0  0
  -23.3756  -35.9646   23.3286 H   0  0  0  0  0  0
  -24.3588  -36.8960   22.2062 H   0  0  0  0  0  0
  -23.7228  -37.6503   23.6682 H   0  0  0  0  0  0
  -26.0714  -31.5864   20.6040 H   0  0  0  0  0  0
  -26.8307  -30.8657   21.9939 H   0  0  0  0  0  0
  -28.1154  -29.0481   21.1778 H   0  0  0  0  0  0
  -26.0337  -25.9494   19.0180 H   0  0  0  0  0  0
  -23.9698  -27.3012   19.0312 H   0  0  0  0  0  0
  -23.7353  -30.6030   19.4070 H   0  0  0  0  0  0
  -22.7445  -29.2498   19.8679 H   0  0  0  0  0  0
  -25.1290  -36.1975   25.0822 H   0  0  0  0  0  0
  -20.9959  -28.3274   24.1415 H   0  0  0  0  0  0
  -20.5670  -26.2300   23.3623 H   0  0  0  0  0  0
  -21.6641  -26.7454   22.1214 H   0  0  0  0  0  0
  -19.6913  -25.6305   21.1245 H   0  0  0  0  0  0
  -19.6680  -27.3199   20.6748 H   0  0  0  0  0  0
  -17.4199  -26.6672   21.4018 H   0  0  0  0  0  0
  -18.0304  -26.0060   22.9007 H   0  0  0  0  0  0
  -19.7925  -30.7249   24.2294 H   0  0  0  0  0  0
  -17.5015  -31.6264   24.5177 H   0  0  0  0  0  0
  -15.5346  -30.3009   23.7628 H   0  0  0  0  0  0
  -15.8659  -28.0835   22.7060 H   0  0  0  0  0  0
  -24.5915  -30.7024   25.7768 H   0  0  0  0  0  0
  -24.8871  -32.2828   26.4907 H   0  0  0  0  0  0
  -25.8052  -30.8851   27.0225 H   0  0  0  0  0  0
  -26.2887  -29.6754   24.1221 H   0  0  0  0  0  0
  -27.4089  -29.7306   25.4645 H   0  0  0  0  0  0
  -27.8733  -30.4341   23.9332 H   0  0  0  0  0  0
  -27.2712  -33.3645   26.2046 H   0  0  0  0  0  0
  -28.3856  -32.6830   25.0284 H   0  0  0  0  0  0
  -28.0735  -31.8443   26.5388 H   0  0  0  0  0  0
  -28.2592  -38.0118   24.7551 H   0  0  0  0  0  0
  -28.1102  -36.2650   24.6245 H   0  0  0  0  0  0
  -27.2314  -37.1411   25.8863 H   0  0  0  0  0  0
  -20.9336  -29.8781   21.6922 H   0  0  0  0  0  0
  -26.0189  -38.2866   24.1417 H   0  0  0  0  0  0
  -30.6245  -21.6095   22.3460 H   0  0  0  0  0  0
  -29.7329  -23.8897   22.7258 H   0  0  0  0  0  0
  -30.4638  -15.8201   18.2494 H   0  0  0  0  0  0
  -28.9082  -16.5064   18.5954 H   0  0  0  0  0  0
  -28.1377  -16.6034   21.0118 H   0  0  0  0  0  0
  -29.1719  -15.9965   22.2471 H   0  0  0  0  0  0
  -30.5849  -18.2550   18.1307 H   0  0  0  0  0  0
  -31.6286  -17.6755   19.4012 H   0  0  0  0  0  0
  -29.0634  -18.5858   22.0114 H   0  0  0  0  0  0
  -29.4037  -21.5328   17.4239 H   0  0  0  0  0  0
  -27.7317  -22.0543   17.6313 H   0  0  0  0  0  0
  -28.2219  -20.4733   18.2106 H   0  0  0  0  0  0
  -32.6061  -16.8910   26.6765 H   0  0  0  0  0  0
  -30.9865  -16.4017   26.2028 H   0  0  0  0  0  0
  -31.3346  -18.0993   26.5161 H   0  0  0  0  0  0
  -34.0592  -18.1929   25.1276 H   0  0  0  0  0  0
  -32.8689  -19.4253   24.7205 H   0  0  0  0  0  0
  -33.6194  -18.4550   23.4521 H   0  0  0  0  0  0
  -31.4602  -20.1185   20.5623 H   0  0  0  0  0  0
  -30.8182  -20.2517   19.0101 H   0  0  0  0  0  0
  -28.4466  -25.7495   22.0582 H   0  0  0  0  0  0
  -27.0314  -25.2130   21.2302 H   0  0  0  0  0  0
  -31.6506  -18.8664   22.1965 H   0  0  0  0  0  0
  -31.7562  -17.1655   21.8842 H   0  0  0  0  0  0
  -30.1365  -16.9069   23.9370 H   0  0  0  0  0  0
  -30.3671  -18.6036   24.1960 H   0  0  0  0  0  0
  -32.5041  -16.4249   24.2429 H   0  0  0  0  0  0
  -28.9604  -18.7830   19.7676 H   0  0  0  0  0  0
  1 25  1  0  0  0
  1 30  2  0  0  0
  1 89  1  0  0  0
  2  3  1  0  0  0
  2 25  1  0  0  0
  2 91  1  0  0  0
  2 92  1  0  0  0
  3  4  1  0  0  0
  3 93  1  0  0  0
  3 94  1  0  0  0
  4  5  1  0  0  0
  4 95  1  0  0  0
  4 96  1  0  0  0
  5  6  1  0  0  0
  5 26  1  0  0  0
  5 97  1  0  0  0
  6 25  1  0  0  0
  6 98  1  0  0  0
  6 99  1  0  0  0
  7  8  2  0  0  0
  7 26  1  0  0  0
  7 29  1  0  0  0
  8  9  1  0  0  0
  8 22  1  0  0  0
  9 10  1  0  0  0
  9 27  2  0  0  0
 10 11  2  0  0  0
 10 15  1  0  0  0
 11 12  1  0  0  0
 11100  1  0  0  0
 12 13  2  0  0  0
 12101  1  0  0  0
 13 14  1  0  0  0
 13 31  1  0  0  0
 14 15  2  0  0  0
 14102  1  0  0  0
 15103  1  0  0  0
 16 17  2  0  0  0
 16 21  1  0  0  0
 16 31  1  0  0  0
 17 18  1  0  0  0
 17104  1  0  0  0
 18 19  2  0  0  0
 18105  1  0  0  0
 19 20  1  0  0  0
 19 24  1  0  0  0
 20 21  2  0  0  0
 20106  1  0  0  0
 21 23  1  0  0  0
 22 28  1  0  0  0
 22 32  2  0  0  0
 26 27  1  0  0  0
 28107  1  0  0  0
 28108  1  0  0  0
 29109  1  0  0  0
 29110  1  0  0  0
 33 34  1  0  0  0
 33 66  1  0  0  0
 33 70  2  0  0  0
 34 36  1  0  0  0
 34 59  1  0  0  0
 34111  1  0  0  0
 35 44  2  0  0  0
 35 45  1  0  0  0
 35 68  1  0  0  0
 36 56  1  0  0  0
 36112  1  0  0  0
 37 39  1  0  0  0
 37 47  1  0  0  0
 37 66  1  0  0  0
 37113  1  0  0  0
 38 43  2  0  0  0
 38 46  1  0  0  0
 38 47  1  0  0  0
 39 64  1  0  0  0
 39 67  2  0  0  0
 40 52  1  0  0  0
 40 53  2  0  0  0
 40 58  1  0  0  0
 41114  1  0  0  0
 41115  1  0  0  0
 41116  1  0  0  0
 41 48  1  0  0  0
 42 43  1  0  0  0
 42 66  1  0  0  0
 42117  1  0  0  0
 42118  1  0  0  0
 43 44  1  0  0  0
 44119  1  0  0  0
 45 46  2  0  0  0
 45120  1  0  0  0
 46121  1  0  0  0
 47122  1  0  0  0
 47123  1  0  0  0
 48 56  1  0  0  0
 48 65  1  0  0  0
 48124  1  0  0  0
 49 50  1  0  0  0
 49 53  1  0  0  0
 49 64  1  0  0  0
 49125  1  0  0  0
 50 51  1  0  0  0
 50126  1  0  0  0
 50127  1  0  0  0
 51 52  1  0  0  0
 51128  1  0  0  0
 51129  1  0  0  0
 52130  1  0  0  0
 52131  1  0  0  0
 53 54  1  0  0  0
 54 55  2  0  0  0
 54132  1  0  0  0
 55 57  1  0  0  0
 55133  1  0  0  0
 56 69  2  0  0  0
 57 58  2  0  0  0
 57134  1  0  0  0
 58135  1  0  0  0
 59 60  1  0  0  0
 59 61  1  0  0  0
 59 62  1  0  0  0
 60136  1  0  0  0
 60137  1  0  0  0
 60138  1  0  0  0
 61139  1  0  0  0
 61140  1  0  0  0
 61141  1  0  0  0
 62142  1  0  0  0
 62143  1  0  0  0
 62144  1  0  0  0
 63 65  1  0  0  0
 63145  1  0  0  0
 63146  1  0  0  0
 63147  1  0  0  0
 64148  1  0  0  0
 65149  1  0  0  0
 68 84  1  0  0  0
 71 72  2  0  0  0
 71 73  1  0  0  0
 71150  1  0  0  0
 72 74  1  0  0  0
 72151  1  0  0  0
 73 75  2  0  0  0
 73 83  1  0  0  0
 74 84  1  0  0  0
 74 88  2  0  0  0
 75 80  1  0  0  0
 75 88  1  0  0  0
 76 78  1  0  0  0
 76 89  1  0  0  0
 76152  1  0  0  0
 76153  1  0  0  0
 77 79  1  0  0  0
 77 89  1  0  0  0
 77154  1  0  0  0
 77155  1  0  0  0
 78 90  1  0  0  0
 78156  1  0  0  0
 78157  1  0  0  0
 79 85  1  0  0  0
 79 90  1  0  0  0
 79158  1  0  0  0
 80159  1  0  0  0
 80160  1  0  0  0
 80161  1  0  0  0
 81162  1  0  0  0
 81163  1  0  0  0
 81164  1  0  0  0
 81 87  1  0  0  0
 82 87  1  0  0  0
 82165  1  0  0  0
 82166  1  0  0  0
 82167  1  0  0  0
 83168  1  0  0  0
 83169  1  0  0  0
 83 90  1  0  0  0
 84170  1  0  0  0
 84171  1  0  0  0
 85 86  1  0  0  0
 85172  1  0  0  0
 85173  1  0  0  0
 86 87  1  0  0  0
 86174  1  0  0  0
 86175  1  0  0  0
 87176  1  0  0  0
 90177  1  0  0  0
M  CHG  1  90   1
M  ISO  4   1 100  68 101  84 101  89 100
M  END
> <chiral flag>
0

> <version>
0

> <s_m_source_file>
/data/baiqing/PycharmProjects/Reinvent-master-3.2/result/LINK_invent/BTK/process_docking_weight1_custom_sum_contain_oxygen_bond_distance_aromatic_linkinvent_7_9_3/rearranged_h_0119.sdf

> <i_m_source_file_index>
99

> <r_mmod_Potential_Energy-OPLS-2005>
91.9245834350586

> <r_mmod_Stretch_Energy-OPLS-2005>
64.2237777709961

> <r_mmod_Bend_Energy-OPLS-2005>
144.276748657227

> <r_mmod_Torsional_Energy-OPLS-2005>
435.226745605469

> <r_mmod_Improper_Torsional_Energy-OPLS-2005>
24.7120628356934

> <r_mmod_Van_der_Waal_Energy-OPLS-2005>
142.781509399414

> <r_mmod_Electrostatic_Energy-OPLS-2005>
-324.576965332031

> <r_mmod_Solvation_Energy-OPLS-2005>
-432.113555908203

> <b_mmod_Minimization_Converged-OPLS-2005>
0

> <r_mmod_RMS_Derivative-OPLS-2005>
2.13332080841064

$$$$
99
                    3D
 Structure written by MMmdl.
175184  0  0  1  0            999 V2000
  -30.7267  -14.4628   20.5590 C   0  0  0  0  0  0
  -30.4154  -12.2945   19.4302 C   0  0  0  0  0  0
  -29.4937  -12.4957   18.2109 C   0  0  0  0  0  0
  -28.0144  -12.3649   18.6210 C   0  0  0  0  0  0
  -27.6613  -13.2103   19.8739 C   0  0  2  0  0  0
  -28.7038  -13.0077   20.9977 C   0  0  0  0  0  0
  -25.2582  -13.8177   20.5672 C   0  0  0  0  0  0
  -24.1838  -13.0449   20.9171 C   0  0  0  0  0  0
  -24.6395  -11.6910   20.8728 C   0  0  0  0  0  0
  -23.9066  -10.4298   21.0402 C   0  0  0  0  0  0
  -24.3617   -9.4218   21.9184 C   0  0  0  0  0  0
  -23.6293   -8.2254   22.0759 C   0  0  0  0  0  0
  -22.4277   -8.0287   21.3545 C   0  0  0  0  0  0
  -21.9917   -9.0251   20.4635 C   0  0  0  0  0  0
  -22.7239  -10.2137   20.3045 C   0  0  0  0  0  0
  -21.6847   -6.0734   22.5278 C   0  0  0  0  0  0
  -21.4016   -6.5636   23.8211 C   0  0  0  0  0  0
  -21.3663   -5.6789   24.9171 C   0  0  0  0  0  0
  -21.6043   -4.3053   24.7218 C   0  0  0  0  0  0
  -21.8821   -3.8143   23.4341 C   0  0  0  0  0  0
  -21.9194   -4.6960   22.3399 C   0  0  0  0  0  0
  -22.7860  -13.5237   21.1825 C   0  0  0  0  0  0
  -22.1658   -4.2147   21.0977 F   0  0  0  0  0  0
  -21.5630   -3.4540   25.7737 F   0  0  0  0  0  0
  -30.0372  -13.2935   20.4419 N   0  0  0  0  0  0
  -26.3026  -12.9346   20.3363 N   0  0  0  0  0  0
  -25.9328  -11.6507   20.5764 N   0  0  0  0  0  0
  -22.0491  -12.8225   22.0364 N   0  0  0  0  0  0
  -25.4297  -15.1897   20.4067 N   0  0  0  0  0  0
  -31.8565  -14.5974   20.0875 O   0  0  0  0  0  0
  -21.6638   -6.8881   21.4240 O   0  0  0  0  0  0
  -22.3552  -14.5543   20.6680 O   0  0  0  0  0  0
  -24.6121  -31.8691   23.2111 C   0  0  0  0  0  0
  -25.9037  -32.4815   23.8386 C   0  0  1  0  0  0
  -27.2404  -27.4380   20.0840 C   0  0  0  0  0  0
  -25.5918  -33.8608   24.2330 N   0  0  0  0  0  0
  -23.4001  -30.4905   21.5510 C   0  0  2  0  0  0
  -24.8477  -28.9564   20.1144 C   0  0  0  0  0  0
  -22.7399  -29.4648   22.4991 C   0  0  0  0  0  0
  -18.0273  -28.1375   22.8478 C   0  0  0  0  0  0
  -24.1482  -36.7293   23.2644 C   0  0  0  0  0  0
  -25.9283  -30.8300   21.3680 C   0  0  0  0  0  0
  -26.0043  -29.4634   20.7166 C   0  0  0  0  0  0
  -27.1949  -28.7050   20.7106 C   0  0  0  0  0  0
  -26.0626  -26.9458   19.4724 C   0  0  0  0  0  0
  -24.8699  -27.6944   19.4962 C   0  0  0  0  0  0
  -23.6101  -29.8243   20.1642 C   0  0  0  0  0  0
  -25.4112  -36.3093   24.0340 C   0  0  1  0  0  0
  -20.5861  -28.3660   23.1327 C   0  0  2  0  0  0
  -20.6767  -26.9392   22.5430 C   0  0  0  0  0  0
  -19.5753  -26.6381   21.5213 C   0  0  0  0  0  0
  -18.1916  -26.7924   22.1605 C   0  0  0  0  0  0
  -19.1520  -28.8830   23.2888 C   0  0  0  0  0  0
  -18.9452  -30.1430   23.8906 C   0  0  0  0  0  0
  -17.6464  -30.6583   24.0563 C   0  0  0  0  0  0
  -25.9044  -34.9460   23.5127 C   0  0  0  0  0  0
  -16.5358  -29.9091   23.6325 C   0  0  0  0  0  0
  -16.7270  -28.6510   23.0344 C   0  0  0  0  0  0
  -26.4482  -31.6595   25.0707 C   0  0  0  0  0  0
  -25.3748  -31.3700   26.1453 C   0  0  0  0  0  0
  -27.0347  -30.3051   24.6073 C   0  0  0  0  0  0
  -27.6024  -32.4355   25.7473 C   0  0  0  0  0  0
  -27.5574  -37.1804   24.8467 C   0  0  0  0  0  0
  -21.4134  -29.3022   22.3731 N   0  0  0  0  0  0
  -26.4296  -37.3784   23.9405 N   0  0  0  0  0  0
  -24.6645  -31.0780   22.1016 N   0  0  0  0  0  0
  -23.4169  -28.8185   23.3030 O   0  0  0  0  0  0
  -28.4345  -26.7434   20.1257 O   0  0  0  0  0  0
  -26.5596  -34.8903   22.4680 O   0  0  0  0  0  0
  -23.5323  -32.1462   23.7511 O   0  0  0  0  0  0
  -31.7425  -18.8583   20.6934 C   0  0  0  0  0  0
  -30.7978  -19.6972   21.3120 C   0  0  0  0  0  0
  -31.5265  -17.4713   20.6135 C   0  0  0  0  0  0
  -29.4073  -17.7579   21.7580 C   0  0  0  0  0  0
  -29.6086  -19.1637   21.8640 C   0  0  0  0  0  0
  -30.3489  -16.8941   21.1483 C   0  0  0  0  0  0
  -28.4379  -23.9028   23.5817 C   0  0  0  0  0  0
  -28.1432  -22.4060   23.6998 C   0  0  0  0  0  0
  -27.9790  -24.4477   22.2277 C   0  0  0  0  0  0
  -28.4334  -22.2469   21.1835 C   0  0  0  0  0  0
  -28.8237  -21.6059   22.5589 C   0  0  2  0  0  0
  -30.1914  -25.5623   19.0542 C   0  0  0  0  0  0
  -28.6805  -19.5581   24.1111 C   0  0  0  0  0  0
  -27.1482  -19.6969   22.1496 C   0  0  0  0  0  0
  -28.1094  -24.2498   19.7752 C   0  0  0  0  0  0
  -28.6760  -25.6139   19.2785 C   0  0  1  0  0  0
  -28.5796  -20.0314   22.6406 C   0  0  0  0  0  0
  -30.0450  -15.4889   21.1137 N   0  0  0  0  0  0
  -28.6149  -23.7340   21.0879 N   0  3  1  0  0  0
  -31.4610  -12.3713   19.1290 H   0  0  0  0  0  0
  -30.2987  -11.2884   19.8372 H   0  0  0  0  0  0
  -29.7288  -11.7653   17.4356 H   0  0  0  0  0  0
  -29.6704  -13.4784   17.7702 H   0  0  0  0  0  0
  -27.8211  -11.3102   18.8182 H   0  0  0  0  0  0
  -27.3678  -12.6411   17.7867 H   0  0  0  0  0  0
  -27.6999  -14.2550   19.5676 H   0  0  0  0  0  0
  -28.6755  -11.9797   21.3624 H   0  0  0  0  0  0
  -28.4673  -13.6283   21.8630 H   0  0  0  0  0  0
  -25.2760   -9.5690   22.4763 H   0  0  0  0  0  0
  -23.9985   -7.4656   22.7495 H   0  0  0  0  0  0
  -21.0853   -8.8775   19.8940 H   0  0  0  0  0  0
  -22.3705  -10.9679   19.6154 H   0  0  0  0  0  0
  -21.2011   -7.6141   23.9711 H   0  0  0  0  0  0
  -21.1479   -6.0520   25.9073 H   0  0  0  0  0  0
  -22.0598   -2.7608   23.2845 H   0  0  0  0  0  0
  -22.4089  -11.9859   22.4731 H   0  0  0  0  0  0
  -21.1104  -13.1253   22.2555 H   0  0  0  0  0  0
  -24.6607  -15.8434   20.5025 H   0  0  0  0  0  0
  -26.2776  -15.6263   20.0665 H   0  0  0  0  0  0
  -26.7089  -32.5542   23.1140 H   0  0  0  0  0  0
  -25.0051  -33.9784   25.0461 H   0  0  0  0  0  0
  -22.6881  -31.3064   21.4121 H   0  0  0  0  0  0
  -23.3746  -35.9617   23.3310 H   0  0  0  0  0  0
  -24.3567  -36.8920   22.2055 H   0  0  0  0  0  0
  -23.7227  -37.6493   23.6669 H   0  0  0  0  0  0
  -26.0437  -31.5949   20.5991 H   0  0  0  0  0  0
  -26.8146  -30.8829   21.9883 H   0  0  0  0  0  0
  -28.0870  -29.0924   21.1819 H   0  0  0  0  0  0
  -26.0317  -25.9910   18.9728 H   0  0  0  0  0  0
  -23.9785  -27.3009   19.0289 H   0  0  0  0  0  0
  -23.7196  -30.6027   19.4079 H   0  0  0  0  0  0
  -22.7347  -29.2483   19.8622 H   0  0  0  0  0  0
  -25.1276  -36.1963   25.0836 H   0  0  0  0  0  0
  -20.9924  -28.3226   24.1462 H   0  0  0  0  0  0
  -20.5688  -26.2244   23.3605 H   0  0  0  0  0  0
  -21.6636  -26.7435   22.1230 H   0  0  0  0  0  0
  -19.6920  -25.6301   21.1226 H   0  0  0  0  0  0
  -19.6715  -27.3189   20.6746 H   0  0  0  0  0  0
  -17.4198  -26.6688   21.3994 H   0  0  0  0  0  0
  -18.0287  -26.0047   22.8974 H   0  0  0  0  0  0
  -19.7936  -30.7223   24.2296 H   0  0  0  0  0  0
  -17.5036  -31.6264   24.5151 H   0  0  0  0  0  0
  -15.5360  -30.3006   23.7655 H   0  0  0  0  0  0
  -15.8664  -28.0852   22.7052 H   0  0  0  0  0  0
  -24.5926  -30.7049   25.7792 H   0  0  0  0  0  0
  -24.8932  -32.2854   26.4896 H   0  0  0  0  0  0
  -25.8109  -30.8874   27.0211 H   0  0  0  0  0  0
  -26.2907  -29.6783   24.1158 H   0  0  0  0  0  0
  -27.4180  -29.7310   25.4522 H   0  0  0  0  0  0
  -27.8688  -30.4387   23.9184 H   0  0  0  0  0  0
  -27.2618  -33.3662   26.2023 H   0  0  0  0  0  0
  -28.3844  -32.6946   25.0322 H   0  0  0  0  0  0
  -28.0677  -31.8515   26.5426 H   0  0  0  0  0  0
  -28.2590  -38.0099   24.7503 H   0  0  0  0  0  0
  -28.1078  -36.2635   24.6314 H   0  0  0  0  0  0
  -27.2290  -37.1472   25.8869 H   0  0  0  0  0  0
  -20.9300  -29.8740   21.6949 H   0  0  0  0  0  0
  -26.0180  -38.2854   24.1423 H   0  0  0  0  0  0
  -32.6516  -19.2822   20.2897 H   0  0  0  0  0  0
  -31.0383  -20.7467   21.3616 H   0  0  0  0  0  0
  -32.2945  -16.8888   20.1316 H   0  0  0  0  0  0
  -28.5190  -17.3153   22.1816 H   0  0  0  0  0  0
  -29.5030  -24.0937   23.7232 H   0  0  0  0  0  0
  -27.9234  -24.4387   24.3802 H   0  0  0  0  0  0
  -27.0656  -22.2455   23.7003 H   0  0  0  0  0  0
  -28.5078  -22.0935   24.6775 H   0  0  0  0  0  0
  -28.2156  -25.5091   22.1925 H   0  0  0  0  0  0
  -26.8939  -24.3666   22.1551 H   0  0  0  0  0  0
  -27.3830  -22.0471   20.9703 H   0  0  0  0  0  0
  -29.0043  -21.7647   20.3883 H   0  0  0  0  0  0
  -29.8825  -21.7900   22.7329 H   0  0  0  0  0  0
  -30.4681  -24.7326   18.4032 H   0  0  0  0  0  0
  -30.7333  -25.4527   19.9926 H   0  0  0  0  0  0
  -30.5389  -26.4813   18.5810 H   0  0  0  0  0  0
  -29.6519  -19.8043   24.5412 H   0  0  0  0  0  0
  -28.5547  -18.4799   24.2053 H   0  0  0  0  0  0
  -27.9074  -19.9907   24.7446 H   0  0  0  0  0  0
  -27.0499  -19.8063   21.0695 H   0  0  0  0  0  0
  -26.4003  -20.3365   22.6167 H   0  0  0  0  0  0
  -26.8521  -18.6750   22.3839 H   0  0  0  0  0  0
  -28.3597  -23.5228   19.0016 H   0  0  0  0  0  0
  -27.0212  -24.2612   19.7989 H   0  0  0  0  0  0
  -28.2296  -25.8191   18.3032 H   0  0  0  0  0  0
  -29.1404  -15.2296   21.4743 H   0  0  0  0  0  0
  -29.6083  -23.9110   21.1349 H   0  0  0  0  0  0
  1 25  1  0  0  0
  1 30  2  0  0  0
  1 88  1  0  0  0
  2  3  1  0  0  0
  2 25  1  0  0  0
  2 90  1  0  0  0
  2 91  1  0  0  0
  3  4  1  0  0  0
  3 92  1  0  0  0
  3 93  1  0  0  0
  4  5  1  0  0  0
  4 94  1  0  0  0
  4 95  1  0  0  0
  5  6  1  0  0  0
  5 26  1  0  0  0
  5 96  1  0  0  0
  6 25  1  0  0  0
  6 97  1  0  0  0
  6 98  1  0  0  0
  7  8  2  0  0  0
  7 26  1  0  0  0
  7 29  1  0  0  0
  8  9  1  0  0  0
  8 22  1  0  0  0
  9 10  1  0  0  0
  9 27  2  0  0  0
 10 11  2  0  0  0
 10 15  1  0  0  0
 11 12  1  0  0  0
 11 99  1  0  0  0
 12 13  2  0  0  0
 12100  1  0  0  0
 13 14  1  0  0  0
 13 31  1  0  0  0
 14 15  2  0  0  0
 14101  1  0  0  0
 15102  1  0  0  0
 16 17  2  0  0  0
 16 21  1  0  0  0
 16 31  1  0  0  0
 17 18  1  0  0  0
 17103  1  0  0  0
 18 19  2  0  0  0
 18104  1  0  0  0
 19 20  1  0  0  0
 19 24  1  0  0  0
 20 21  2  0  0  0
 20105  1  0  0  0
 21 23  1  0  0  0
 22 28  1  0  0  0
 22 32  2  0  0  0
 26 27  1  0  0  0
 28106  1  0  0  0
 28107  1  0  0  0
 29108  1  0  0  0
 29109  1  0  0  0
 33 34  1  0  0  0
 33 66  1  0  0  0
 33 70  2  0  0  0
 34 36  1  0  0  0
 34 59  1  0  0  0
 34110  1  0  0  0
 35 44  2  0  0  0
 35 45  1  0  0  0
 35 68  1  0  0  0
 36 56  1  0  0  0
 36111  1  0  0  0
 37 39  1  0  0  0
 37 47  1  0  0  0
 37 66  1  0  0  0
 37112  1  0  0  0
 38 43  2  0  0  0
 38 46  1  0  0  0
 38 47  1  0  0  0
 39 64  1  0  0  0
 39 67  2  0  0  0
 40 52  1  0  0  0
 40 53  2  0  0  0
 40 58  1  0  0  0
 41113  1  0  0  0
 41114  1  0  0  0
 41115  1  0  0  0
 41 48  1  0  0  0
 42 43  1  0  0  0
 42 66  1  0  0  0
 42116  1  0  0  0
 42117  1  0  0  0
 43 44  1  0  0  0
 44118  1  0  0  0
 45 46  2  0  0  0
 45119  1  0  0  0
 46120  1  0  0  0
 47121  1  0  0  0
 47122  1  0  0  0
 48 56  1  0  0  0
 48 65  1  0  0  0
 48123  1  0  0  0
 49 50  1  0  0  0
 49 53  1  0  0  0
 49 64  1  0  0  0
 49124  1  0  0  0
 50 51  1  0  0  0
 50125  1  0  0  0
 50126  1  0  0  0
 51 52  1  0  0  0
 51127  1  0  0  0
 51128  1  0  0  0
 52129  1  0  0  0
 52130  1  0  0  0
 53 54  1  0  0  0
 54 55  2  0  0  0
 54131  1  0  0  0
 55 57  1  0  0  0
 55132  1  0  0  0
 56 69  2  0  0  0
 57 58  2  0  0  0
 57133  1  0  0  0
 58134  1  0  0  0
 59 60  1  0  0  0
 59 61  1  0  0  0
 59 62  1  0  0  0
 60135  1  0  0  0
 60136  1  0  0  0
 60137  1  0  0  0
 61138  1  0  0  0
 61139  1  0  0  0
 61140  1  0  0  0
 62141  1  0  0  0
 62142  1  0  0  0
 62143  1  0  0  0
 63 65  1  0  0  0
 63144  1  0  0  0
 63145  1  0  0  0
 63146  1  0  0  0
 64147  1  0  0  0
 65148  1  0  0  0
 68 86  1  0  0  0
 71 72  2  0  0  0
 71 73  1  0  0  0
 71149  1  0  0  0
 72 75  1  0  0  0
 72150  1  0  0  0
 73 76  2  0  0  0
 73151  1  0  0  0
 74 75  2  0  0  0
 74 76  1  0  0  0
 74152  1  0  0  0
 75 87  1  0  0  0
 76 88  1  0  0  0
 77 78  1  0  0  0
 77 79  1  0  0  0
 77153  1  0  0  0
 77154  1  0  0  0
 78155  1  0  0  0
 78156  1  0  0  0
 78 81  1  0  0  0
 79 89  1  0  0  0
 79157  1  0  0  0
 79158  1  0  0  0
 80 81  1  0  0  0
 80 89  1  0  0  0
 80159  1  0  0  0
 80160  1  0  0  0
 81 87  1  0  0  0
 81161  1  0  0  0
 82162  1  0  0  0
 82163  1  0  0  0
 82164  1  0  0  0
 82 86  1  0  0  0
 83165  1  0  0  0
 83166  1  0  0  0
 83167  1  0  0  0
 83 87  1  0  0  0
 84 87  1  0  0  0
 84168  1  0  0  0
 84169  1  0  0  0
 84170  1  0  0  0
 85 86  1  0  0  0
 85171  1  0  0  0
 85172  1  0  0  0
 85 89  1  0  0  0
 86173  1  0  0  0
 88174  1  0  0  0
 89175  1  0  0  0
M  CHG  1  89   1
M  ISO  4   1 100  68 101  86 101  88 100
M  END
> <chiral flag>
0

> <version>
0

> <s_m_source_file>
/data/baiqing/PycharmProjects/Reinvent-master-3.2/result/LINK_invent/BTK/process_docking_weight1_custom_sum_contain_oxygen_bond_distance_aromatic_linkinvent_7_9_3/rearranged_h_0119.sdf

> <i_m_source_file_index>
100

> <r_mmod_Potential_Energy-OPLS-2005>
-48.9160575866699

> <r_mmod_Stretch_Energy-OPLS-2005>
50.0864944458008

> <r_mmod_Bend_Energy-OPLS-2005>
135.740829467773

> <r_mmod_Torsional_Energy-OPLS-2005>
260.245483398438

> <r_mmod_Improper_Torsional_Energy-OPLS-2005>
3.15110063552856

> <r_mmod_Van_der_Waal_Energy-OPLS-2005>
176.667465209961

> <r_mmod_Electrostatic_Energy-OPLS-2005>
-292.882965087891

> <r_mmod_Solvation_Energy-OPLS-2005>
-395.709686279297

> <b_mmod_Minimization_Converged-OPLS-2005>
0

> <r_mmod_RMS_Derivative-OPLS-2005>
2.28281402587891

$$$$
