0
                    3D
 Structure written by MMmdl.
168178  0  0  1  0            999 V2000
  -30.7412  -14.6146   20.5676 C   0  0  0  0  0  0
  -30.4030  -12.4046   19.4593 C   0  0  0  0  0  0
  -29.4945  -12.5312   18.2193 C   0  0  0  0  0  0
  -28.0167  -12.3781   18.6197 C   0  0  0  0  0  0
  -27.6454  -13.2390   19.8561 C   0  0  2  0  0  0
  -28.6856  -13.1147   20.9891 C   0  0  0  0  0  0
  -25.2502  -13.8219   20.5700 C   0  0  0  0  0  0
  -24.1796  -13.0443   20.9189 C   0  0  0  0  0  0
  -24.6399  -11.6924   20.8718 C   0  0  0  0  0  0
  -23.9070  -10.4299   21.0378 C   0  0  0  0  0  0
  -24.3624   -9.4220   21.9167 C   0  0  0  0  0  0
  -23.6298   -8.2260   22.0749 C   0  0  0  0  0  0
  -22.4281   -8.0282   21.3546 C   0  0  0  0  0  0
  -21.9914   -9.0253   20.4630 C   0  0  0  0  0  0
  -22.7241  -10.2128   20.3038 C   0  0  0  0  0  0
  -21.6858   -6.0731   22.5285 C   0  0  0  0  0  0
  -21.4013   -6.5634   23.8213 C   0  0  0  0  0  0
  -21.3663   -5.6794   24.9177 C   0  0  0  0  0  0
  -21.6052   -4.3057   24.7240 C   0  0  0  0  0  0
  -21.8810   -3.8144   23.4357 C   0  0  0  0  0  0
  -21.9189   -4.6952   22.3412 C   0  0  0  0  0  0
  -22.7812  -13.5210   21.1874 C   0  0  0  0  0  0
  -22.1653   -4.2144   21.0987 F   0  0  0  0  0  0
  -21.5641   -3.4536   25.7746 F   0  0  0  0  0  0
  -30.0067  -13.4517   20.4357 N   0  0  0  0  0  0
  -26.2949  -12.9447   20.3283 N   0  0  0  0  0  0
  -25.9333  -11.6583   20.5718 N   0  0  0  0  0  0
  -22.0469  -12.8179   22.0423 N   0  0  0  0  0  0
  -25.4180  -15.1946   20.4152 N   0  0  0  0  0  0
  -31.8497  -14.6694   20.0262 O   0  0  0  0  0  0
  -21.6648   -6.8880   21.4248 O   0  0  0  0  0  0
  -22.3487  -14.5522   20.6737 O   0  0  0  0  0  0
  -24.6267  -31.8587   23.1998 C   0  0  0  0  0  0
  -25.9135  -32.4747   23.8320 C   0  0  1  0  0  0
  -27.2130  -27.3044   20.1436 C   0  0  0  0  0  0
  -25.5953  -33.8554   24.2236 N   0  0  0  0  0  0
  -23.4169  -30.4821   21.5412 C   0  0  2  0  0  0
  -24.8667  -28.9355   20.1070 C   0  0  0  0  0  0
  -22.7469  -29.4611   22.4929 C   0  0  0  0  0  0
  -18.0295  -28.1347   22.8460 C   0  0  0  0  0  0
  -24.1510  -36.7290   23.2627 C   0  0  0  0  0  0
  -25.9596  -30.7860   21.3717 C   0  0  0  0  0  0
  -26.0341  -29.4114   20.7197 C   0  0  0  0  0  0
  -27.2142  -28.6073   20.7264 C   0  0  0  0  0  0
  -26.0336  -26.8919   19.4849 C   0  0  0  0  0  0
  -24.8694  -27.6814   19.4777 C   0  0  0  0  0  0
  -23.6321  -29.8142   20.1569 C   0  0  0  0  0  0
  -25.4128  -36.3047   24.0306 C   0  0  1  0  0  0
  -20.5891  -28.3660   23.1258 C   0  0  2  0  0  0
  -20.6795  -26.9382   22.5372 C   0  0  0  0  0  0
  -19.5772  -26.6357   21.5169 C   0  0  0  0  0  0
  -18.1953  -26.7889   22.1589 C   0  0  0  0  0  0
  -19.1546  -28.8826   23.2851 C   0  0  0  0  0  0
  -18.9485  -30.1432   23.8840 C   0  0  0  0  0  0
  -17.6482  -30.6552   24.0554 C   0  0  0  0  0  0
  -25.9056  -34.9429   23.5070 C   0  0  0  0  0  0
  -16.5374  -29.9032   23.6339 C   0  0  0  0  0  0
  -16.7290  -28.6461   23.0322 C   0  0  0  0  0  0
  -26.4511  -31.6553   25.0701 C   0  0  0  0  0  0
  -25.3739  -31.3677   26.1421 C   0  0  0  0  0  0
  -27.0382  -30.2992   24.6163 C   0  0  0  0  0  0
  -27.6060  -32.4307   25.7470 C   0  0  0  0  0  0
  -27.5572  -37.1797   24.8453 C   0  0  0  0  0  0
  -21.4191  -29.3031   22.3674 N   0  0  0  0  0  0
  -26.4282  -37.3752   23.9406 N   0  0  0  0  0  0
  -24.6858  -31.0596   22.0936 N   0  0  0  0  0  0
  -23.4215  -28.8146   23.2989 O   0  0  0  0  0  0
  -28.3027  -26.4235   20.1961 O   0  0  0  0  0  0
  -26.5622  -34.8911   22.4625 O   0  0  0  0  0  0
  -23.5451  -32.1395   23.7340 O   0  0  0  0  0  0
  -28.9025  -18.7955   21.2980 C   0  0  0  0  0  0
  -30.2351  -18.5217   20.8859 C   0  0  0  0  0  0
  -28.4409  -20.1427   21.2629 C   0  0  0  0  0  0
  -30.9642  -19.6756   20.4296 C   0  0  0  0  0  0
  -29.2407  -21.2093   20.8627 C   0  0  0  0  0  0
  -27.0831  -20.6538   21.6269 C   0  0  0  0  0  0
  -30.9083  -16.5920   23.3295 C   0  0  0  0  0  0
  -31.8428  -17.0881   22.2375 C   0  0  0  0  0  0
  -27.1883  -22.1458   21.2233 C   0  0  0  0  0  0
  -29.8938  -15.7046   22.5916 C   0  0  0  0  0  0
  -30.9454  -17.0980   20.9887 C   0  0  1  0  0  0
  -32.3817  -19.5546   19.8930 C   0  0  0  0  0  0
  -30.4207  -24.2026   20.6280 C   0  0  0  0  0  0
  -28.0340  -25.0578   20.7306 C   0  0  0  0  0  0
  -28.9655  -23.8084   20.3410 C   0  0  2  0  0  0
  -30.4912  -20.9648   20.4249 N   0  0  0  0  0  0
  -28.6030  -22.4928   20.9916 N   0  0  0  0  0  0
  -30.2178  -15.7668   21.1529 N   0  0  0  0  0  0
  -31.4501  -12.4646   19.1596 H   0  0  0  0  0  0
  -30.2947  -11.4143   19.9034 H   0  0  0  0  0  0
  -29.7581  -11.7782   17.4753 H   0  0  0  0  0  0
  -29.6500  -13.5010   17.7423 H   0  0  0  0  0  0
  -27.8356  -11.3236   18.8278 H   0  0  0  0  0  0
  -27.3712  -12.6383   17.7791 H   0  0  0  0  0  0
  -27.6575  -14.2769   19.5231 H   0  0  0  0  0  0
  -28.6984  -12.0990   21.3878 H   0  0  0  0  0  0
  -28.3920  -13.7546   21.8164 H   0  0  0  0  0  0
  -25.2767   -9.5706   22.4730 H   0  0  0  0  0  0
  -24.0010   -7.4655   22.7477 H   0  0  0  0  0  0
  -21.0848   -8.8748   19.8935 H   0  0  0  0  0  0
  -22.3684  -10.9660   19.6136 H   0  0  0  0  0  0
  -21.1996   -7.6139   23.9719 H   0  0  0  0  0  0
  -21.1501   -6.0523   25.9086 H   0  0  0  0  0  0
  -22.0584   -2.7604   23.2865 H   0  0  0  0  0  0
  -22.4102  -11.9840   22.4801 H   0  0  0  0  0  0
  -21.1076  -13.1171   22.2632 H   0  0  0  0  0  0
  -24.6517  -15.8484   20.5302 H   0  0  0  0  0  0
  -26.2737  -15.6385   20.1061 H   0  0  0  0  0  0
  -26.7193  -32.5434   23.1066 H   0  0  0  0  0  0
  -25.0177  -33.9676   25.0436 H   0  0  0  0  0  0
  -22.7105  -31.3034   21.3964 H   0  0  0  0  0  0
  -23.3752  -35.9639   23.3278 H   0  0  0  0  0  0
  -24.3593  -36.8942   22.2034 H   0  0  0  0  0  0
  -23.7324  -37.6512   23.6684 H   0  0  0  0  0  0
  -26.0903  -31.5437   20.5976 H   0  0  0  0  0  0
  -26.8406  -30.8367   21.9999 H   0  0  0  0  0  0
  -28.1091  -28.9603   21.2203 H   0  0  0  0  0  0
  -25.9978  -25.9356   18.9852 H   0  0  0  0  0  0
  -23.9790  -27.3143   18.9850 H   0  0  0  0  0  0
  -23.7439  -30.5882   19.3966 H   0  0  0  0  0  0
  -22.7538  -29.2378   19.8573 H   0  0  0  0  0  0
  -25.1309  -36.1858   25.0798 H   0  0  0  0  0  0
  -20.9969  -28.3228   24.1377 H   0  0  0  0  0  0
  -20.5673  -26.2271   23.3571 H   0  0  0  0  0  0
  -21.6680  -26.7372   22.1183 H   0  0  0  0  0  0
  -19.6925  -25.6255   21.1231 H   0  0  0  0  0  0
  -19.6713  -27.3163   20.6692 H   0  0  0  0  0  0
  -17.4211  -26.6618   21.3993 H   0  0  0  0  0  0
  -18.0366  -25.9997   22.8954 H   0  0  0  0  0  0
  -19.7957  -30.7290   24.2139 H   0  0  0  0  0  0
  -17.5032  -31.6218   24.5172 H   0  0  0  0  0  0
  -15.5375  -30.2932   23.7680 H   0  0  0  0  0  0
  -15.8686  -28.0813   22.6998 H   0  0  0  0  0  0
  -24.5941  -30.6974   25.7779 H   0  0  0  0  0  0
  -24.8886  -32.2827   26.4831 H   0  0  0  0  0  0
  -25.8063  -30.8890   27.0218 H   0  0  0  0  0  0
  -26.2957  -29.6714   24.1222 H   0  0  0  0  0  0
  -27.4140  -29.7272   25.4667 H   0  0  0  0  0  0
  -27.8793  -30.4296   23.9345 H   0  0  0  0  0  0
  -27.2659  -33.3648   26.1961 H   0  0  0  0  0  0
  -28.3901  -32.6806   25.0300 H   0  0  0  0  0  0
  -28.0692  -31.8490   26.5457 H   0  0  0  0  0  0
  -28.2546  -38.0127   24.7530 H   0  0  0  0  0  0
  -28.1109  -36.2661   24.6243 H   0  0  0  0  0  0
  -27.2294  -37.1404   25.8853 H   0  0  0  0  0  0
  -20.9382  -29.8792   21.6914 H   0  0  0  0  0  0
  -26.0141  -38.2815   24.1437 H   0  0  0  0  0  0
  -28.2590  -18.0066   21.6562 H   0  0  0  0  0  0
  -26.9060  -20.5304   22.6966 H   0  0  0  0  0  0
  -26.2970  -20.1382   21.0732 H   0  0  0  0  0  0
  -30.4033  -17.4362   23.8019 H   0  0  0  0  0  0
  -31.4467  -16.0512   24.1120 H   0  0  0  0  0  0
  -32.6458  -16.3594   22.1053 H   0  0  0  0  0  0
  -32.3194  -18.0379   22.4777 H   0  0  0  0  0  0
  -26.7362  -22.7909   21.9783 H   0  0  0  0  0  0
  -26.6463  -22.3108   20.2899 H   0  0  0  0  0  0
  -28.8770  -16.0589   22.7605 H   0  0  0  0  0  0
  -29.9542  -14.6943   23.0009 H   0  0  0  0  0  0
  -31.5740  -17.0465   20.0986 H   0  0  0  0  0  0
  -33.0441  -19.0881   20.6200 H   0  0  0  0  0  0
  -32.8062  -20.5277   19.6469 H   0  0  0  0  0  0
  -32.3972  -18.9551   18.9827 H   0  0  0  0  0  0
  -30.6662  -25.1231   20.1009 H   0  0  0  0  0  0
  -31.1299  -23.4474   20.2938 H   0  0  0  0  0  0
  -30.5807  -24.3802   21.6916 H   0  0  0  0  0  0
  -28.0556  -25.1569   21.8175 H   0  0  0  0  0  0
  -27.0093  -24.7672   20.5058 H   0  0  0  0  0  0
  -28.8719  -23.6473   19.2664 H   0  0  0  0  0  0
  1 25  1  0  0  0
  1 30  2  0  0  0
  1 88  1  0  0  0
  2  3  1  0  0  0
  2 25  1  0  0  0
  2 89  1  0  0  0
  2 90  1  0  0  0
  3  4  1  0  0  0
  3 91  1  0  0  0
  3 92  1  0  0  0
  4  5  1  0  0  0
  4 93  1  0  0  0
  4 94  1  0  0  0
  5  6  1  0  0  0
  5 26  1  0  0  0
  5 95  1  0  0  0
  6 25  1  0  0  0
  6 96  1  0  0  0
  6 97  1  0  0  0
  7  8  2  0  0  0
  7 26  1  0  0  0
  7 29  1  0  0  0
  8  9  1  0  0  0
  8 22  1  0  0  0
  9 10  1  0  0  0
  9 27  2  0  0  0
 10 11  2  0  0  0
 10 15  1  0  0  0
 11 12  1  0  0  0
 11 98  1  0  0  0
 12 13  2  0  0  0
 12 99  1  0  0  0
 13 14  1  0  0  0
 13 31  1  0  0  0
 14 15  2  0  0  0
 14100  1  0  0  0
 15101  1  0  0  0
 16 17  2  0  0  0
 16 21  1  0  0  0
 16 31  1  0  0  0
 17 18  1  0  0  0
 17102  1  0  0  0
 18 19  2  0  0  0
 18103  1  0  0  0
 19 20  1  0  0  0
 19 24  1  0  0  0
 20 21  2  0  0  0
 20104  1  0  0  0
 21 23  1  0  0  0
 22 28  1  0  0  0
 22 32  2  0  0  0
 26 27  1  0  0  0
 28105  1  0  0  0
 28106  1  0  0  0
 29107  1  0  0  0
 29108  1  0  0  0
 33 34  1  0  0  0
 33 66  1  0  0  0
 33 70  2  0  0  0
 34 36  1  0  0  0
 34 59  1  0  0  0
 34109  1  0  0  0
 35 44  2  0  0  0
 35 45  1  0  0  0
 35 68  1  0  0  0
 36 56  1  0  0  0
 36110  1  0  0  0
 37 39  1  0  0  0
 37 47  1  0  0  0
 37 66  1  0  0  0
 37111  1  0  0  0
 38 43  2  0  0  0
 38 46  1  0  0  0
 38 47  1  0  0  0
 39 64  1  0  0  0
 39 67  2  0  0  0
 40 52  1  0  0  0
 40 53  2  0  0  0
 40 58  1  0  0  0
 41112  1  0  0  0
 41113  1  0  0  0
 41114  1  0  0  0
 41 48  1  0  0  0
 42 43  1  0  0  0
 42 66  1  0  0  0
 42115  1  0  0  0
 42116  1  0  0  0
 43 44  1  0  0  0
 44117  1  0  0  0
 45 46  2  0  0  0
 45118  1  0  0  0
 46119  1  0  0  0
 47120  1  0  0  0
 47121  1  0  0  0
 48 56  1  0  0  0
 48 65  1  0  0  0
 48122  1  0  0  0
 49 50  1  0  0  0
 49 53  1  0  0  0
 49 64  1  0  0  0
 49123  1  0  0  0
 50 51  1  0  0  0
 50124  1  0  0  0
 50125  1  0  0  0
 51 52  1  0  0  0
 51126  1  0  0  0
 51127  1  0  0  0
 52128  1  0  0  0
 52129  1  0  0  0
 53 54  1  0  0  0
 54 55  2  0  0  0
 54130  1  0  0  0
 55 57  1  0  0  0
 55131  1  0  0  0
 56 69  2  0  0  0
 57 58  2  0  0  0
 57132  1  0  0  0
 58133  1  0  0  0
 59 60  1  0  0  0
 59 61  1  0  0  0
 59 62  1  0  0  0
 60134  1  0  0  0
 60135  1  0  0  0
 60136  1  0  0  0
 61137  1  0  0  0
 61138  1  0  0  0
 61139  1  0  0  0
 62140  1  0  0  0
 62141  1  0  0  0
 62142  1  0  0  0
 63 65  1  0  0  0
 63143  1  0  0  0
 63144  1  0  0  0
 63145  1  0  0  0
 64146  1  0  0  0
 65147  1  0  0  0
 68 84  1  0  0  0
 71 72  2  0  0  0
 71 73  1  0  0  0
 71148  1  0  0  0
 72 74  1  0  0  0
 72 81  1  0  0  0
 73 75  2  0  0  0
 73 76  1  0  0  0
 74 82  1  0  0  0
 74 86  2  0  0  0
 75 86  1  0  0  0
 75 87  1  0  0  0
 76 79  1  0  0  0
 76149  1  0  0  0
 76150  1  0  0  0
 77 78  1  0  0  0
 77 80  1  0  0  0
 77151  1  0  0  0
 77152  1  0  0  0
 78 81  1  0  0  0
 78153  1  0  0  0
 78154  1  0  0  0
 79 87  1  0  0  0
 79155  1  0  0  0
 79156  1  0  0  0
 80 88  1  0  0  0
 80157  1  0  0  0
 80158  1  0  0  0
 81 88  1  0  0  0
 81159  1  0  0  0
 82160  1  0  0  0
 82161  1  0  0  0
 82162  1  0  0  0
 83163  1  0  0  0
 83164  1  0  0  0
 83165  1  0  0  0
 83 85  1  0  0  0
 84 85  1  0  0  0
 84166  1  0  0  0
 84167  1  0  0  0
 85 87  1  0  0  0
 85168  1  0  0  0
M  ISO  4   1 100  68 101  84 101  88 100
M  END
> <chiral flag>
0

> <version>
0

> <s_m_source_file>
/data/baiqing/PycharmProjects/Reinvent-master-3.2/result/LINK_invent/BTK/process_docking_weight1_custom_sum_contain_oxygen_bond_distance_aromatic_linkinvent_7_9_3/rearranged_h_0169.sdf

> <i_m_source_file_index>
1

> <r_mmod_Potential_Energy-OPLS-2005>
222.912948608398

> <r_mmod_Stretch_Energy-OPLS-2005>
102.125663757324

> <r_mmod_Bend_Energy-OPLS-2005>
253.219955444336

> <r_mmod_Torsional_Energy-OPLS-2005>
335.060150146484

> <r_mmod_Improper_Torsional_Energy-OPLS-2005>
10.5828056335449

> <r_mmod_Van_der_Waal_Energy-OPLS-2005>
153.119400024414

> <r_mmod_Electrostatic_Energy-OPLS-2005>
-456.422485351562

> <r_mmod_Solvation_Energy-OPLS-2005>
-225.564376831055

> <b_mmod_Minimization_Converged-OPLS-2005>
0

> <r_mmod_RMS_Derivative-OPLS-2005>
3.12369418144226

$$$$
1
                    3D
 Structure written by MMmdl.
180192  0  0  1  0            999 V2000
  -30.7280  -14.4715   20.5785 C   0  0  0  0  0  0
  -30.4148  -12.3180   19.4261 C   0  0  0  0  0  0
  -29.4884  -12.5129   18.2090 C   0  0  0  0  0  0
  -28.0144  -12.3423   18.6216 C   0  0  0  0  0  0
  -27.6576  -13.1880   19.8695 C   0  0  2  0  0  0
  -28.7034  -12.9764   20.9968 C   0  0  0  0  0  0
  -25.2568  -13.8106   20.5595 C   0  0  0  0  0  0
  -24.1830  -13.0408   20.9175 C   0  0  0  0  0  0
  -24.6378  -11.6874   20.8775 C   0  0  0  0  0  0
  -23.9034  -10.4273   21.0434 C   0  0  0  0  0  0
  -24.3581   -9.4189   21.9202 C   0  0  0  0  0  0
  -23.6258   -8.2229   22.0760 C   0  0  0  0  0  0
  -22.4249   -8.0258   21.3542 C   0  0  0  0  0  0
  -21.9887   -9.0241   20.4654 C   0  0  0  0  0  0
  -22.7215  -10.2118   20.3073 C   0  0  0  0  0  0
  -21.6845   -6.0716   22.5285 C   0  0  0  0  0  0
  -21.4006   -6.5624   23.8214 C   0  0  0  0  0  0
  -21.3657   -5.6784   24.9176 C   0  0  0  0  0  0
  -21.6043   -4.3050   24.7234 C   0  0  0  0  0  0
  -21.8822   -3.8131   23.4352 C   0  0  0  0  0  0
  -21.9194   -4.6948   22.3405 C   0  0  0  0  0  0
  -22.7864  -13.5227   21.1832 C   0  0  0  0  0  0
  -22.1661   -4.2134   21.0982 F   0  0  0  0  0  0
  -21.5632   -3.4531   25.7747 F   0  0  0  0  0  0
  -30.0232  -13.3092   20.4475 N   0  0  0  0  0  0
  -26.2992  -12.9246   20.3325 N   0  0  0  0  0  0
  -25.9300  -11.6430   20.5811 N   0  0  0  0  0  0
  -22.0501  -12.8242   22.0398 N   0  0  0  0  0  0
  -25.4205  -15.1815   20.3844 N   0  0  0  0  0  0
  -31.8625  -14.5855   20.1067 O   0  0  0  0  0  0
  -21.6619   -6.8853   21.4237 O   0  0  0  0  0  0
  -22.3550  -14.5534   20.6678 O   0  0  0  0  0  0
  -24.6114  -31.8705   23.2119 C   0  0  0  0  0  0
  -25.9025  -32.4828   23.8403 C   0  0  1  0  0  0
  -27.2312  -27.4651   20.0952 C   0  0  0  0  0  0
  -25.5905  -33.8626   24.2346 N   0  0  0  0  0  0
  -23.3968  -30.4914   21.5530 C   0  0  2  0  0  0
  -24.8438  -28.9622   20.1138 C   0  0  0  0  0  0
  -22.7388  -29.4658   22.5022 C   0  0  0  0  0  0
  -18.0263  -28.1375   22.8489 C   0  0  0  0  0  0
  -24.1487  -36.7310   23.2638 C   0  0  0  0  0  0
  -25.9209  -30.8440   21.3614 C   0  0  0  0  0  0
  -26.0003  -29.4794   20.7134 C   0  0  0  0  0  0
  -27.1983  -28.7342   20.7094 C   0  0  0  0  0  0
  -26.0686  -26.9595   19.4794 C   0  0  0  0  0  0
  -24.8709  -27.6991   19.4957 C   0  0  0  0  0  0
  -23.6016  -29.8221   20.1669 C   0  0  0  0  0  0
  -25.4111  -36.3116   24.0342 C   0  0  1  0  0  0
  -20.5848  -28.3653   23.1340 C   0  0  2  0  0  0
  -20.6760  -26.9393   22.5424 C   0  0  0  0  0  0
  -19.5740  -26.6372   21.5217 C   0  0  0  0  0  0
  -18.1912  -26.7917   22.1626 C   0  0  0  0  0  0
  -19.1512  -28.8830   23.2909 C   0  0  0  0  0  0
  -18.9444  -30.1438   23.8919 C   0  0  0  0  0  0
  -17.6451  -30.6583   24.0561 C   0  0  0  0  0  0
  -25.9038  -34.9480   23.5143 C   0  0  0  0  0  0
  -16.5341  -29.9094   23.6322 C   0  0  0  0  0  0
  -16.7257  -28.6510   23.0346 C   0  0  0  0  0  0
  -26.4468  -31.6594   25.0715 C   0  0  0  0  0  0
  -25.3737  -31.3680   26.1459 C   0  0  0  0  0  0
  -27.0319  -30.3058   24.6043 C   0  0  0  0  0  0
  -27.6031  -32.4315   25.7501 C   0  0  0  0  0  0
  -27.5578  -37.1819   24.8465 C   0  0  0  0  0  0
  -21.4120  -29.3029   22.3764 N   0  0  0  0  0  0
  -26.4302  -37.3793   23.9399 N   0  0  0  0  0  0
  -24.6610  -31.0817   22.1014 N   0  0  0  0  0  0
  -23.4168  -28.8198   23.3051 O   0  0  0  0  0  0
  -28.3780  -26.7146   20.0924 O   0  0  0  0  0  0
  -26.5573  -34.8930   22.4686 O   0  0  0  0  0  0
  -23.5323  -32.1446   23.7546 O   0  0  0  0  0  0
  -28.3149  -19.3366   20.8786 C   0  0  0  0  0  0
  -28.3011  -18.3357   19.8892 C   0  0  0  0  0  0
  -27.6038  -18.5712   18.6668 C   0  0  0  0  0  0
  -26.7800  -19.7306   18.5384 C   0  0  0  0  0  0
  -26.7950  -20.7211   19.5595 C   0  0  0  0  0  0
  -27.6107  -20.5409   20.7030 C   0  0  0  0  0  0
  -29.1123  -17.2764   16.9163 C   0  0  0  0  0  0
  -28.1546  -18.1101   16.1141 C   0  0  0  0  0  0
  -24.4291  -20.0549   17.3484 C   0  0  0  0  0  0
  -25.0680  -18.8824   16.6665 C   0  0  0  0  0  0
  -27.5884  -24.6677   21.2670 C   0  0  0  0  0  0
  -29.6782  -24.9204   21.1871 C   0  0  0  0  0  0
  -30.5049  -16.9492   20.6569 C   0  0  0  0  0  0
  -28.7848  -16.1056   21.3557 C   0  0  0  0  0  0
  -29.0553  -17.0275   20.1642 C   0  0  0  0  0  0
  -27.7516  -17.6195   17.4958 C   0  0  0  0  0  0
  -25.9428  -19.9566   17.2919 C   0  0  0  0  0  0
  -28.7685  -23.8299   21.7847 C   0  0  2  0  0  0
  -28.5020  -25.8995   21.2570 C   0  0  1  0  0  0
  -25.9949  -22.0157   19.3925 C   0  0  0  0  0  0
  -28.9460  -22.3827   21.3233 C   0  0  0  0  0  0
  -30.1481  -15.5872   21.1058 N   0  0  0  0  0  0
  -27.7791  -21.5652   21.6434 N   0  0  0  0  0  0
  -31.4593  -12.4037   19.1201 H   0  0  0  0  0  0
  -30.3133  -11.3067   19.8237 H   0  0  0  0  0  0
  -29.7405  -11.8058   17.4186 H   0  0  0  0  0  0
  -29.6402  -13.5091   17.7897 H   0  0  0  0  0  0
  -27.8457  -11.2837   18.8284 H   0  0  0  0  0  0
  -27.3567  -12.5972   17.7902 H   0  0  0  0  0  0
  -27.6922  -14.2187   19.5232 H   0  0  0  0  0  0
  -28.6982  -11.9332   21.3159 H   0  0  0  0  0  0
  -28.4783  -13.5322   21.9057 H   0  0  0  0  0  0
  -25.2731   -9.5656   22.4768 H   0  0  0  0  0  0
  -23.9967   -7.4614   22.7471 H   0  0  0  0  0  0
  -21.0825   -8.8755   19.8952 H   0  0  0  0  0  0
  -22.3684  -10.9646   19.6174 H   0  0  0  0  0  0
  -21.1990   -7.6134   23.9703 H   0  0  0  0  0  0
  -21.1474   -6.0517   25.9074 H   0  0  0  0  0  0
  -22.0605   -2.7597   23.2861 H   0  0  0  0  0  0
  -22.4088  -11.9895   22.4789 H   0  0  0  0  0  0
  -21.1135  -13.1299   22.2605 H   0  0  0  0  0  0
  -24.6396  -15.8222   20.4685 H   0  0  0  0  0  0
  -26.2551  -15.6285   20.0298 H   0  0  0  0  0  0
  -26.7093  -32.5561   23.1174 H   0  0  0  0  0  0
  -25.0122  -33.9792   25.0533 H   0  0  0  0  0  0
  -22.6838  -31.3065   21.4150 H   0  0  0  0  0  0
  -23.3752  -35.9638   23.3315 H   0  0  0  0  0  0
  -24.3583  -36.8905   22.2047 H   0  0  0  0  0  0
  -23.7237  -37.6522   23.6638 H   0  0  0  0  0  0
  -26.0240  -31.6081   20.5900 H   0  0  0  0  0  0
  -26.8121  -30.9021   21.9737 H   0  0  0  0  0  0
  -28.0916  -29.1239   21.1775 H   0  0  0  0  0  0
  -26.0872  -25.9928   18.9960 H   0  0  0  0  0  0
  -23.9838  -27.2957   19.0273 H   0  0  0  0  0  0
  -23.6982  -30.5950   19.4026 H   0  0  0  0  0  0
  -22.7286  -29.2317   19.8811 H   0  0  0  0  0  0
  -25.1290  -36.1991   25.0835 H   0  0  0  0  0  0
  -20.9926  -28.3210   24.1465 H   0  0  0  0  0  0
  -20.5675  -26.2258   23.3609 H   0  0  0  0  0  0
  -21.6638  -26.7447   22.1214 H   0  0  0  0  0  0
  -19.6911  -25.6282   21.1254 H   0  0  0  0  0  0
  -19.6698  -27.3181   20.6743 H   0  0  0  0  0  0
  -17.4190  -26.6665   21.4015 H   0  0  0  0  0  0
  -18.0307  -26.0054   22.9014 H   0  0  0  0  0  0
  -19.7928  -30.7229   24.2311 H   0  0  0  0  0  0
  -17.5020  -31.6267   24.5151 H   0  0  0  0  0  0
  -15.5351  -30.3013   23.7628 H   0  0  0  0  0  0
  -15.8653  -28.0837   22.7062 H   0  0  0  0  0  0
  -24.5912  -30.7029   25.7784 H   0  0  0  0  0  0
  -24.8930  -32.2838   26.4914 H   0  0  0  0  0  0
  -25.8095  -30.8839   27.0208 H   0  0  0  0  0  0
  -26.2871  -29.6820   24.1088 H   0  0  0  0  0  0
  -27.4128  -29.7275   25.4470 H   0  0  0  0  0  0
  -27.8675  -30.4416   23.9172 H   0  0  0  0  0  0
  -27.2627  -33.3600   26.2097 H   0  0  0  0  0  0
  -28.3849  -32.6896   25.0344 H   0  0  0  0  0  0
  -28.0685  -31.8425   26.5414 H   0  0  0  0  0  0
  -28.2605  -38.0107   24.7512 H   0  0  0  0  0  0
  -28.1074  -36.2641   24.6311 H   0  0  0  0  0  0
  -27.2291  -37.1485   25.8868 H   0  0  0  0  0  0
  -20.9277  -29.8771   21.7010 H   0  0  0  0  0  0
  -26.0200  -38.2879   24.1380 H   0  0  0  0  0  0
  -28.8935  -19.1880   21.7785 H   0  0  0  0  0  0
  -29.9858  -17.7798   17.3289 H   0  0  0  0  0  0
  -29.2746  -16.2530   16.5834 H   0  0  0  0  0  0
  -27.6931  -17.6376   15.2488 H   0  0  0  0  0  0
  -28.4065  -19.1615   15.9901 H   0  0  0  0  0  0
  -23.9305  -19.8528   18.2943 H   0  0  0  0  0  0
  -23.9497  -20.7988   16.7154 H   0  0  0  0  0  0
  -24.9984  -18.8527   15.5811 H   0  0  0  0  0  0
  -24.9654  -17.9230   17.1678 H   0  0  0  0  0  0
  -26.7411  -24.7353   21.9503 H   0  0  0  0  0  0
  -27.2771  -24.3782   20.2640 H   0  0  0  0  0  0
  -29.9819  -24.6991   20.1630 H   0  0  0  0  0  0
  -30.5347  -25.1888   21.8062 H   0  0  0  0  0  0
  -30.7507  -17.6360   21.4712 H   0  0  0  0  0  0
  -31.2295  -17.0308   19.8453 H   0  0  0  0  0  0
  -27.9285  -15.4648   21.2111 H   0  0  0  0  0  0
  -28.6875  -16.6299   22.3088 H   0  0  0  0  0  0
  -28.9495  -16.3990   19.2809 H   0  0  0  0  0  0
  -27.0240  -16.8117   17.5571 H   0  0  0  0  0  0
  -26.4572  -20.6333   16.6119 H   0  0  0  0  0  0
  -28.7944  -23.9001   22.8745 H   0  0  0  0  0  0
  -28.4775  -26.4547   22.1986 H   0  0  0  0  0  0
  -26.5065  -22.6895   18.7043 H   0  0  0  0  0  0
  -25.8421  -22.5402   20.3322 H   0  0  0  0  0  0
  -24.9896  -21.8444   19.0201 H   0  0  0  0  0  0
  -29.8207  -21.9436   21.8041 H   0  0  0  0  0  0
  -29.1490  -22.3583   20.2500 H   0  0  0  0  0  0
  -26.9559  -22.1538   21.7172 H   0  0  0  0  0  0
  1 25  1  0  0  0
  1 30  2  0  0  0
  1 92  1  0  0  0
  2  3  1  0  0  0
  2 25  1  0  0  0
  2 94  1  0  0  0
  2 95  1  0  0  0
  3  4  1  0  0  0
  3 96  1  0  0  0
  3 97  1  0  0  0
  4  5  1  0  0  0
  4 98  1  0  0  0
  4 99  1  0  0  0
  5  6  1  0  0  0
  5 26  1  0  0  0
  5100  1  0  0  0
  6 25  1  0  0  0
  6101  1  0  0  0
  6102  1  0  0  0
  7  8  2  0  0  0
  7 26  1  0  0  0
  7 29  1  0  0  0
  8  9  1  0  0  0
  8 22  1  0  0  0
  9 10  1  0  0  0
  9 27  2  0  0  0
 10 11  2  0  0  0
 10 15  1  0  0  0
 11 12  1  0  0  0
 11103  1  0  0  0
 12 13  2  0  0  0
 12104  1  0  0  0
 13 14  1  0  0  0
 13 31  1  0  0  0
 14 15  2  0  0  0
 14105  1  0  0  0
 15106  1  0  0  0
 16 17  2  0  0  0
 16 21  1  0  0  0
 16 31  1  0  0  0
 17 18  1  0  0  0
 17107  1  0  0  0
 18 19  2  0  0  0
 18108  1  0  0  0
 19 20  1  0  0  0
 19 24  1  0  0  0
 20 21  2  0  0  0
 20109  1  0  0  0
 21 23  1  0  0  0
 22 28  1  0  0  0
 22 32  2  0  0  0
 26 27  1  0  0  0
 28110  1  0  0  0
 28111  1  0  0  0
 29112  1  0  0  0
 29113  1  0  0  0
 33 34  1  0  0  0
 33 66  1  0  0  0
 33 70  2  0  0  0
 34 36  1  0  0  0
 34 59  1  0  0  0
 34114  1  0  0  0
 35 44  2  0  0  0
 35 45  1  0  0  0
 35 68  1  0  0  0
 36 56  1  0  0  0
 36115  1  0  0  0
 37 39  1  0  0  0
 37 47  1  0  0  0
 37 66  1  0  0  0
 37116  1  0  0  0
 38 43  2  0  0  0
 38 46  1  0  0  0
 38 47  1  0  0  0
 39 64  1  0  0  0
 39 67  2  0  0  0
 40 52  1  0  0  0
 40 53  2  0  0  0
 40 58  1  0  0  0
 41117  1  0  0  0
 41118  1  0  0  0
 41119  1  0  0  0
 41 48  1  0  0  0
 42 43  1  0  0  0
 42 66  1  0  0  0
 42120  1  0  0  0
 42121  1  0  0  0
 43 44  1  0  0  0
 44122  1  0  0  0
 45 46  2  0  0  0
 45123  1  0  0  0
 46124  1  0  0  0
 47125  1  0  0  0
 47126  1  0  0  0
 48 56  1  0  0  0
 48 65  1  0  0  0
 48127  1  0  0  0
 49 50  1  0  0  0
 49 53  1  0  0  0
 49 64  1  0  0  0
 49128  1  0  0  0
 50 51  1  0  0  0
 50129  1  0  0  0
 50130  1  0  0  0
 51 52  1  0  0  0
 51131  1  0  0  0
 51132  1  0  0  0
 52133  1  0  0  0
 52134  1  0  0  0
 53 54  1  0  0  0
 54 55  2  0  0  0
 54135  1  0  0  0
 55 57  1  0  0  0
 55136  1  0  0  0
 56 69  2  0  0  0
 57 58  2  0  0  0
 57137  1  0  0  0
 58138  1  0  0  0
 59 60  1  0  0  0
 59 61  1  0  0  0
 59 62  1  0  0  0
 60139  1  0  0  0
 60140  1  0  0  0
 60141  1  0  0  0
 61142  1  0  0  0
 61143  1  0  0  0
 61144  1  0  0  0
 62145  1  0  0  0
 62146  1  0  0  0
 62147  1  0  0  0
 63 65  1  0  0  0
 63148  1  0  0  0
 63149  1  0  0  0
 63150  1  0  0  0
 64151  1  0  0  0
 65152  1  0  0  0
 68 89  1  0  0  0
 71 72  2  0  0  0
 71 76  1  0  0  0
 71153  1  0  0  0
 72 73  1  0  0  0
 72 85  1  0  0  0
 73 74  2  0  0  0
 73 86  1  0  0  0
 74 75  1  0  0  0
 74 87  1  0  0  0
 75 76  2  0  0  0
 75 90  1  0  0  0
 76 93  1  0  0  0
 77 78  1  0  0  0
 77 86  1  0  0  0
 77154  1  0  0  0
 77155  1  0  0  0
 78 86  1  0  0  0
 78156  1  0  0  0
 78157  1  0  0  0
 79 80  1  0  0  0
 79 87  1  0  0  0
 79158  1  0  0  0
 79159  1  0  0  0
 80 87  1  0  0  0
 80160  1  0  0  0
 80161  1  0  0  0
 81 88  1  0  0  0
 81 89  1  0  0  0
 81162  1  0  0  0
 81163  1  0  0  0
 82 88  1  0  0  0
 82 89  1  0  0  0
 82164  1  0  0  0
 82165  1  0  0  0
 83 85  1  0  0  0
 83 92  1  0  0  0
 83166  1  0  0  0
 83167  1  0  0  0
 84 85  1  0  0  0
 84 92  1  0  0  0
 84168  1  0  0  0
 84169  1  0  0  0
 85170  1  0  0  0
 86171  1  0  0  0
 87172  1  0  0  0
 88 91  1  0  0  0
 88173  1  0  0  0
 89174  1  0  0  0
 90175  1  0  0  0
 90176  1  0  0  0
 90177  1  0  0  0
 91 93  1  0  0  0
 91178  1  0  0  0
 91179  1  0  0  0
 93180  1  0  0  0
M  ISO  4   1 100  68 101  89 101  92 100
M  END
> <chiral flag>
0

> <version>
0

> <s_m_source_file>
/data/baiqing/PycharmProjects/Reinvent-master-3.2/result/LINK_invent/BTK/process_docking_weight1_custom_sum_contain_oxygen_bond_distance_aromatic_linkinvent_7_9_3/rearranged_h_0169.sdf

> <i_m_source_file_index>
2

> <r_mmod_Potential_Energy-OPLS-2005>
131.244384765625

> <r_mmod_Stretch_Energy-OPLS-2005>
42.7337455749512

> <r_mmod_Bend_Energy-OPLS-2005>
153.119323730469

> <r_mmod_Torsional_Energy-OPLS-2005>
388.173736572266

> <r_mmod_Improper_Torsional_Energy-OPLS-2005>
14.5499429702759

> <r_mmod_Van_der_Waal_Energy-OPLS-2005>
163.438522338867

> <r_mmod_Electrostatic_Energy-OPLS-2005>
-433.155151367188

> <r_mmod_Solvation_Energy-OPLS-2005>
-210.36311340332

> <b_mmod_Minimization_Converged-OPLS-2005>
0

> <r_mmod_RMS_Derivative-OPLS-2005>
2.07752966880798

$$$$
2
                    3D
 Structure written by MMmdl.
169180  0  0  1  0            999 V2000
  -30.6285  -14.5935   20.5454 C   0  0  0  0  0  0
  -30.4428  -12.3766   19.4340 C   0  0  0  0  0  0
  -29.5048  -12.5131   18.2137 C   0  0  0  0  0  0
  -28.0272  -12.3527   18.6267 C   0  0  0  0  0  0
  -27.6570  -13.2089   19.8664 C   0  0  2  0  0  0
  -28.7017  -13.0231   20.9898 C   0  0  0  0  0  0
  -25.2583  -13.8156   20.5675 C   0  0  0  0  0  0
  -24.1838  -13.0436   20.9178 C   0  0  0  0  0  0
  -24.6391  -11.6900   20.8730 C   0  0  0  0  0  0
  -23.9052  -10.4291   21.0407 C   0  0  0  0  0  0
  -24.3609   -9.4203   21.9179 C   0  0  0  0  0  0
  -23.6292   -8.2237   22.0750 C   0  0  0  0  0  0
  -22.4273   -8.0275   21.3541 C   0  0  0  0  0  0
  -21.9904   -9.0247   20.4643 C   0  0  0  0  0  0
  -22.7227  -10.2128   20.3054 C   0  0  0  0  0  0
  -21.6852   -6.0728   22.5275 C   0  0  0  0  0  0
  -21.4013   -6.5634   23.8207 C   0  0  0  0  0  0
  -21.3663   -5.6787   24.9171 C   0  0  0  0  0  0
  -21.6047   -4.3050   24.7223 C   0  0  0  0  0  0
  -21.8822   -3.8140   23.4344 C   0  0  0  0  0  0
  -21.9196   -4.6957   22.3401 C   0  0  0  0  0  0
  -22.7860  -13.5230   21.1852 C   0  0  0  0  0  0
  -22.1664   -4.2142   21.0979 F   0  0  0  0  0  0
  -21.5636   -3.4534   25.7737 F   0  0  0  0  0  0
  -30.0200  -13.3737   20.4338 N   0  0  0  0  0  0
  -26.3007  -12.9324   20.3320 N   0  0  0  0  0  0
  -25.9316  -11.6485   20.5740 N   0  0  0  0  0  0
  -22.0501  -12.8221   22.0408 N   0  0  0  0  0  0
  -25.4314  -15.1878   20.4095 N   0  0  0  0  0  0
  -31.7751  -14.7917   20.1338 O   0  0  0  0  0  0
  -21.6638   -6.8871   21.4236 O   0  0  0  0  0  0
  -22.3545  -14.5540   20.6707 O   0  0  0  0  0  0
  -24.6214  -31.8622   23.2041 C   0  0  0  0  0  0
  -25.9078  -32.4795   23.8358 C   0  0  1  0  0  0
  -27.2295  -27.3573   20.1197 C   0  0  0  0  0  0
  -25.5906  -33.8595   24.2282 N   0  0  0  0  0  0
  -23.4134  -30.4847   21.5461 C   0  0  2  0  0  0
  -24.8609  -28.9390   20.1161 C   0  0  0  0  0  0
  -22.7449  -29.4633   22.4957 C   0  0  0  0  0  0
  -18.0279  -28.1383   22.8481 C   0  0  0  0  0  0
  -24.1489  -36.7304   23.2640 C   0  0  0  0  0  0
  -25.9499  -30.8057   21.3680 C   0  0  0  0  0  0
  -26.0271  -29.4343   20.7142 C   0  0  0  0  0  0
  -27.2168  -28.6553   20.7036 C   0  0  0  0  0  0
  -26.0443  -26.8986   19.5073 C   0  0  0  0  0  0
  -24.8688  -27.6740   19.5054 C   0  0  0  0  0  0
  -23.6267  -29.8150   20.1625 C   0  0  0  0  0  0
  -25.4115  -36.3094   24.0330 C   0  0  1  0  0  0
  -20.5874  -28.3679   23.1294 C   0  0  2  0  0  0
  -20.6767  -26.9405   22.5413 C   0  0  0  0  0  0
  -19.5751  -26.6382   21.5206 C   0  0  0  0  0  0
  -18.1928  -26.7926   22.1614 C   0  0  0  0  0  0
  -19.1529  -28.8848   23.2881 C   0  0  0  0  0  0
  -18.9457  -30.1452   23.8893 C   0  0  0  0  0  0
  -17.6459  -30.6586   24.0563 C   0  0  0  0  0  0
  -25.9047  -34.9464   23.5106 C   0  0  0  0  0  0
  -16.5350  -29.9087   23.6328 C   0  0  0  0  0  0
  -16.7267  -28.6507   23.0343 C   0  0  0  0  0  0
  -26.4479  -31.6597   25.0717 C   0  0  0  0  0  0
  -25.3725  -31.3724   26.1453 C   0  0  0  0  0  0
  -27.0318  -30.3029   24.6143 C   0  0  0  0  0  0
  -27.6043  -32.4327   25.7486 C   0  0  0  0  0  0
  -27.5580  -37.1809   24.8465 C   0  0  0  0  0  0
  -21.4168  -29.3038   22.3696 N   0  0  0  0  0  0
  -26.4297  -37.3785   23.9404 N   0  0  0  0  0  0
  -24.6800  -31.0668   22.0971 N   0  0  0  0  0  0
  -23.4187  -28.8178   23.3028 O   0  0  0  0  0  0
  -28.3643  -26.5499   20.1268 O   0  0  0  0  0  0
  -26.5621  -34.8927   22.4676 O   0  0  0  0  0  0
  -23.5388  -32.1401   23.7397 O   0  0  0  0  0  0
  -29.6347  -21.9264   18.5668 C   0  0  0  0  0  0
  -29.2650  -21.8291   19.8583 C   0  0  0  0  0  0
  -32.9257  -20.8339   22.1539 C   0  0  0  0  0  0
  -31.9812  -22.0156   22.1140 C   0  0  0  0  0  0
  -29.5020  -24.3370   20.7965 C   0  0  0  0  0  0
  -27.7079  -24.0271   19.7927 C   0  0  0  0  0  0
  -28.8298  -19.2047   19.9390 C   0  0  0  0  0  0
  -31.2971  -17.6390   21.6257 C   0  0  0  0  0  0
  -28.6365  -23.0589   20.5953 C   0  0  1  0  0  0
  -29.4463  -20.4695   20.6222 C   0  0  1  0  0  0
  -29.8561  -18.0586   20.0348 C   0  0  2  0  0  0
  -29.9190  -17.0722   21.2497 C   0  0  1  0  0  0
  -31.4288  -20.6075   22.1429 C   0  0  0  0  0  0
  -31.1669  -18.6983   20.5002 C   0  0  1  0  0  0
  -28.2126  -25.1995   20.6766 C   0  0  2  0  0  0
  -29.8157  -15.5943   20.9920 N   0  0  0  0  0  0
  -30.8879  -20.1384   20.8429 N   0  3  1  0  0  0
  -31.4824  -12.5132   19.1301 H   0  0  0  0  0  0
  -30.3837  -11.3716   19.8545 H   0  0  0  0  0  0
  -29.7632  -11.7737   17.4546 H   0  0  0  0  0  0
  -29.6494  -13.4891   17.7475 H   0  0  0  0  0  0
  -27.8583  -11.2977   18.8452 H   0  0  0  0  0  0
  -27.3723  -12.5970   17.7893 H   0  0  0  0  0  0
  -27.6858  -14.2499   19.5441 H   0  0  0  0  0  0
  -28.7074  -11.9881   21.3351 H   0  0  0  0  0  0
  -28.4477  -13.6198   21.8669 H   0  0  0  0  0  0
  -25.2759   -9.5678   22.4744 H   0  0  0  0  0  0
  -24.0003   -7.4629   22.7466 H   0  0  0  0  0  0
  -21.0838   -8.8762   19.8951 H   0  0  0  0  0  0
  -22.3687  -10.9664   19.6160 H   0  0  0  0  0  0
  -21.1997   -7.6139   23.9707 H   0  0  0  0  0  0
  -21.1489   -6.0517   25.9074 H   0  0  0  0  0  0
  -22.0600   -2.7601   23.2844 H   0  0  0  0  0  0
  -22.4119  -11.9884   22.4800 H   0  0  0  0  0  0
  -21.1117  -13.1242   22.2614 H   0  0  0  0  0  0
  -24.6641  -15.8427   20.5138 H   0  0  0  0  0  0
  -26.2792  -15.6241   20.0712 H   0  0  0  0  0  0
  -26.7148  -32.5479   23.1114 H   0  0  0  0  0  0
  -25.0047  -33.9743   25.0421 H   0  0  0  0  0  0
  -22.7053  -31.3035   21.4030 H   0  0  0  0  0  0
  -23.3748  -35.9640   23.3316 H   0  0  0  0  0  0
  -24.3573  -36.8911   22.2049 H   0  0  0  0  0  0
  -23.7251  -37.6515   23.6654 H   0  0  0  0  0  0
  -26.0729  -31.5694   20.5987 H   0  0  0  0  0  0
  -26.8331  -30.8572   21.9932 H   0  0  0  0  0  0
  -28.1161  -29.0346   21.1684 H   0  0  0  0  0  0
  -26.0200  -25.9341   19.0236 H   0  0  0  0  0  0
  -23.9751  -27.2880   19.0344 H   0  0  0  0  0  0
  -23.7432  -30.5893   19.4034 H   0  0  0  0  0  0
  -22.7480  -29.2410   19.8623 H   0  0  0  0  0  0
  -25.1296  -36.1952   25.0824 H   0  0  0  0  0  0
  -20.9954  -28.3252   24.1418 H   0  0  0  0  0  0
  -20.5659  -26.2288   23.3607 H   0  0  0  0  0  0
  -21.6641  -26.7440   22.1214 H   0  0  0  0  0  0
  -19.6915  -25.6292   21.1239 H   0  0  0  0  0  0
  -19.6696  -27.3189   20.6734 H   0  0  0  0  0  0
  -17.4195  -26.6664   21.4019 H   0  0  0  0  0  0
  -18.0339  -26.0069   22.9013 H   0  0  0  0  0  0
  -19.7937  -30.7267   24.2257 H   0  0  0  0  0  0
  -17.5020  -31.6267   24.5166 H   0  0  0  0  0  0
  -15.5352  -30.2991   23.7662 H   0  0  0  0  0  0
  -15.8665  -28.0836   22.7048 H   0  0  0  0  0  0
  -24.5893  -30.7080   25.7784 H   0  0  0  0  0  0
  -24.8925  -32.2887   26.4898 H   0  0  0  0  0  0
  -25.8060  -30.8888   27.0215 H   0  0  0  0  0  0
  -26.2880  -29.6787   24.1178 H   0  0  0  0  0  0
  -27.4042  -29.7276   25.4630 H   0  0  0  0  0  0
  -27.8736  -30.4328   23.9338 H   0  0  0  0  0  0
  -27.2653  -33.3619   26.2078 H   0  0  0  0  0  0
  -28.3849  -32.6899   25.0314 H   0  0  0  0  0  0
  -28.0719  -31.8444   26.5393 H   0  0  0  0  0  0
  -28.2608  -38.0097   24.7501 H   0  0  0  0  0  0
  -28.1065  -36.2628   24.6306 H   0  0  0  0  0  0
  -27.2294  -37.1479   25.8867 H   0  0  0  0  0  0
  -20.9341  -29.8764   21.6914 H   0  0  0  0  0  0
  -26.0181  -38.2863   24.1401 H   0  0  0  0  0  0
  -29.5310  -22.8448   18.0091 H   0  0  0  0  0  0
  -30.0558  -21.0883   18.0307 H   0  0  0  0  0  0
  -33.4540  -20.6505   23.0879 H   0  0  0  0  0  0
  -33.4948  -20.6146   21.2522 H   0  0  0  0  0  0
  -31.9297  -22.5845   21.1873 H   0  0  0  0  0  0
  -31.8836  -22.6074   23.0224 H   0  0  0  0  0  0
  -30.2090  -24.5151   19.9838 H   0  0  0  0  0  0
  -29.9958  -24.4008   21.7669 H   0  0  0  0  0  0
  -26.6443  -23.8116   19.9005 H   0  0  0  0  0  0
  -27.9703  -24.1642   18.7436 H   0  0  0  0  0  0
  -28.5954  -19.4030   18.8933 H   0  0  0  0  0  0
  -27.8849  -18.9353   20.4119 H   0  0  0  0  0  0
  -32.1294  -16.9591   21.4493 H   0  0  0  0  0  0
  -31.3369  -18.0205   22.6455 H   0  0  0  0  0  0
  -28.1507  -22.7544   21.5253 H   0  0  0  0  0  0
  -28.9719  -20.5613   21.5998 H   0  0  0  0  0  0
  -29.9955  -17.5224   19.0944 H   0  0  0  0  0  0
  -29.1904  -17.3808   22.0016 H   0  0  0  0  0  0
  -30.9216  -20.2440   23.0348 H   0  0  0  0  0  0
  -31.9629  -18.6138   19.7590 H   0  0  0  0  0  0
  -27.6837  -25.2292   21.6323 H   0  0  0  0  0  0
  -28.9100  -15.2249   21.2418 H   0  0  0  0  0  0
  -31.3694  -20.6674   20.1310 H   0  0  0  0  0  0
  1 25  1  0  0  0
  1 30  2  0  0  0
  1 86  1  0  0  0
  2  3  1  0  0  0
  2 25  1  0  0  0
  2 88  1  0  0  0
  2 89  1  0  0  0
  3  4  1  0  0  0
  3 90  1  0  0  0
  3 91  1  0  0  0
  4  5  1  0  0  0
  4 92  1  0  0  0
  4 93  1  0  0  0
  5  6  1  0  0  0
  5 26  1  0  0  0
  5 94  1  0  0  0
  6 25  1  0  0  0
  6 95  1  0  0  0
  6 96  1  0  0  0
  7  8  2  0  0  0
  7 26  1  0  0  0
  7 29  1  0  0  0
  8  9  1  0  0  0
  8 22  1  0  0  0
  9 10  1  0  0  0
  9 27  2  0  0  0
 10 11  2  0  0  0
 10 15  1  0  0  0
 11 12  1  0  0  0
 11 97  1  0  0  0
 12 13  2  0  0  0
 12 98  1  0  0  0
 13 14  1  0  0  0
 13 31  1  0  0  0
 14 15  2  0  0  0
 14 99  1  0  0  0
 15100  1  0  0  0
 16 17  2  0  0  0
 16 21  1  0  0  0
 16 31  1  0  0  0
 17 18  1  0  0  0
 17101  1  0  0  0
 18 19  2  0  0  0
 18102  1  0  0  0
 19 20  1  0  0  0
 19 24  1  0  0  0
 20 21  2  0  0  0
 20103  1  0  0  0
 21 23  1  0  0  0
 22 28  1  0  0  0
 22 32  2  0  0  0
 26 27  1  0  0  0
 28104  1  0  0  0
 28105  1  0  0  0
 29106  1  0  0  0
 29107  1  0  0  0
 33 34  1  0  0  0
 33 66  1  0  0  0
 33 70  2  0  0  0
 34 36  1  0  0  0
 34 59  1  0  0  0
 34108  1  0  0  0
 35 44  2  0  0  0
 35 45  1  0  0  0
 35 68  1  0  0  0
 36 56  1  0  0  0
 36109  1  0  0  0
 37 39  1  0  0  0
 37 47  1  0  0  0
 37 66  1  0  0  0
 37110  1  0  0  0
 38 43  2  0  0  0
 38 46  1  0  0  0
 38 47  1  0  0  0
 39 64  1  0  0  0
 39 67  2  0  0  0
 40 52  1  0  0  0
 40 53  2  0  0  0
 40 58  1  0  0  0
 41111  1  0  0  0
 41112  1  0  0  0
 41113  1  0  0  0
 41 48  1  0  0  0
 42 43  1  0  0  0
 42 66  1  0  0  0
 42114  1  0  0  0
 42115  1  0  0  0
 43 44  1  0  0  0
 44116  1  0  0  0
 45 46  2  0  0  0
 45117  1  0  0  0
 46118  1  0  0  0
 47119  1  0  0  0
 47120  1  0  0  0
 48 56  1  0  0  0
 48 65  1  0  0  0
 48121  1  0  0  0
 49 50  1  0  0  0
 49 53  1  0  0  0
 49 64  1  0  0  0
 49122  1  0  0  0
 50 51  1  0  0  0
 50123  1  0  0  0
 50124  1  0  0  0
 51 52  1  0  0  0
 51125  1  0  0  0
 51126  1  0  0  0
 52127  1  0  0  0
 52128  1  0  0  0
 53 54  1  0  0  0
 54 55  2  0  0  0
 54129  1  0  0  0
 55 57  1  0  0  0
 55130  1  0  0  0
 56 69  2  0  0  0
 57 58  2  0  0  0
 57131  1  0  0  0
 58132  1  0  0  0
 59 60  1  0  0  0
 59 61  1  0  0  0
 59 62  1  0  0  0
 60133  1  0  0  0
 60134  1  0  0  0
 60135  1  0  0  0
 61136  1  0  0  0
 61137  1  0  0  0
 61138  1  0  0  0
 62139  1  0  0  0
 62140  1  0  0  0
 62141  1  0  0  0
 63 65  1  0  0  0
 63142  1  0  0  0
 63143  1  0  0  0
 63144  1  0  0  0
 64145  1  0  0  0
 65146  1  0  0  0
 68 85  1  0  0  0
 71 72  2  0  0  0
 71147  1  0  0  0
 71148  1  0  0  0
 72 79  1  0  0  0
 72 80  1  0  0  0
 73 74  1  0  0  0
 73149  1  0  0  0
 73150  1  0  0  0
 73 83  1  0  0  0
 74 83  1  0  0  0
 74151  1  0  0  0
 74152  1  0  0  0
 75 79  1  0  0  0
 75 85  1  0  0  0
 75153  1  0  0  0
 75154  1  0  0  0
 76 79  1  0  0  0
 76 85  1  0  0  0
 76155  1  0  0  0
 76156  1  0  0  0
 77 80  1  0  0  0
 77157  1  0  0  0
 77158  1  0  0  0
 77 81  1  0  0  0
 78 82  1  0  0  0
 78159  1  0  0  0
 78160  1  0  0  0
 78 84  1  0  0  0
 79161  1  0  0  0
 80 87  1  0  0  0
 80162  1  0  0  0
 81 82  1  0  0  0
 81 84  1  0  0  0
 81163  1  0  0  0
 82 86  1  0  0  0
 82164  1  0  0  0
 83165  1  0  0  0
 83 87  1  0  0  0
 84 87  1  0  0  0
 84166  1  0  0  0
 85167  1  0  0  0
 86168  1  0  0  0
 87169  1  0  0  0
M  CHG  1  87   1
M  ISO  4   1 100  68 101  85 101  86 100
M  END
> <chiral flag>
0

> <version>
0

> <s_m_source_file>
/data/baiqing/PycharmProjects/Reinvent-master-3.2/result/LINK_invent/BTK/process_docking_weight1_custom_sum_contain_oxygen_bond_distance_aromatic_linkinvent_7_9_3/rearranged_h_0169.sdf

> <i_m_source_file_index>
3

> <r_mmod_Potential_Energy-OPLS-2005>
163.516235351562

> <r_mmod_Stretch_Energy-OPLS-2005>
63.8809623718262

> <r_mmod_Bend_Energy-OPLS-2005>
204.569519042969

> <r_mmod_Torsional_Energy-OPLS-2005>
405.63037109375

> <r_mmod_Improper_Torsional_Energy-OPLS-2005>
3.57956480979919

> <r_mmod_Van_der_Waal_Energy-OPLS-2005>
117.176338195801

> <r_mmod_Electrostatic_Energy-OPLS-2005>
-231.829650878906

> <r_mmod_Solvation_Energy-OPLS-2005>
-432.466613769531

> <b_mmod_Minimization_Converged-OPLS-2005>
0

> <r_mmod_RMS_Derivative-OPLS-2005>
0.772872805595398

$$$$
3
                    3D
 Structure written by MMmdl.
167176  0  0  1  0            999 V2000
  -30.6589  -14.5792   20.5430 C   0  0  0  0  0  0
  -30.4448  -12.3585   19.4596 C   0  0  0  0  0  0
  -29.5132  -12.4899   18.2337 C   0  0  0  0  0  0
  -28.0371  -12.3399   18.6445 C   0  0  0  0  0  0
  -27.6643  -13.2071   19.8742 C   0  0  2  0  0  0
  -28.7044  -13.0397   21.0082 C   0  0  0  0  0  0
  -25.2642  -13.8135   20.5705 C   0  0  0  0  0  0
  -24.1881  -13.0436   20.9207 C   0  0  0  0  0  0
  -24.6430  -11.6905   20.8778 C   0  0  0  0  0  0
  -23.9081  -10.4307   21.0434 C   0  0  0  0  0  0
  -24.3610   -9.4227   21.9229 C   0  0  0  0  0  0
  -23.6281   -8.2244   22.0759 C   0  0  0  0  0  0
  -22.4258   -8.0296   21.3520 C   0  0  0  0  0  0
  -21.9908   -9.0299   20.4630 C   0  0  0  0  0  0
  -22.7245  -10.2179   20.3082 C   0  0  0  0  0  0
  -21.6853   -6.0753   22.5286 C   0  0  0  0  0  0
  -21.4007   -6.5654   23.8214 C   0  0  0  0  0  0
  -21.3669   -5.6797   24.9184 C   0  0  0  0  0  0
  -21.6036   -4.3062   24.7230 C   0  0  0  0  0  0
  -21.8817   -3.8150   23.4353 C   0  0  0  0  0  0
  -21.9198   -4.6978   22.3410 C   0  0  0  0  0  0
  -22.7904  -13.5257   21.1871 C   0  0  0  0  0  0
  -22.1681   -4.2161   21.0987 F   0  0  0  0  0  0
  -21.5620   -3.4549   25.7752 F   0  0  0  0  0  0
  -30.0358  -13.3636   20.4602 N   0  0  0  0  0  0
  -26.3061  -12.9309   20.3342 N   0  0  0  0  0  0
  -25.9339  -11.6472   20.5723 N   0  0  0  0  0  0
  -22.0513  -12.8206   22.0350 N   0  0  0  0  0  0
  -25.4417  -15.1841   20.4094 N   0  0  0  0  0  0
  -31.7666  -14.7882   20.0431 O   0  0  0  0  0  0
  -21.6631   -6.8883   21.4224 O   0  0  0  0  0  0
  -22.3601  -14.5567   20.6766 O   0  0  0  0  0  0
  -24.6179  -31.8665   23.2087 C   0  0  0  0  0  0
  -25.9063  -32.4816   23.8399 C   0  0  1  0  0  0
  -27.2352  -27.3974   20.1205 C   0  0  0  0  0  0
  -25.5923  -33.8623   24.2308 N   0  0  0  0  0  0
  -23.4072  -30.4908   21.5494 C   0  0  2  0  0  0
  -24.8591  -28.9500   20.1223 C   0  0  0  0  0  0
  -22.7428  -29.4637   22.4958 C   0  0  0  0  0  0
  -18.0291  -28.1349   22.8500 C   0  0  0  0  0  0
  -24.1491  -36.7288   23.2639 C   0  0  0  0  0  0
  -25.9442  -30.8215   21.3719 C   0  0  0  0  0  0
  -26.0224  -29.4548   20.7156 C   0  0  0  0  0  0
  -27.2177  -28.6895   20.7051 C   0  0  0  0  0  0
  -26.0500  -26.9103   19.5279 C   0  0  0  0  0  0
  -24.8682  -27.6775   19.5264 C   0  0  0  0  0  0
  -23.6219  -29.8233   20.1645 C   0  0  0  0  0  0
  -25.4120  -36.3098   24.0328 C   0  0  1  0  0  0
  -20.5867  -28.3694   23.1301 C   0  0  2  0  0  0
  -20.6806  -26.9413   22.5473 C   0  0  0  0  0  0
  -19.5819  -26.6370   21.5244 C   0  0  0  0  0  0
  -18.1991  -26.7883   22.1657 C   0  0  0  0  0  0
  -19.1534  -28.8844   23.2896 C   0  0  0  0  0  0
  -18.9470  -30.1450   23.8899 C   0  0  0  0  0  0
  -17.6458  -30.6579   24.0515 C   0  0  0  0  0  0
  -25.9053  -34.9482   23.5106 C   0  0  0  0  0  0
  -16.5353  -29.9059   23.6323 C   0  0  0  0  0  0
  -16.7280  -28.6449   23.0358 C   0  0  0  0  0  0
  -26.4500  -31.6627   25.0747 C   0  0  0  0  0  0
  -25.3740  -31.3801   26.1470 C   0  0  0  0  0  0
  -27.0339  -30.3052   24.6205 C   0  0  0  0  0  0
  -27.6057  -32.4365   25.7507 C   0  0  0  0  0  0
  -27.5585  -37.1799   24.8471 C   0  0  0  0  0  0
  -21.4158  -29.3028   22.3665 N   0  0  0  0  0  0
  -26.4301  -37.3790   23.9396 N   0  0  0  0  0  0
  -24.6737  -31.0736   22.1011 N   0  0  0  0  0  0
  -23.4178  -28.8170   23.3001 O   0  0  0  0  0  0
  -28.3629  -26.5918   20.1174 O   0  0  0  0  0  0
  -26.5615  -34.8944   22.4673 O   0  0  0  0  0  0
  -23.5359  -32.1420   23.7455 O   0  0  0  0  0  0
  -29.3857  -22.3151   19.3365 C   0  0  0  0  0  0
  -28.8525  -23.6396   19.2684 C   0  0  0  0  0  0
  -29.7201  -22.0073   20.6269 C   0  0  0  0  0  0
  -28.8693  -24.1689   20.5353 C   0  0  0  0  0  0
  -28.3529  -17.5632   20.7588 C   0  0  0  0  0  0
  -28.4898  -19.1034   20.6962 C   0  0  0  0  0  0
  -30.6337  -18.1566   21.0516 C   0  0  0  0  0  0
  -29.7565  -16.9914   20.4993 C   0  0  1  0  0  0
  -28.3459  -24.2970   18.0101 C   0  0  0  0  0  0
  -28.3192  -23.0063   23.5747 C   0  0  0  0  0  0
  -30.3628  -20.7193   21.2046 C   0  0  0  0  0  0
  -28.3264  -25.5094   21.0832 C   0  0  0  0  0  0
  -29.6072  -23.3134   22.8072 C   0  0  0  0  0  0
  -29.4156  -23.1665   21.3679 N   0  0  0  0  0  0
  -29.8967  -15.5958   21.0282 N   0  0  0  0  0  0
  -29.9346  -19.4084   20.6001 N   0  3  2  0  0  0
  -31.4870  -12.4741   19.1586 H   0  0  0  0  0  0
  -30.3744  -11.3593   19.8936 H   0  0  0  0  0  0
  -29.7614  -11.7255   17.4949 H   0  0  0  0  0  0
  -29.6689  -13.4535   17.7434 H   0  0  0  0  0  0
  -27.8669  -11.2882   18.8724 H   0  0  0  0  0  0
  -27.3913  -12.5788   17.8021 H   0  0  0  0  0  0
  -27.6927  -14.2427   19.5363 H   0  0  0  0  0  0
  -28.6970  -12.0157   21.3888 H   0  0  0  0  0  0
  -28.4490  -13.6619   21.8637 H   0  0  0  0  0  0
  -25.2769   -9.5715   22.4809 H   0  0  0  0  0  0
  -24.0001   -7.4609   22.7473 H   0  0  0  0  0  0
  -21.0837   -8.8847   19.8909 H   0  0  0  0  0  0
  -22.3749  -10.9760   19.6196 H   0  0  0  0  0  0
  -21.1987   -7.6152   23.9741 H   0  0  0  0  0  0
  -21.1486   -6.0512   25.9087 H   0  0  0  0  0  0
  -22.0570   -2.7610   23.2855 H   0  0  0  0  0  0
  -22.4070  -11.9841   22.4737 H   0  0  0  0  0  0
  -21.1156  -13.1294   22.2582 H   0  0  0  0  0  0
  -24.6803  -15.8427   20.5230 H   0  0  0  0  0  0
  -26.2685  -15.5947   19.9974 H   0  0  0  0  0  0
  -26.7110  -32.5517   23.1126 H   0  0  0  0  0  0
  -25.0059  -33.9815   25.0446 H   0  0  0  0  0  0
  -22.6928  -31.3049   21.4130 H   0  0  0  0  0  0
  -23.3766  -35.9610   23.3323 H   0  0  0  0  0  0
  -24.3571  -36.8883   22.2048 H   0  0  0  0  0  0
  -23.7254  -37.6504   23.6645 H   0  0  0  0  0  0
  -26.0774  -31.5935   20.6134 H   0  0  0  0  0  0
  -26.8237  -30.8588   22.0041 H   0  0  0  0  0  0
  -28.1181  -29.0775   21.1625 H   0  0  0  0  0  0
  -26.0338  -25.9254   19.0859 H   0  0  0  0  0  0
  -23.9660  -27.2761   19.0846 H   0  0  0  0  0  0
  -23.7362  -30.6017   19.4100 H   0  0  0  0  0  0
  -22.7434  -29.2492   19.8644 H   0  0  0  0  0  0
  -25.1299  -36.1937   25.0823 H   0  0  0  0  0  0
  -20.9925  -28.3338   24.1429 H   0  0  0  0  0  0
  -20.5696  -26.2292   23.3656 H   0  0  0  0  0  0
  -21.6703  -26.7427   22.1303 H   0  0  0  0  0  0
  -19.7054  -25.6259   21.1324 H   0  0  0  0  0  0
  -19.6814  -27.3145   20.6743 H   0  0  0  0  0  0
  -17.4232  -26.6538   21.4108 H   0  0  0  0  0  0
  -18.0464  -26.0053   22.9104 H   0  0  0  0  0  0
  -19.7955  -30.7252   24.2275 H   0  0  0  0  0  0
  -17.5014  -31.6286   24.5064 H   0  0  0  0  0  0
  -15.5359  -30.2995   23.7663 H   0  0  0  0  0  0
  -15.8677  -28.0761   22.7107 H   0  0  0  0  0  0
  -24.5855  -30.7209   25.7805 H   0  0  0  0  0  0
  -24.8996  -32.2993   26.4919 H   0  0  0  0  0  0
  -25.8051  -30.8946   27.0223 H   0  0  0  0  0  0
  -26.2921  -29.6795   24.1213 H   0  0  0  0  0  0
  -27.4012  -29.7331   25.4735 H   0  0  0  0  0  0
  -27.8804  -30.4337   23.9449 H   0  0  0  0  0  0
  -27.2656  -33.3626   26.2159 H   0  0  0  0  0  0
  -28.3846  -32.6990   25.0332 H   0  0  0  0  0  0
  -28.0752  -31.8446   26.5377 H   0  0  0  0  0  0
  -28.2615  -38.0085   24.7485 H   0  0  0  0  0  0
  -28.1060  -36.2612   24.6310 H   0  0  0  0  0  0
  -27.2294  -37.1463   25.8877 H   0  0  0  0  0  0
  -20.9382  -29.8720   21.6821 H   0  0  0  0  0  0
  -26.0179  -38.2863   24.1406 H   0  0  0  0  0  0
  -29.5051  -21.6423   18.4977 H   0  0  0  0  0  0
  -27.6079  -17.1918   20.0524 H   0  0  0  0  0  0
  -28.0169  -17.2832   21.7587 H   0  0  0  0  0  0
  -28.0575  -19.5500   21.5915 H   0  0  0  0  0  0
  -27.9632  -19.5200   19.8362 H   0  0  0  0  0  0
  -31.6598  -18.1160   20.6829 H   0  0  0  0  0  0
  -30.6721  -18.1268   22.1431 H   0  0  0  0  0  0
  -29.9125  -16.9556   19.4192 H   0  0  0  0  0  0
  -28.7518  -23.8039   17.1255 H   0  0  0  0  0  0
  -28.6447  -25.3443   17.9674 H   0  0  0  0  0  0
  -27.2584  -24.2410   17.9600 H   0  0  0  0  0  0
  -28.4836  -23.0838   24.6496 H   0  0  0  0  0  0
  -27.9623  -21.9999   23.3596 H   0  0  0  0  0  0
  -27.5235  -23.7026   23.3088 H   0  0  0  0  0  0
  -30.1959  -20.6539   22.2791 H   0  0  0  0  0  0
  -31.4438  -20.7954   21.0764 H   0  0  0  0  0  0
  -28.9083  -25.8644   21.9336 H   0  0  0  0  0  0
  -27.3193  -25.3487   21.4673 H   0  0  0  0  0  0
  -30.4197  -22.6717   23.1463 H   0  0  0  0  0  0
  -29.9522  -24.3223   23.0305 H   0  0  0  0  0  0
  -29.0819  -15.2630   21.5223 H   0  0  0  0  0  0
  -30.1379  -19.4919   19.6159 H   0  0  0  0  0  0
  1 25  1  0  0  0
  1 30  2  0  0  0
  1 85  1  0  0  0
  2  3  1  0  0  0
  2 25  1  0  0  0
  2 87  1  0  0  0
  2 88  1  0  0  0
  3  4  1  0  0  0
  3 89  1  0  0  0
  3 90  1  0  0  0
  4  5  1  0  0  0
  4 91  1  0  0  0
  4 92  1  0  0  0
  5  6  1  0  0  0
  5 26  1  0  0  0
  5 93  1  0  0  0
  6 25  1  0  0  0
  6 94  1  0  0  0
  6 95  1  0  0  0
  7  8  2  0  0  0
  7 26  1  0  0  0
  7 29  1  0  0  0
  8  9  1  0  0  0
  8 22  1  0  0  0
  9 10  1  0  0  0
  9 27  2  0  0  0
 10 11  2  0  0  0
 10 15  1  0  0  0
 11 12  1  0  0  0
 11 96  1  0  0  0
 12 13  2  0  0  0
 12 97  1  0  0  0
 13 14  1  0  0  0
 13 31  1  0  0  0
 14 15  2  0  0  0
 14 98  1  0  0  0
 15 99  1  0  0  0
 16 17  2  0  0  0
 16 21  1  0  0  0
 16 31  1  0  0  0
 17 18  1  0  0  0
 17100  1  0  0  0
 18 19  2  0  0  0
 18101  1  0  0  0
 19 20  1  0  0  0
 19 24  1  0  0  0
 20 21  2  0  0  0
 20102  1  0  0  0
 21 23  1  0  0  0
 22 28  1  0  0  0
 22 32  2  0  0  0
 26 27  1  0  0  0
 28103  1  0  0  0
 28104  1  0  0  0
 29105  1  0  0  0
 29106  1  0  0  0
 33 34  1  0  0  0
 33 66  1  0  0  0
 33 70  2  0  0  0
 34 36  1  0  0  0
 34 59  1  0  0  0
 34107  1  0  0  0
 35 44  2  0  0  0
 35 45  1  0  0  0
 35 68  1  0  0  0
 36 56  1  0  0  0
 36108  1  0  0  0
 37 39  1  0  0  0
 37 47  1  0  0  0
 37 66  1  0  0  0
 37109  1  0  0  0
 38 43  2  0  0  0
 38 46  1  0  0  0
 38 47  1  0  0  0
 39 64  1  0  0  0
 39 67  2  0  0  0
 40 52  1  0  0  0
 40 53  2  0  0  0
 40 58  1  0  0  0
 41110  1  0  0  0
 41111  1  0  0  0
 41112  1  0  0  0
 41 48  1  0  0  0
 42 43  1  0  0  0
 42 66  1  0  0  0
 42113  1  0  0  0
 42114  1  0  0  0
 43 44  1  0  0  0
 44115  1  0  0  0
 45 46  2  0  0  0
 45116  1  0  0  0
 46117  1  0  0  0
 47118  1  0  0  0
 47119  1  0  0  0
 48 56  1  0  0  0
 48 65  1  0  0  0
 48120  1  0  0  0
 49 50  1  0  0  0
 49 53  1  0  0  0
 49 64  1  0  0  0
 49121  1  0  0  0
 50 51  1  0  0  0
 50122  1  0  0  0
 50123  1  0  0  0
 51 52  1  0  0  0
 51124  1  0  0  0
 51125  1  0  0  0
 52126  1  0  0  0
 52127  1  0  0  0
 53 54  1  0  0  0
 54 55  2  0  0  0
 54128  1  0  0  0
 55 57  1  0  0  0
 55129  1  0  0  0
 56 69  2  0  0  0
 57 58  2  0  0  0
 57130  1  0  0  0
 58131  1  0  0  0
 59 60  1  0  0  0
 59 61  1  0  0  0
 59 62  1  0  0  0
 60132  1  0  0  0
 60133  1  0  0  0
 60134  1  0  0  0
 61135  1  0  0  0
 61136  1  0  0  0
 61137  1  0  0  0
 62138  1  0  0  0
 62139  1  0  0  0
 62140  1  0  0  0
 63 65  1  0  0  0
 63141  1  0  0  0
 63142  1  0  0  0
 63143  1  0  0  0
 64144  1  0  0  0
 65145  1  0  0  0
 68 82  1  0  0  0
 71 72  1  0  0  0
 71 73  2  0  0  0
 71146  1  0  0  0
 72 74  2  0  0  0
 72 79  1  0  0  0
 73 81  1  0  0  0
 73 84  1  0  0  0
 74 82  1  0  0  0
 74 84  1  0  0  0
 75 76  1  0  0  0
 75 78  1  0  0  0
 75147  1  0  0  0
 75148  1  0  0  0
 76 86  1  0  0  0
 76149  1  0  0  0
 76150  1  0  0  0
 77 78  1  0  0  0
 77 86  1  0  0  0
 77151  1  0  0  0
 77152  1  0  0  0
 78 85  1  0  0  0
 78153  1  0  0  0
 79154  1  0  0  0
 79155  1  0  0  0
 79156  1  0  0  0
 80 83  1  0  0  0
 80157  1  0  0  0
 80158  1  0  0  0
 80159  1  0  0  0
 81160  1  0  0  0
 81161  1  0  0  0
 81 86  1  0  0  0
 82162  1  0  0  0
 82163  1  0  0  0
 83 84  1  0  0  0
 83164  1  0  0  0
 83165  1  0  0  0
 85166  1  0  0  0
 86167  1  0  0  0
M  CHG  1  86   1
M  ISO  4   1 100  68 101  82 101  85 100
M  END
> <chiral flag>
0

> <version>
0

> <s_m_source_file>
/data/baiqing/PycharmProjects/Reinvent-master-3.2/result/LINK_invent/BTK/process_docking_weight1_custom_sum_contain_oxygen_bond_distance_aromatic_linkinvent_7_9_3/rearranged_h_0169.sdf

> <i_m_source_file_index>
4

> <r_mmod_Potential_Energy-OPLS-2005>
-80.3573760986328

> <r_mmod_Stretch_Energy-OPLS-2005>
57.7629051208496

> <r_mmod_Bend_Energy-OPLS-2005>
146.743621826172

> <r_mmod_Torsional_Energy-OPLS-2005>
314.875122070312

> <r_mmod_Improper_Torsional_Energy-OPLS-2005>
6.95746660232544

> <r_mmod_Van_der_Waal_Energy-OPLS-2005>
108.997886657715

> <r_mmod_Electrostatic_Energy-OPLS-2005>
-296.201873779297

> <r_mmod_Solvation_Energy-OPLS-2005>
-446.720947265625

> <b_mmod_Minimization_Converged-OPLS-2005>
0

> <r_mmod_RMS_Derivative-OPLS-2005>
5.00481843948364

$$$$
4
                    3D
 Structure written by MMmdl.
174184  0  0  1  0            999 V2000
  -30.7114  -14.4300   20.5025 C   0  0  0  0  0  0
  -30.4121  -12.2552   19.4357 C   0  0  0  0  0  0
  -29.4951  -12.4654   18.2128 C   0  0  0  0  0  0
  -28.0123  -12.3536   18.6200 C   0  0  0  0  0  0
  -27.6597  -13.2016   19.8721 C   0  0  2  0  0  0
  -28.7013  -13.0008   20.9994 C   0  0  0  0  0  0
  -25.2585  -13.8155   20.5680 C   0  0  0  0  0  0
  -24.1833  -13.0440   20.9180 C   0  0  0  0  0  0
  -24.6382  -11.6907   20.8749 C   0  0  0  0  0  0
  -23.9053  -10.4291   21.0413 C   0  0  0  0  0  0
  -24.3610   -9.4201   21.9184 C   0  0  0  0  0  0
  -23.6287   -8.2237   22.0756 C   0  0  0  0  0  0
  -22.4270   -8.0278   21.3544 C   0  0  0  0  0  0
  -21.9905   -9.0253   20.4646 C   0  0  0  0  0  0
  -22.7231  -10.2131   20.3056 C   0  0  0  0  0  0
  -21.6851   -6.0734   22.5280 C   0  0  0  0  0  0
  -21.4010   -6.5639   23.8211 C   0  0  0  0  0  0
  -21.3659   -5.6792   24.9174 C   0  0  0  0  0  0
  -21.6045   -4.3057   24.7226 C   0  0  0  0  0  0
  -21.8818   -3.8146   23.4346 C   0  0  0  0  0  0
  -21.9192   -4.6962   22.3403 C   0  0  0  0  0  0
  -22.7853  -13.5242   21.1838 C   0  0  0  0  0  0
  -22.1662   -4.2148   21.0979 F   0  0  0  0  0  0
  -21.5625   -3.4544   25.7739 F   0  0  0  0  0  0
  -30.0377  -13.2564   20.4424 N   0  0  0  0  0  0
  -26.3012  -12.9311   20.3363 N   0  0  0  0  0  0
  -25.9307  -11.6482   20.5787 N   0  0  0  0  0  0
  -22.0493  -12.8237   22.0396 N   0  0  0  0  0  0
  -25.4313  -15.1875   20.4083 N   0  0  0  0  0  0
  -31.8843  -14.5564   20.1429 O   0  0  0  0  0  0
  -21.6634   -6.8878   21.4242 O   0  0  0  0  0  0
  -22.3543  -14.5552   20.6688 O   0  0  0  0  0  0
  -24.6097  -31.8711   23.2134 C   0  0  0  0  0  0
  -25.9010  -32.4841   23.8417 C   0  0  1  0  0  0
  -27.2390  -27.4813   20.0845 C   0  0  0  0  0  0
  -25.5882  -33.8639   24.2349 N   0  0  0  0  0  0
  -23.3962  -30.4930   21.5530 C   0  0  2  0  0  0
  -24.8439  -28.9610   20.1180 C   0  0  0  0  0  0
  -22.7385  -29.4665   22.5017 C   0  0  0  0  0  0
  -18.0265  -28.1371   22.8497 C   0  0  0  0  0  0
  -24.1486  -36.7328   23.2639 C   0  0  0  0  0  0
  -25.9196  -30.8471   21.3620 C   0  0  0  0  0  0
  -25.9984  -29.4815   20.7172 C   0  0  0  0  0  0
  -27.1980  -28.7414   20.7113 C   0  0  0  0  0  0
  -26.0706  -26.9552   19.4952 C   0  0  0  0  0  0
  -24.8709  -27.6923   19.5099 C   0  0  0  0  0  0
  -23.6034  -29.8231   20.1674 C   0  0  0  0  0  0
  -25.4105  -36.3127   24.0342 C   0  0  1  0  0  0
  -20.5850  -28.3648   23.1339 C   0  0  2  0  0  0
  -20.6756  -26.9390   22.5424 C   0  0  0  0  0  0
  -19.5737  -26.6382   21.5216 C   0  0  0  0  0  0
  -18.1914  -26.7920   22.1625 C   0  0  0  0  0  0
  -19.1512  -28.8828   23.2915 C   0  0  0  0  0  0
  -18.9443  -30.1437   23.8920 C   0  0  0  0  0  0
  -17.6447  -30.6580   24.0566 C   0  0  0  0  0  0
  -25.9025  -34.9488   23.5142 C   0  0  0  0  0  0
  -16.5338  -29.9083   23.6324 C   0  0  0  0  0  0
  -16.7255  -28.6499   23.0346 C   0  0  0  0  0  0
  -26.4457  -31.6607   25.0724 C   0  0  0  0  0  0
  -25.3741  -31.3697   26.1486 C   0  0  0  0  0  0
  -27.0277  -30.3059   24.6063 C   0  0  0  0  0  0
  -27.6048  -32.4313   25.7475 C   0  0  0  0  0  0
  -27.5582  -37.1819   24.8466 C   0  0  0  0  0  0
  -21.4119  -29.3022   22.3752 N   0  0  0  0  0  0
  -26.4300  -37.3802   23.9403 N   0  0  0  0  0  0
  -24.6598  -31.0841   22.1019 N   0  0  0  0  0  0
  -23.4173  -28.8213   23.3049 O   0  0  0  0  0  0
  -28.4087  -26.7713   20.0574 O   0  0  0  0  0  0
  -26.5587  -34.8929   22.4702 O   0  0  0  0  0  0
  -23.5300  -32.1446   23.7552 O   0  0  0  0  0  0
  -31.0731  -22.2795   18.2804 C   0  0  0  0  0  0
  -28.6331  -23.6431   17.9749 C   0  0  0  0  0  0
  -31.2899  -25.7687   19.3014 C   0  0  0  0  0  0
  -31.0120  -23.6401   18.6514 C   0  0  0  0  0  0
  -29.9476  -21.6080   17.7539 C   0  0  0  0  0  0
  -31.9543  -24.5749   19.1929 C   0  0  0  0  0  0
  -29.7703  -24.3111   18.4683 C   0  0  0  0  0  0
  -28.7112  -22.2775   17.6167 C   0  0  0  0  0  0
  -29.2297  -16.6773   18.5587 C   0  0  0  0  0  0
  -29.8962  -18.0396   20.5144 C   0  0  0  0  0  0
  -29.6212  -17.8113   17.6016 C   0  0  0  0  0  0
  -30.2881  -19.2024   19.5681 C   0  0  0  0  0  0
  -30.1344  -16.7072   19.7975 C   0  0  1  0  0  0
  -33.3809  -24.3086   19.5609 C   0  0  0  0  0  0
  -26.3863  -22.2016   17.0085 C   0  0  0  0  0  0
  -30.0959  -20.1680   17.2823 C   0  0  0  0  0  0
  -29.0030  -26.6932   18.8034 C   0  0  0  0  0  0
  -29.9817  -25.6261   18.8547 N   0  0  0  0  0  0
  -29.9212  -15.5093   20.6217 N   0  0  0  0  0  0
  -29.5935  -19.1547   18.2440 N   0  3  1  0  0  0
  -27.6459  -21.5507   17.1316 O   0  0  0  0  0  0
  -31.4605  -12.3247   19.1399 H   0  0  0  0  0  0
  -30.2839  -11.2518   19.8443 H   0  0  0  0  0  0
  -29.7237  -11.7275   17.4431 H   0  0  0  0  0  0
  -29.6861  -13.4394   17.7629 H   0  0  0  0  0  0
  -27.8067  -11.3006   18.8167 H   0  0  0  0  0  0
  -27.3705  -12.6340   17.7840 H   0  0  0  0  0  0
  -27.6954  -14.2434   19.5576 H   0  0  0  0  0  0
  -28.6567  -11.9804   21.3837 H   0  0  0  0  0  0
  -28.4884  -13.6507   21.8499 H   0  0  0  0  0  0
  -25.2761   -9.5675   22.4756 H   0  0  0  0  0  0
  -23.9994   -7.4630   22.7477 H   0  0  0  0  0  0
  -21.0834   -8.8774   19.8957 H   0  0  0  0  0  0
  -22.3694  -10.9671   19.6166 H   0  0  0  0  0  0
  -21.2002   -7.6149   23.9717 H   0  0  0  0  0  0
  -21.1485   -6.0522   25.9076 H   0  0  0  0  0  0
  -22.0600   -2.7608   23.2846 H   0  0  0  0  0  0
  -22.4110  -11.9898   22.4783 H   0  0  0  0  0  0
  -21.1115  -13.1270   22.2613 H   0  0  0  0  0  0
  -24.6638  -15.8423   20.5136 H   0  0  0  0  0  0
  -26.2817  -15.6264   20.0824 H   0  0  0  0  0  0
  -26.7083  -32.5574   23.1192 H   0  0  0  0  0  0
  -25.0041  -33.9811   25.0499 H   0  0  0  0  0  0
  -22.6827  -31.3082   21.4147 H   0  0  0  0  0  0
  -23.3738  -35.9673   23.3326 H   0  0  0  0  0  0
  -24.3578  -36.8912   22.2047 H   0  0  0  0  0  0
  -23.7250  -37.6548   23.6630 H   0  0  0  0  0  0
  -26.0228  -31.6103   20.5897 H   0  0  0  0  0  0
  -26.8113  -30.9067   21.9741 H   0  0  0  0  0  0
  -28.0923  -29.1387   21.1710 H   0  0  0  0  0  0
  -26.0896  -25.9811   19.0273 H   0  0  0  0  0  0
  -23.9813  -27.2827   19.0513 H   0  0  0  0  0  0
  -23.7073  -30.5967   19.4053 H   0  0  0  0  0  0
  -22.7293  -29.2384   19.8753 H   0  0  0  0  0  0
  -25.1281  -36.2006   25.0837 H   0  0  0  0  0  0
  -20.9940  -28.3205   24.1461 H   0  0  0  0  0  0
  -20.5664  -26.2252   23.3600 H   0  0  0  0  0  0
  -21.6629  -26.7443   22.1215 H   0  0  0  0  0  0
  -19.6898  -25.6301   21.1228 H   0  0  0  0  0  0
  -19.6678  -27.3210   20.6760 H   0  0  0  0  0  0
  -17.4186  -26.6677   21.4022 H   0  0  0  0  0  0
  -18.0308  -26.0054   22.9013 H   0  0  0  0  0  0
  -19.7918  -30.7249   24.2297 H   0  0  0  0  0  0
  -17.5001  -31.6264   24.5160 H   0  0  0  0  0  0
  -15.5339  -30.2994   23.7634 H   0  0  0  0  0  0
  -15.8655  -28.0830   22.7047 H   0  0  0  0  0  0
  -24.5901  -30.7060   25.7823 H   0  0  0  0  0  0
  -24.8949  -32.2849   26.4974 H   0  0  0  0  0  0
  -25.8109  -30.8835   27.0219 H   0  0  0  0  0  0
  -26.2804  -29.6828   24.1136 H   0  0  0  0  0  0
  -27.4087  -29.7282   25.4496 H   0  0  0  0  0  0
  -27.8621  -30.4393   23.9172 H   0  0  0  0  0  0
  -27.2682  -33.3599   26.2097 H   0  0  0  0  0  0
  -28.3832  -32.6894   25.0281 H   0  0  0  0  0  0
  -28.0746  -31.8407   26.5351 H   0  0  0  0  0  0
  -28.2621  -38.0097   24.7497 H   0  0  0  0  0  0
  -28.1057  -36.2630   24.6315 H   0  0  0  0  0  0
  -27.2298  -37.1502   25.8870 H   0  0  0  0  0  0
  -20.9268  -29.8748   21.6986 H   0  0  0  0  0  0
  -26.0198  -38.2888   24.1387 H   0  0  0  0  0  0
  -32.0166  -21.7621   18.3866 H   0  0  0  0  0  0
  -27.7179  -24.2049   17.8756 H   0  0  0  0  0  0
  -31.6478  -26.7253   19.6617 H   0  0  0  0  0  0
  -29.3298  -15.7285   18.0323 H   0  0  0  0  0  0
  -28.1792  -16.7635   18.8396 H   0  0  0  0  0  0
  -28.8543  -18.1336   20.8246 H   0  0  0  0  0  0
  -30.4984  -18.0935   21.4225 H   0  0  0  0  0  0
  -28.9518  -17.8045   16.7398 H   0  0  0  0  0  0
  -30.6225  -17.6155   17.2139 H   0  0  0  0  0  0
  -31.3667  -19.1799   19.4029 H   0  0  0  0  0  0
  -30.0744  -20.1509   20.0618 H   0  0  0  0  0  0
  -31.1705  -16.7285   19.4523 H   0  0  0  0  0  0
  -33.8443  -25.1753   20.0337 H   0  0  0  0  0  0
  -33.9741  -24.0561   18.6814 H   0  0  0  0  0  0
  -33.4581  -23.4742   20.2590 H   0  0  0  0  0  0
  -25.6476  -21.4932   16.6337 H   0  0  0  0  0  0
  -26.4321  -23.0320   16.3024 H   0  0  0  0  0  0
  -26.0298  -22.5676   17.9724 H   0  0  0  0  0  0
  -31.1442  -19.9688   17.0539 H   0  0  0  0  0  0
  -29.5673  -20.0661   16.3329 H   0  0  0  0  0  0
  -28.2877  -26.4813   18.0063 H   0  0  0  0  0  0
  -29.5068  -27.6331   18.5700 H   0  0  0  0  0  0
  -28.9844  -15.3339   20.9537 H   0  0  0  0  0  0
  -28.6241  -19.3844   18.4072 H   0  0  0  0  0  0
  1 25  1  0  0  0
  1 30  2  0  0  0
  1 89  1  0  0  0
  2  3  1  0  0  0
  2 25  1  0  0  0
  2 92  1  0  0  0
  2 93  1  0  0  0
  3  4  1  0  0  0
  3 94  1  0  0  0
  3 95  1  0  0  0
  4  5  1  0  0  0
  4 96  1  0  0  0
  4 97  1  0  0  0
  5  6  1  0  0  0
  5 26  1  0  0  0
  5 98  1  0  0  0
  6 25  1  0  0  0
  6 99  1  0  0  0
  6100  1  0  0  0
  7  8  2  0  0  0
  7 26  1  0  0  0
  7 29  1  0  0  0
  8  9  1  0  0  0
  8 22  1  0  0  0
  9 10  1  0  0  0
  9 27  2  0  0  0
 10 11  2  0  0  0
 10 15  1  0  0  0
 11 12  1  0  0  0
 11101  1  0  0  0
 12 13  2  0  0  0
 12102  1  0  0  0
 13 14  1  0  0  0
 13 31  1  0  0  0
 14 15  2  0  0  0
 14103  1  0  0  0
 15104  1  0  0  0
 16 17  2  0  0  0
 16 21  1  0  0  0
 16 31  1  0  0  0
 17 18  1  0  0  0
 17105  1  0  0  0
 18 19  2  0  0  0
 18106  1  0  0  0
 19 20  1  0  0  0
 19 24  1  0  0  0
 20 21  2  0  0  0
 20107  1  0  0  0
 21 23  1  0  0  0
 22 28  1  0  0  0
 22 32  2  0  0  0
 26 27  1  0  0  0
 28108  1  0  0  0
 28109  1  0  0  0
 29110  1  0  0  0
 29111  1  0  0  0
 33 34  1  0  0  0
 33 66  1  0  0  0
 33 70  2  0  0  0
 34 36  1  0  0  0
 34 59  1  0  0  0
 34112  1  0  0  0
 35 44  2  0  0  0
 35 45  1  0  0  0
 35 68  1  0  0  0
 36 56  1  0  0  0
 36113  1  0  0  0
 37 39  1  0  0  0
 37 47  1  0  0  0
 37 66  1  0  0  0
 37114  1  0  0  0
 38 43  2  0  0  0
 38 46  1  0  0  0
 38 47  1  0  0  0
 39 64  1  0  0  0
 39 67  2  0  0  0
 40 52  1  0  0  0
 40 53  2  0  0  0
 40 58  1  0  0  0
 41115  1  0  0  0
 41116  1  0  0  0
 41117  1  0  0  0
 41 48  1  0  0  0
 42 43  1  0  0  0
 42 66  1  0  0  0
 42118  1  0  0  0
 42119  1  0  0  0
 43 44  1  0  0  0
 44120  1  0  0  0
 45 46  2  0  0  0
 45121  1  0  0  0
 46122  1  0  0  0
 47123  1  0  0  0
 47124  1  0  0  0
 48 56  1  0  0  0
 48 65  1  0  0  0
 48125  1  0  0  0
 49 50  1  0  0  0
 49 53  1  0  0  0
 49 64  1  0  0  0
 49126  1  0  0  0
 50 51  1  0  0  0
 50127  1  0  0  0
 50128  1  0  0  0
 51 52  1  0  0  0
 51129  1  0  0  0
 51130  1  0  0  0
 52131  1  0  0  0
 52132  1  0  0  0
 53 54  1  0  0  0
 54 55  2  0  0  0
 54133  1  0  0  0
 55 57  1  0  0  0
 55134  1  0  0  0
 56 69  2  0  0  0
 57 58  2  0  0  0
 57135  1  0  0  0
 58136  1  0  0  0
 59 60  1  0  0  0
 59 61  1  0  0  0
 59 62  1  0  0  0
 60137  1  0  0  0
 60138  1  0  0  0
 60139  1  0  0  0
 61140  1  0  0  0
 61141  1  0  0  0
 61142  1  0  0  0
 62143  1  0  0  0
 62144  1  0  0  0
 62145  1  0  0  0
 63 65  1  0  0  0
 63146  1  0  0  0
 63147  1  0  0  0
 63148  1  0  0  0
 64149  1  0  0  0
 65150  1  0  0  0
 68 87  1  0  0  0
 71 74  2  0  0  0
 71 75  1  0  0  0
 71151  1  0  0  0
 72 77  2  0  0  0
 72 78  1  0  0  0
 72152  1  0  0  0
 73 76  2  0  0  0
 73 88  1  0  0  0
 73153  1  0  0  0
 74 76  1  0  0  0
 74 77  1  0  0  0
 75 78  2  0  0  0
 75 86  1  0  0  0
 76 84  1  0  0  0
 77 88  1  0  0  0
 78 91  1  0  0  0
 79 81  1  0  0  0
 79 83  1  0  0  0
 79154  1  0  0  0
 79155  1  0  0  0
 80 82  1  0  0  0
 80 83  1  0  0  0
 80156  1  0  0  0
 80157  1  0  0  0
 81 90  1  0  0  0
 81158  1  0  0  0
 81159  1  0  0  0
 82 90  1  0  0  0
 82160  1  0  0  0
 82161  1  0  0  0
 83 89  1  0  0  0
 83162  1  0  0  0
 84163  1  0  0  0
 84164  1  0  0  0
 84165  1  0  0  0
 85 91  1  0  0  0
 85166  1  0  0  0
 85167  1  0  0  0
 85168  1  0  0  0
 86169  1  0  0  0
 86170  1  0  0  0
 86 90  1  0  0  0
 87 88  1  0  0  0
 87171  1  0  0  0
 87172  1  0  0  0
 89173  1  0  0  0
 90174  1  0  0  0
M  CHG  1  90   1
M  ISO  4   1 100  68 101  87 101  89 100
M  END
> <chiral flag>
0

> <version>
0

> <s_m_source_file>
/data/baiqing/PycharmProjects/Reinvent-master-3.2/result/LINK_invent/BTK/process_docking_weight1_custom_sum_contain_oxygen_bond_distance_aromatic_linkinvent_7_9_3/rearranged_h_0169.sdf

> <i_m_source_file_index>
5

> <r_mmod_Potential_Energy-OPLS-2005>
-163.20947265625

> <r_mmod_Stretch_Energy-OPLS-2005>
33.0615158081055

> <r_mmod_Bend_Energy-OPLS-2005>
101.527717590332

> <r_mmod_Torsional_Energy-OPLS-2005>
258.2548828125

> <r_mmod_Improper_Torsional_Energy-OPLS-2005>
11.5964517593384

> <r_mmod_Van_der_Waal_Energy-OPLS-2005>
153.389526367188

> <r_mmod_Electrostatic_Energy-OPLS-2005>
-302.076965332031

> <r_mmod_Solvation_Energy-OPLS-2005>
-432.826538085938

> <b_mmod_Minimization_Converged-OPLS-2005>
0

> <r_mmod_RMS_Derivative-OPLS-2005>
0.723507285118103

$$$$
5
                    3D
 Structure written by MMmdl.
172181  0  0  1  0            999 V2000
  -30.5814  -14.6845   20.5186 C   0  0  0  0  0  0
  -30.4526  -12.4185   19.4682 C   0  0  0  0  0  0
  -29.5220  -12.4950   18.2364 C   0  0  0  0  0  0
  -28.0407  -12.3387   18.6399 C   0  0  0  0  0  0
  -27.6553  -13.2126   19.8636 C   0  0  2  0  0  0
  -28.6951  -13.0658   20.9963 C   0  0  0  0  0  0
  -25.2570  -13.8159   20.5662 C   0  0  0  0  0  0
  -24.1830  -13.0429   20.9163 C   0  0  0  0  0  0
  -24.6392  -11.6902   20.8715 C   0  0  0  0  0  0
  -23.9051  -10.4284   21.0395 C   0  0  0  0  0  0
  -24.3605   -9.4208   21.9176 C   0  0  0  0  0  0
  -23.6284   -8.2246   22.0756 C   0  0  0  0  0  0
  -22.4270   -8.0274   21.3547 C   0  0  0  0  0  0
  -21.9898   -9.0242   20.4642 C   0  0  0  0  0  0
  -22.7224  -10.2122   20.3044 C   0  0  0  0  0  0
  -21.6856   -6.0726   22.5280 C   0  0  0  0  0  0
  -21.4012   -6.5630   23.8209 C   0  0  0  0  0  0
  -21.3658   -5.6785   24.9172 C   0  0  0  0  0  0
  -21.6047   -4.3051   24.7225 C   0  0  0  0  0  0
  -21.8819   -3.8139   23.4348 C   0  0  0  0  0  0
  -21.9190   -4.6952   22.3403 C   0  0  0  0  0  0
  -22.7848  -13.5228   21.1833 C   0  0  0  0  0  0
  -22.1662   -4.2138   21.0978 F   0  0  0  0  0  0
  -21.5624   -3.4535   25.7737 F   0  0  0  0  0  0
  -30.0064  -13.4389   20.4411 N   0  0  0  0  0  0
  -26.3001  -12.9329   20.3292 N   0  0  0  0  0  0
  -25.9318  -11.6490   20.5732 N   0  0  0  0  0  0
  -22.0489  -12.8227   22.0389 N   0  0  0  0  0  0
  -25.4272  -15.1880   20.4109 N   0  0  0  0  0  0
  -31.7319  -14.8790   20.1107 O   0  0  0  0  0  0
  -21.6641   -6.8871   21.4243 O   0  0  0  0  0  0
  -22.3540  -14.5544   20.6690 O   0  0  0  0  0  0
  -24.6313  -31.8566   23.1985 C   0  0  0  0  0  0
  -25.9142  -32.4766   23.8309 C   0  0  1  0  0  0
  -27.2229  -27.2827   20.1349 C   0  0  0  0  0  0
  -25.5944  -33.8563   24.2250 N   0  0  0  0  0  0
  -23.4266  -30.4803   21.5420 C   0  0  2  0  0  0
  -24.8744  -28.9225   20.1199 C   0  0  0  0  0  0
  -22.7499  -29.4619   22.4909 C   0  0  0  0  0  0
  -18.0302  -28.1416   22.8465 C   0  0  0  0  0  0
  -24.1507  -36.7268   23.2648 C   0  0  0  0  0  0
  -25.9708  -30.7737   21.3779 C   0  0  0  0  0  0
  -26.0441  -29.3936   20.7325 C   0  0  0  0  0  0
  -27.2225  -28.5835   20.7349 C   0  0  0  0  0  0
  -26.0427  -26.8860   19.4778 C   0  0  0  0  0  0
  -24.8757  -27.6712   19.4858 C   0  0  0  0  0  0
  -23.6475  -29.8100   20.1608 C   0  0  0  0  0  0
  -25.4118  -36.3049   24.0340 C   0  0  1  0  0  0
  -20.5905  -28.3699   23.1266 C   0  0  2  0  0  0
  -20.6801  -26.9413   22.5400 C   0  0  0  0  0  0
  -19.5781  -26.6392   21.5210 C   0  0  0  0  0  0
  -18.1954  -26.7964   22.1608 C   0  0  0  0  0  0
  -19.1557  -28.8870   23.2876 C   0  0  0  0  0  0
  -18.9483  -30.1472   23.8890 C   0  0  0  0  0  0
  -17.6487  -30.6589   24.0573 C   0  0  0  0  0  0
  -25.9047  -34.9440   23.5076 C   0  0  0  0  0  0
  -16.5369  -29.9082   23.6342 C   0  0  0  0  0  0
  -16.7294  -28.6533   23.0308 C   0  0  0  0  0  0
  -26.4501  -31.6581   25.0689 C   0  0  0  0  0  0
  -25.3716  -31.3752   26.1399 C   0  0  0  0  0  0
  -27.0328  -30.3000   24.6138 C   0  0  0  0  0  0
  -27.6043  -32.4321   25.7466 C   0  0  0  0  0  0
  -27.5577  -37.1789   24.8463 C   0  0  0  0  0  0
  -21.4206  -29.3065   22.3659 N   0  0  0  0  0  0
  -26.4289  -37.3744   23.9414 N   0  0  0  0  0  0
  -24.6957  -31.0538   22.0973 N   0  0  0  0  0  0
  -23.4206  -28.8144   23.3000 O   0  0  0  0  0  0
  -28.3386  -26.4347   20.0314 O   0  0  0  0  0  0
  -26.5593  -34.8912   22.4628 O   0  0  0  0  0  0
  -23.5463  -32.1377   23.7279 O   0  0  0  0  0  0
  -29.8291  -19.4041   19.8435 C   0  0  0  0  0  0
  -29.9111  -17.9725   19.7834 C   0  0  0  0  0  0
  -29.5742  -20.1319   21.0390 C   0  0  0  0  0  0
  -29.4020  -19.3213   22.2093 C   0  0  0  0  0  0
  -29.5397  -17.8839   22.1732 C   0  0  0  0  0  0
  -29.8049  -17.1707   20.9616 C   0  0  0  0  0  0
  -29.3500  -17.8339   17.2155 C   0  0  0  0  0  0
  -28.9748  -16.5045   17.8194 C   0  0  0  0  0  0
  -30.0843  -17.3263   18.4387 C   0  0  0  0  0  0
  -29.0847  -20.0144   23.5371 C   0  0  0  0  0  0
  -29.4117  -17.0914   23.4757 C   0  0  0  0  0  0
  -31.1218  -22.1591   20.9141 C   0  0  0  0  0  0
  -26.5146  -23.7083   20.2555 C   0  0  0  0  0  0
  -28.5521  -25.2654   20.9327 C   0  0  0  0  0  0
  -29.6584  -21.7324   21.1014 C   0  0  1  0  0  0
  -27.9468  -23.7629   20.8070 C   0  0  2  0  0  0
  -29.7500  -15.6944   20.9521 N   0  0  0  0  0  0
  -28.7614  -22.5933   20.2236 N   0  3  0  0  0  0
  -31.4902  -12.5707   19.1659 H   0  0  0  0  0  0
  -30.4159  -11.4256   19.9189 H   0  0  0  0  0  0
  -29.7956  -11.7224   17.5158 H   0  0  0  0  0  0
  -29.6682  -13.4455   17.7257 H   0  0  0  0  0  0
  -27.8769  -11.2862   18.8747 H   0  0  0  0  0  0
  -27.3925  -12.5639   17.7925 H   0  0  0  0  0  0
  -27.6742  -14.2476   19.5239 H   0  0  0  0  0  0
  -28.7191  -12.0389   21.3640 H   0  0  0  0  0  0
  -28.4244  -13.6771   21.8591 H   0  0  0  0  0  0
  -25.2753   -9.5686   22.4743 H   0  0  0  0  0  0
  -23.9985   -7.4645   22.7484 H   0  0  0  0  0  0
  -21.0824   -8.8754   19.8956 H   0  0  0  0  0  0
  -22.3680  -10.9651   19.6138 H   0  0  0  0  0  0
  -21.2013   -7.6142   23.9707 H   0  0  0  0  0  0
  -21.1476   -6.0519   25.9071 H   0  0  0  0  0  0
  -22.0602   -2.7602   23.2852 H   0  0  0  0  0  0
  -22.4092  -11.9879   22.4768 H   0  0  0  0  0  0
  -21.1104  -13.1255   22.2584 H   0  0  0  0  0  0
  -24.6569  -15.8380   20.5249 H   0  0  0  0  0  0
  -26.2779  -15.6364   20.0952 H   0  0  0  0  0  0
  -26.7204  -32.5398   23.1036 H   0  0  0  0  0  0
  -25.0171  -33.9710   25.0450 H   0  0  0  0  0  0
  -22.7258  -31.3036   21.3892 H   0  0  0  0  0  0
  -23.3775  -35.9591   23.3276 H   0  0  0  0  0  0
  -24.3624  -36.8889   22.2069 H   0  0  0  0  0  0
  -23.7261  -37.6477   23.6660 H   0  0  0  0  0  0
  -26.1018  -31.5319   20.6043 H   0  0  0  0  0  0
  -26.8552  -30.8273   22.0021 H   0  0  0  0  0  0
  -28.1269  -28.9522   21.2005 H   0  0  0  0  0  0
  -26.0190  -25.9590   18.9308 H   0  0  0  0  0  0
  -23.9865  -27.3076   18.9899 H   0  0  0  0  0  0
  -23.7772  -30.5840   19.4037 H   0  0  0  0  0  0
  -22.7661  -29.2449   19.8523 H   0  0  0  0  0  0
  -25.1302  -36.1893   25.0837 H   0  0  0  0  0  0
  -21.0006  -28.3280   24.1384 H   0  0  0  0  0  0
  -20.5722  -26.2301   23.3600 H   0  0  0  0  0  0
  -21.6662  -26.7446   22.1171 H   0  0  0  0  0  0
  -19.6944  -25.6306   21.1225 H   0  0  0  0  0  0
  -19.6749  -27.3217   20.6760 H   0  0  0  0  0  0
  -17.4233  -26.6724   21.4002 H   0  0  0  0  0  0
  -18.0317  -26.0116   22.9009 H   0  0  0  0  0  0
  -19.7968  -30.7294   24.2241 H   0  0  0  0  0  0
  -17.5044  -31.6269   24.5169 H   0  0  0  0  0  0
  -15.5374  -30.2975   23.7704 H   0  0  0  0  0  0
  -15.8699  -28.0879   22.6953 H   0  0  0  0  0  0
  -24.5962  -30.6990   25.7762 H   0  0  0  0  0  0
  -24.8820  -32.2933   26.4672 H   0  0  0  0  0  0
  -25.8048  -30.9090   27.0258 H   0  0  0  0  0  0
  -26.2897  -29.6760   24.1156 H   0  0  0  0  0  0
  -27.4040  -29.7223   25.4615 H   0  0  0  0  0  0
  -27.8746  -30.4277   23.9327 H   0  0  0  0  0  0
  -27.2647  -33.3649   26.1964 H   0  0  0  0  0  0
  -28.3894  -32.6830   25.0325 H   0  0  0  0  0  0
  -28.0640  -31.8499   26.5454 H   0  0  0  0  0  0
  -28.2551  -38.0127   24.7488 H   0  0  0  0  0  0
  -28.1113  -36.2642   24.6277 H   0  0  0  0  0  0
  -27.2299  -37.1393   25.8872 H   0  0  0  0  0  0
  -20.9385  -29.8813   21.6884 H   0  0  0  0  0  0
  -26.0163  -38.2812   24.1431 H   0  0  0  0  0  0
  -29.9714  -19.9625   18.9286 H   0  0  0  0  0  0
  -28.6304  -18.6418   17.3339 H   0  0  0  0  0  0
  -29.8839  -17.8164   16.2674 H   0  0  0  0  0  0
  -29.2480  -15.6192   17.2514 H   0  0  0  0  0  0
  -28.0267  -16.4467   18.3514 H   0  0  0  0  0  0
  -31.1084  -16.9853   18.3007 H   0  0  0  0  0  0
  -28.2633  -20.7199   23.4130 H   0  0  0  0  0  0
  -29.9580  -20.5543   23.9039 H   0  0  0  0  0  0
  -28.7556  -19.3519   24.3335 H   0  0  0  0  0  0
  -30.0300  -17.5333   24.2576 H   0  0  0  0  0  0
  -29.7435  -16.0589   23.4006 H   0  0  0  0  0  0
  -28.3759  -17.0784   23.8137 H   0  0  0  0  0  0
  -31.7588  -21.6742   21.6547 H   0  0  0  0  0  0
  -31.2442  -23.2353   21.0339 H   0  0  0  0  0  0
  -31.5015  -21.8874   19.9291 H   0  0  0  0  0  0
  -25.8822  -24.4631   20.7240 H   0  0  0  0  0  0
  -26.0489  -22.7438   20.4629 H   0  0  0  0  0  0
  -26.4899  -23.8478   19.1743 H   0  0  0  0  0  0
  -29.6332  -25.1627   21.0236 H   0  0  0  0  0  0
  -28.2502  -25.6312   21.9153 H   0  0  0  0  0  0
  -29.4208  -22.0364   22.1157 H   0  0  0  0  0  0
  -27.8158  -23.4703   21.8491 H   0  0  0  0  0  0
  -28.9076  -15.3239   21.3635 H   0  0  0  0  0  0
  -28.0751  -21.9399   19.8831 H   0  0  0  0  0  0
  -29.2764  -22.8962   19.4124 H   0  0  0  0  0  0
  1 25  1  0  0  0
  1 30  2  0  0  0
  1 87  1  0  0  0
  2  3  1  0  0  0
  2 25  1  0  0  0
  2 89  1  0  0  0
  2 90  1  0  0  0
  3  4  1  0  0  0
  3 91  1  0  0  0
  3 92  1  0  0  0
  4  5  1  0  0  0
  4 93  1  0  0  0
  4 94  1  0  0  0
  5  6  1  0  0  0
  5 26  1  0  0  0
  5 95  1  0  0  0
  6 25  1  0  0  0
  6 96  1  0  0  0
  6 97  1  0  0  0
  7  8  2  0  0  0
  7 26  1  0  0  0
  7 29  1  0  0  0
  8  9  1  0  0  0
  8 22  1  0  0  0
  9 10  1  0  0  0
  9 27  2  0  0  0
 10 11  2  0  0  0
 10 15  1  0  0  0
 11 12  1  0  0  0
 11 98  1  0  0  0
 12 13  2  0  0  0
 12 99  1  0  0  0
 13 14  1  0  0  0
 13 31  1  0  0  0
 14 15  2  0  0  0
 14100  1  0  0  0
 15101  1  0  0  0
 16 17  2  0  0  0
 16 21  1  0  0  0
 16 31  1  0  0  0
 17 18  1  0  0  0
 17102  1  0  0  0
 18 19  2  0  0  0
 18103  1  0  0  0
 19 20  1  0  0  0
 19 24  1  0  0  0
 20 21  2  0  0  0
 20104  1  0  0  0
 21 23  1  0  0  0
 22 28  1  0  0  0
 22 32  2  0  0  0
 26 27  1  0  0  0
 28105  1  0  0  0
 28106  1  0  0  0
 29107  1  0  0  0
 29108  1  0  0  0
 33 34  1  0  0  0
 33 66  1  0  0  0
 33 70  2  0  0  0
 34 36  1  0  0  0
 34 59  1  0  0  0
 34109  1  0  0  0
 35 44  2  0  0  0
 35 45  1  0  0  0
 35 68  1  0  0  0
 36 56  1  0  0  0
 36110  1  0  0  0
 37 39  1  0  0  0
 37 47  1  0  0  0
 37 66  1  0  0  0
 37111  1  0  0  0
 38 43  2  0  0  0
 38 46  1  0  0  0
 38 47  1  0  0  0
 39 64  1  0  0  0
 39 67  2  0  0  0
 40 52  1  0  0  0
 40 53  2  0  0  0
 40 58  1  0  0  0
 41112  1  0  0  0
 41113  1  0  0  0
 41114  1  0  0  0
 41 48  1  0  0  0
 42 43  1  0  0  0
 42 66  1  0  0  0
 42115  1  0  0  0
 42116  1  0  0  0
 43 44  1  0  0  0
 44117  1  0  0  0
 45 46  2  0  0  0
 45118  1  0  0  0
 46119  1  0  0  0
 47120  1  0  0  0
 47121  1  0  0  0
 48 56  1  0  0  0
 48 65  1  0  0  0
 48122  1  0  0  0
 49 50  1  0  0  0
 49 53  1  0  0  0
 49 64  1  0  0  0
 49123  1  0  0  0
 50 51  1  0  0  0
 50124  1  0  0  0
 50125  1  0  0  0
 51 52  1  0  0  0
 51126  1  0  0  0
 51127  1  0  0  0
 52128  1  0  0  0
 52129  1  0  0  0
 53 54  1  0  0  0
 54 55  2  0  0  0
 54130  1  0  0  0
 55 57  1  0  0  0
 55131  1  0  0  0
 56 69  2  0  0  0
 57 58  2  0  0  0
 57132  1  0  0  0
 58133  1  0  0  0
 59 60  1  0  0  0
 59 61  1  0  0  0
 59 62  1  0  0  0
 60134  1  0  0  0
 60135  1  0  0  0
 60136  1  0  0  0
 61137  1  0  0  0
 61138  1  0  0  0
 61139  1  0  0  0
 62140  1  0  0  0
 62141  1  0  0  0
 62142  1  0  0  0
 63 65  1  0  0  0
 63143  1  0  0  0
 63144  1  0  0  0
 63145  1  0  0  0
 64146  1  0  0  0
 65147  1  0  0  0
 68 84  1  0  0  0
 71 72  2  0  0  0
 71 73  1  0  0  0
 71148  1  0  0  0
 72 76  1  0  0  0
 72 79  1  0  0  0
 73 74  2  0  0  0
 73 85  1  0  0  0
 74 75  1  0  0  0
 74 80  1  0  0  0
 75 76  2  0  0  0
 75 81  1  0  0  0
 76 87  1  0  0  0
 77 78  1  0  0  0
 77 79  1  0  0  0
 77149  1  0  0  0
 77150  1  0  0  0
 78 79  1  0  0  0
 78151  1  0  0  0
 78152  1  0  0  0
 79153  1  0  0  0
 80154  1  0  0  0
 80155  1  0  0  0
 80156  1  0  0  0
 81157  1  0  0  0
 81158  1  0  0  0
 81159  1  0  0  0
 82160  1  0  0  0
 82161  1  0  0  0
 82162  1  0  0  0
 82 85  1  0  0  0
 83163  1  0  0  0
 83164  1  0  0  0
 83165  1  0  0  0
 83 86  1  0  0  0
 84 86  1  0  0  0
 84166  1  0  0  0
 84167  1  0  0  0
 85 88  1  0  0  0
 85168  1  0  0  0
 86 88  1  0  0  0
 86169  1  0  0  0
 87170  1  0  0  0
 88171  1  0  0  0
 88172  1  0  0  0
M  CHG  1  88   1
M  ISO  4   1 100  68 101  84 101  87 100
M  END
> <chiral flag>
0

> <version>
0

> <s_m_source_file>
/data/baiqing/PycharmProjects/Reinvent-master-3.2/result/LINK_invent/BTK/process_docking_weight1_custom_sum_contain_oxygen_bond_distance_aromatic_linkinvent_7_9_3/rearranged_h_0169.sdf

> <i_m_source_file_index>
6

> <r_mmod_Potential_Energy-OPLS-2005>
83.2526550292969

> <r_mmod_Stretch_Energy-OPLS-2005>
107.555908203125

> <r_mmod_Bend_Energy-OPLS-2005>
203.751129150391

> <r_mmod_Torsional_Energy-OPLS-2005>
308.752014160156

> <r_mmod_Improper_Torsional_Energy-OPLS-2005>
5.06655693054199

> <r_mmod_Van_der_Waal_Energy-OPLS-2005>
136.672164916992

> <r_mmod_Electrostatic_Energy-OPLS-2005>
-308.627960205078

> <r_mmod_Solvation_Energy-OPLS-2005>
-431.422180175781

> <b_mmod_Minimization_Converged-OPLS-2005>
0

> <r_mmod_RMS_Derivative-OPLS-2005>
2.58866310119629

$$$$
6
                    3D
 Structure written by MMmdl.
169178  0  0  1  0            999 V2000
  -30.6904  -14.5540   20.5220 C   0  0  0  0  0  0
  -30.4255  -12.3483   19.4455 C   0  0  0  0  0  0
  -29.4981  -12.4894   18.2203 C   0  0  0  0  0  0
  -28.0208  -12.3515   18.6341 C   0  0  0  0  0  0
  -27.6568  -13.2189   19.8687 C   0  0  2  0  0  0
  -28.7002  -13.0654   20.9993 C   0  0  0  0  0  0
  -25.2573  -13.8202   20.5690 C   0  0  0  0  0  0
  -24.1841  -13.0458   20.9201 C   0  0  0  0  0  0
  -24.6409  -11.6925   20.8761 C   0  0  0  0  0  0
  -23.9079  -10.4305   21.0419 C   0  0  0  0  0  0
  -24.3622   -9.4215   21.9198 C   0  0  0  0  0  0
  -23.6294   -8.2262   22.0766 C   0  0  0  0  0  0
  -22.4277   -8.0298   21.3549 C   0  0  0  0  0  0
  -21.9918   -9.0278   20.4658 C   0  0  0  0  0  0
  -22.7250  -10.2151   20.3070 C   0  0  0  0  0  0
  -21.6858   -6.0746   22.5276 C   0  0  0  0  0  0
  -21.4011   -6.5648   23.8213 C   0  0  0  0  0  0
  -21.3652   -5.6792   24.9174 C   0  0  0  0  0  0
  -21.6042   -4.3063   24.7222 C   0  0  0  0  0  0
  -21.8825   -3.8152   23.4343 C   0  0  0  0  0  0
  -21.9190   -4.6975   22.3399 C   0  0  0  0  0  0
  -22.7862  -13.5251   21.1837 C   0  0  0  0  0  0
  -22.1664   -4.2159   21.0975 F   0  0  0  0  0  0
  -21.5622   -3.4543   25.7734 F   0  0  0  0  0  0
  -30.0216  -13.3684   20.4337 N   0  0  0  0  0  0
  -26.3005  -12.9383   20.3362 N   0  0  0  0  0  0
  -25.9338  -11.6531   20.5800 N   0  0  0  0  0  0
  -22.0482  -12.8264   22.0387 N   0  0  0  0  0  0
  -25.4290  -15.1921   20.4057 N   0  0  0  0  0  0
  -31.8455  -14.6776   20.1076 O   0  0  0  0  0  0
  -21.6643   -6.8897   21.4241 O   0  0  0  0  0  0
  -22.3543  -14.5539   20.6653 O   0  0  0  0  0  0
  -24.6156  -31.8658   23.2060 C   0  0  0  0  0  0
  -25.9037  -32.4815   23.8375 C   0  0  1  0  0  0
  -27.2266  -27.3846   20.1134 C   0  0  0  0  0  0
  -25.5875  -33.8614   24.2293 N   0  0  0  0  0  0
  -23.4090  -30.4867   21.5484 C   0  0  2  0  0  0
  -24.8563  -28.9523   20.1138 C   0  0  0  0  0  0
  -22.7443  -29.4615   22.4964 C   0  0  0  0  0  0
  -18.0295  -28.1345   22.8487 C   0  0  0  0  0  0
  -24.1473  -36.7303   23.2647 C   0  0  0  0  0  0
  -25.9423  -30.8168   21.3687 C   0  0  0  0  0  0
  -26.0225  -29.4506   20.7088 C   0  0  0  0  0  0
  -27.2149  -28.6791   20.6963 C   0  0  0  0  0  0
  -26.0423  -26.9178   19.5025 C   0  0  0  0  0  0
  -24.8625  -27.6863   19.5059 C   0  0  0  0  0  0
  -23.6214  -29.8252   20.1618 C   0  0  0  0  0  0
  -25.4106  -36.3098   24.0327 C   0  0  1  0  0  0
  -20.5889  -28.3636   23.1302 C   0  0  2  0  0  0
  -20.6779  -26.9370   22.5408 C   0  0  0  0  0  0
  -19.5758  -26.6348   21.5204 C   0  0  0  0  0  0
  -18.1934  -26.7884   22.1617 C   0  0  0  0  0  0
  -19.1546  -28.8809   23.2877 C   0  0  0  0  0  0
  -18.9479  -30.1422   23.8879 C   0  0  0  0  0  0
  -17.6480  -30.6567   24.0543 C   0  0  0  0  0  0
  -25.9036  -34.9465   23.5111 C   0  0  0  0  0  0
  -16.5365  -29.9069   23.6314 C   0  0  0  0  0  0
  -16.7274  -28.6481   23.0341 C   0  0  0  0  0  0
  -26.4452  -31.6621   25.0725 C   0  0  0  0  0  0
  -25.3688  -31.3762   26.1449 C   0  0  0  0  0  0
  -27.0318  -30.3051   24.6148 C   0  0  0  0  0  0
  -27.5997  -32.4382   25.7491 C   0  0  0  0  0  0
  -27.5580  -37.1795   24.8470 C   0  0  0  0  0  0
  -21.4169  -29.2998   22.3701 N   0  0  0  0  0  0
  -26.4297  -37.3777   23.9412 N   0  0  0  0  0  0
  -24.6743  -31.0714   22.0992 N   0  0  0  0  0  0
  -23.4202  -28.8163   23.3020 O   0  0  0  0  0  0
  -28.3630  -26.5856   20.1346 O   0  0  0  0  0  0
  -26.5626  -34.8918   22.4691 O   0  0  0  0  0  0
  -23.5325  -32.1455   23.7401 O   0  0  0  0  0  0
  -30.2565  -19.5701   20.6170 C   0  0  0  0  0  0
  -28.2161  -19.6313   22.4861 C   0  0  0  0  0  0
  -29.8006  -20.8432   21.0683 C   0  0  0  0  0  0
  -29.7441  -18.3245   21.0881 C   0  0  0  0  0  0
  -28.7730  -20.8530   22.0394 C   0  0  0  0  0  0
  -28.6887  -18.3723   22.0385 C   0  0  0  0  0  0
  -30.6541  -22.3592   19.1373 C   0  0  0  0  0  0
  -30.5603  -22.0933   20.6068 C   0  0  1  0  0  0
  -30.1445  -23.4892   20.0254 C   0  0  1  0  0  0
  -28.2860  -22.1463   22.6712 C   0  0  0  0  0  0
  -28.0597  -17.1227   22.6335 C   0  0  0  0  0  0
  -31.1035  -24.6416   20.3091 C   0  0  0  0  0  0
  -28.5804  -24.4326   18.2121 C   0  0  0  0  0  0
  -30.4320  -17.0361   20.5461 C   0  0  0  0  0  0
  -28.1943  -25.2148   20.6151 C   0  0  0  0  0  0
  -28.7283  -24.0482   19.6999 C   0  0  2  0  0  0
  -29.9760  -15.6551   20.8707 N   0  0  0  0  0  0
  -31.4668  -12.4531   19.1339 H   0  0  0  0  0  0
  -30.3484  -11.3501   19.8780 H   0  0  0  0  0  0
  -29.7449  -11.7324   17.4748 H   0  0  0  0  0  0
  -29.6611  -13.4554   17.7400 H   0  0  0  0  0  0
  -27.8415  -11.2987   18.8542 H   0  0  0  0  0  0
  -27.3724  -12.5992   17.7937 H   0  0  0  0  0  0
  -27.6814  -14.2583   19.5358 H   0  0  0  0  0  0
  -28.6916  -12.0496   21.3967 H   0  0  0  0  0  0
  -28.4635  -13.7199   21.8394 H   0  0  0  0  0  0
  -25.2768   -9.5691   22.4776 H   0  0  0  0  0  0
  -24.0001   -7.4650   22.7482 H   0  0  0  0  0  0
  -21.0853   -8.8799   19.8959 H   0  0  0  0  0  0
  -22.3716  -10.9695   19.6182 H   0  0  0  0  0  0
  -21.2006   -7.6154   23.9714 H   0  0  0  0  0  0
  -21.1465   -6.0529   25.9074 H   0  0  0  0  0  0
  -22.0606   -2.7617   23.2841 H   0  0  0  0  0  0
  -22.4085  -11.9947   22.4832 H   0  0  0  0  0  0
  -21.1091  -13.1303   22.2548 H   0  0  0  0  0  0
  -24.6615  -15.8462   20.5038 H   0  0  0  0  0  0
  -26.2677  -15.6211   20.0369 H   0  0  0  0  0  0
  -26.7113  -32.5497   23.1143 H   0  0  0  0  0  0
  -24.9952  -33.9788   25.0382 H   0  0  0  0  0  0
  -22.6956  -31.3025   21.4105 H   0  0  0  0  0  0
  -23.3739  -35.9637   23.3337 H   0  0  0  0  0  0
  -24.3570  -36.8908   22.2063 H   0  0  0  0  0  0
  -23.7232  -37.6508   23.6661 H   0  0  0  0  0  0
  -26.0650  -31.5879   20.6077 H   0  0  0  0  0  0
  -26.8234  -30.8624   21.9976 H   0  0  0  0  0  0
  -28.1158  -29.0600   21.1590 H   0  0  0  0  0  0
  -26.0179  -25.9472   19.0310 H   0  0  0  0  0  0
  -23.9659  -27.2970   19.0436 H   0  0  0  0  0  0
  -23.7418  -30.6044   19.4074 H   0  0  0  0  0  0
  -22.7421  -29.2537   19.8607 H   0  0  0  0  0  0
  -25.1293  -36.1953   25.0821 H   0  0  0  0  0  0
  -20.9973  -28.3209   24.1434 H   0  0  0  0  0  0
  -20.5687  -26.2254   23.3602 H   0  0  0  0  0  0
  -21.6650  -26.7430   22.1204 H   0  0  0  0  0  0
  -19.6920  -25.6260   21.1241 H   0  0  0  0  0  0
  -19.6681  -27.3154   20.6722 H   0  0  0  0  0  0
  -17.4197  -26.6630   21.4010 H   0  0  0  0  0  0
  -18.0342  -26.0014   22.9008 H   0  0  0  0  0  0
  -19.7963  -30.7218   24.2250 H   0  0  0  0  0  0
  -17.5049  -31.6257   24.5134 H   0  0  0  0  0  0
  -15.5364  -30.2962   23.7642 H   0  0  0  0  0  0
  -15.8678  -28.0796   22.7051 H   0  0  0  0  0  0
  -24.5822  -30.7172   25.7767 H   0  0  0  0  0  0
  -24.8925  -32.2934   26.4896 H   0  0  0  0  0  0
  -25.7976  -30.8895   27.0213 H   0  0  0  0  0  0
  -26.2898  -29.6781   24.1176 H   0  0  0  0  0  0
  -27.4059  -29.7315   25.4645 H   0  0  0  0  0  0
  -27.8734  -30.4392   23.9350 H   0  0  0  0  0  0
  -27.2593  -33.3673   26.2074 H   0  0  0  0  0  0
  -28.3774  -32.6968   25.0299 H   0  0  0  0  0  0
  -28.0685  -31.8515   26.5392 H   0  0  0  0  0  0
  -28.2582  -38.0095   24.7524 H   0  0  0  0  0  0
  -28.1075  -36.2630   24.6293 H   0  0  0  0  0  0
  -27.2299  -37.1458   25.8866 H   0  0  0  0  0  0
  -20.9325  -29.8731   21.6945 H   0  0  0  0  0  0
  -26.0177  -38.2846   24.1425 H   0  0  0  0  0  0
  -31.0789  -19.5475   19.9132 H   0  0  0  0  0  0
  -27.4276  -19.6641   23.2265 H   0  0  0  0  0  0
  -29.9305  -21.8414   18.5084 H   0  0  0  0  0  0
  -31.6489  -22.4467   18.7056 H   0  0  0  0  0  0
  -31.5087  -22.0866   21.1416 H   0  0  0  0  0  0
  -27.9672  -21.9677   23.6985 H   0  0  0  0  0  0
  -27.4359  -22.5504   22.1231 H   0  0  0  0  0  0
  -29.0698  -22.9029   22.7120 H   0  0  0  0  0  0
  -27.2648  -17.3711   23.3401 H   0  0  0  0  0  0
  -28.8025  -16.5383   23.1778 H   0  0  0  0  0  0
  -27.6142  -16.5005   21.8586 H   0  0  0  0  0  0
  -30.9688  -25.0135   21.3255 H   0  0  0  0  0  0
  -30.9535  -25.4670   19.6119 H   0  0  0  0  0  0
  -32.1411  -24.3153   20.2191 H   0  0  0  0  0  0
  -28.9104  -23.6398   17.5433 H   0  0  0  0  0  0
  -29.1537  -25.3269   17.9666 H   0  0  0  0  0  0
  -27.5391  -24.6318   17.9653 H   0  0  0  0  0  0
  -31.4813  -17.1225   20.8320 H   0  0  0  0  0  0
  -30.4144  -17.1202   19.4571 H   0  0  0  0  0  0
  -28.6565  -25.1505   21.5996 H   0  0  0  0  0  0
  -27.1447  -25.0025   20.8196 H   0  0  0  0  0  0
  -28.0588  -23.2024   19.8566 H   0  0  0  0  0  0
  -29.0293  -15.5276   21.1891 H   0  0  0  0  0  0
  1 25  1  0  0  0
  1 30  2  0  0  0
  1 87  1  0  0  0
  2  3  1  0  0  0
  2 25  1  0  0  0
  2 88  1  0  0  0
  2 89  1  0  0  0
  3  4  1  0  0  0
  3 90  1  0  0  0
  3 91  1  0  0  0
  4  5  1  0  0  0
  4 92  1  0  0  0
  4 93  1  0  0  0
  5  6  1  0  0  0
  5 26  1  0  0  0
  5 94  1  0  0  0
  6 25  1  0  0  0
  6 95  1  0  0  0
  6 96  1  0  0  0
  7  8  2  0  0  0
  7 26  1  0  0  0
  7 29  1  0  0  0
  8  9  1  0  0  0
  8 22  1  0  0  0
  9 10  1  0  0  0
  9 27  2  0  0  0
 10 11  2  0  0  0
 10 15  1  0  0  0
 11 12  1  0  0  0
 11 97  1  0  0  0
 12 13  2  0  0  0
 12 98  1  0  0  0
 13 14  1  0  0  0
 13 31  1  0  0  0
 14 15  2  0  0  0
 14 99  1  0  0  0
 15100  1  0  0  0
 16 17  2  0  0  0
 16 21  1  0  0  0
 16 31  1  0  0  0
 17 18  1  0  0  0
 17101  1  0  0  0
 18 19  2  0  0  0
 18102  1  0  0  0
 19 20  1  0  0  0
 19 24  1  0  0  0
 20 21  2  0  0  0
 20103  1  0  0  0
 21 23  1  0  0  0
 22 28  1  0  0  0
 22 32  2  0  0  0
 26 27  1  0  0  0
 28104  1  0  0  0
 28105  1  0  0  0
 29106  1  0  0  0
 29107  1  0  0  0
 33 34  1  0  0  0
 33 66  1  0  0  0
 33 70  2  0  0  0
 34 36  1  0  0  0
 34 59  1  0  0  0
 34108  1  0  0  0
 35 44  2  0  0  0
 35 45  1  0  0  0
 35 68  1  0  0  0
 36 56  1  0  0  0
 36109  1  0  0  0
 37 39  1  0  0  0
 37 47  1  0  0  0
 37 66  1  0  0  0
 37110  1  0  0  0
 38 43  2  0  0  0
 38 46  1  0  0  0
 38 47  1  0  0  0
 39 64  1  0  0  0
 39 67  2  0  0  0
 40 52  1  0  0  0
 40 53  2  0  0  0
 40 58  1  0  0  0
 41111  1  0  0  0
 41112  1  0  0  0
 41113  1  0  0  0
 41 48  1  0  0  0
 42 43  1  0  0  0
 42 66  1  0  0  0
 42114  1  0  0  0
 42115  1  0  0  0
 43 44  1  0  0  0
 44116  1  0  0  0
 45 46  2  0  0  0
 45117  1  0  0  0
 46118  1  0  0  0
 47119  1  0  0  0
 47120  1  0  0  0
 48 56  1  0  0  0
 48 65  1  0  0  0
 48121  1  0  0  0
 49 50  1  0  0  0
 49 53  1  0  0  0
 49 64  1  0  0  0
 49122  1  0  0  0
 50 51  1  0  0  0
 50123  1  0  0  0
 50124  1  0  0  0
 51 52  1  0  0  0
 51125  1  0  0  0
 51126  1  0  0  0
 52127  1  0  0  0
 52128  1  0  0  0
 53 54  1  0  0  0
 54 55  2  0  0  0
 54129  1  0  0  0
 55 57  1  0  0  0
 55130  1  0  0  0
 56 69  2  0  0  0
 57 58  2  0  0  0
 57131  1  0  0  0
 58132  1  0  0  0
 59 60  1  0  0  0
 59 61  1  0  0  0
 59 62  1  0  0  0
 60133  1  0  0  0
 60134  1  0  0  0
 60135  1  0  0  0
 61136  1  0  0  0
 61137  1  0  0  0
 61138  1  0  0  0
 62139  1  0  0  0
 62140  1  0  0  0
 62141  1  0  0  0
 63 65  1  0  0  0
 63142  1  0  0  0
 63143  1  0  0  0
 63144  1  0  0  0
 64145  1  0  0  0
 65146  1  0  0  0
 68 85  1  0  0  0
 71 73  2  0  0  0
 71 74  1  0  0  0
 71147  1  0  0  0
 72 75  2  0  0  0
 72 76  1  0  0  0
 72148  1  0  0  0
 73 75  1  0  0  0
 73 78  1  0  0  0
 74 76  2  0  0  0
 74 84  1  0  0  0
 75 80  1  0  0  0
 76 81  1  0  0  0
 77 78  1  0  0  0
 77 79  1  0  0  0
 77149  1  0  0  0
 77150  1  0  0  0
 78 79  1  0  0  0
 78151  1  0  0  0
 79 82  1  0  0  0
 79 86  1  0  0  0
 80152  1  0  0  0
 80153  1  0  0  0
 80154  1  0  0  0
 81155  1  0  0  0
 81156  1  0  0  0
 81157  1  0  0  0
 82158  1  0  0  0
 82159  1  0  0  0
 82160  1  0  0  0
 83161  1  0  0  0
 83162  1  0  0  0
 83163  1  0  0  0
 83 86  1  0  0  0
 84 87  1  0  0  0
 84164  1  0  0  0
 84165  1  0  0  0
 85 86  1  0  0  0
 85166  1  0  0  0
 85167  1  0  0  0
 86168  1  0  0  0
 87169  1  0  0  0
M  ISO  4   1 100  68 101  85 101  87 100
M  END
> <chiral flag>
0

> <version>
0

> <s_m_source_file>
/data/baiqing/PycharmProjects/Reinvent-master-3.2/result/LINK_invent/BTK/process_docking_weight1_custom_sum_contain_oxygen_bond_distance_aromatic_linkinvent_7_9_3/rearranged_h_0169.sdf

> <i_m_source_file_index>
7

> <r_mmod_Potential_Energy-OPLS-2005>
52.7304458618164

> <r_mmod_Stretch_Energy-OPLS-2005>
59.6137428283691

> <r_mmod_Bend_Energy-OPLS-2005>
153.313232421875

> <r_mmod_Torsional_Energy-OPLS-2005>
283.604522705078

> <r_mmod_Improper_Torsional_Energy-OPLS-2005>
6.30389642715454

> <r_mmod_Van_der_Waal_Energy-OPLS-2005>
144.529022216797

> <r_mmod_Electrostatic_Energy-OPLS-2005>
-427.917419433594

> <r_mmod_Solvation_Energy-OPLS-2005>
-193.162033081055

> <b_mmod_Minimization_Converged-OPLS-2005>
0

> <r_mmod_RMS_Derivative-OPLS-2005>
3.0640013217926

$$$$
7
                    3D
 Structure written by MMmdl.
173183  0  0  1  0            999 V2000
  -30.6321  -14.6865   20.4972 C   0  0  0  0  0  0
  -30.4264  -12.4241   19.4653 C   0  0  0  0  0  0
  -29.4976  -12.4953   18.2325 C   0  0  0  0  0  0
  -28.0253  -12.3281   18.6488 C   0  0  0  0  0  0
  -27.6434  -13.2222   19.8585 C   0  0  2  0  0  0
  -28.6862  -13.1249   20.9922 C   0  0  0  0  0  0
  -25.2529  -13.8189   20.5738 C   0  0  0  0  0  0
  -24.1782  -13.0453   20.9194 C   0  0  0  0  0  0
  -24.6332  -11.6921   20.8735 C   0  0  0  0  0  0
  -23.9022  -10.4295   21.0408 C   0  0  0  0  0  0
  -24.3585   -9.4221   21.9194 C   0  0  0  0  0  0
  -23.6280   -8.2243   22.0758 C   0  0  0  0  0  0
  -22.4269   -8.0253   21.3548 C   0  0  0  0  0  0
  -21.9915   -9.0204   20.4621 C   0  0  0  0  0  0
  -22.7219  -10.2100   20.3027 C   0  0  0  0  0  0
  -21.6823   -6.0723   22.5283 C   0  0  0  0  0  0
  -21.3982   -6.5640   23.8208 C   0  0  0  0  0  0
  -21.3661   -5.6802   24.9185 C   0  0  0  0  0  0
  -21.6047   -4.3066   24.7221 C   0  0  0  0  0  0
  -21.8798   -3.8142   23.4342 C   0  0  0  0  0  0
  -21.9181   -4.6959   22.3395 C   0  0  0  0  0  0
  -22.7815  -13.5252   21.1878 C   0  0  0  0  0  0
  -22.1657   -4.2154   21.0969 F   0  0  0  0  0  0
  -21.5670   -3.4540   25.7731 F   0  0  0  0  0  0
  -29.9938  -13.4720   20.4211 N   0  0  0  0  0  0
  -26.2931  -12.9355   20.3333 N   0  0  0  0  0  0
  -25.9259  -11.6514   20.5765 N   0  0  0  0  0  0
  -22.0447  -12.8185   22.0412 N   0  0  0  0  0  0
  -25.4309  -15.1906   20.4195 N   0  0  0  0  0  0
  -31.8108  -14.7858   20.1388 O   0  0  0  0  0  0
  -21.6641   -6.8854   21.4235 O   0  0  0  0  0  0
  -22.3513  -14.5585   20.6771 O   0  0  0  0  0  0
  -24.6332  -31.8589   23.2075 C   0  0  0  0  0  0
  -25.9192  -32.4766   23.8384 C   0  0  1  0  0  0
  -27.1916  -27.2651   20.1133 C   0  0  0  0  0  0
  -25.6012  -33.8566   24.2326 N   0  0  0  0  0  0
  -23.4251  -30.4913   21.5510 C   0  0  2  0  0  0
  -24.8645  -28.9530   20.1132 C   0  0  0  0  0  0
  -22.7491  -29.4638   22.4915 C   0  0  0  0  0  0
  -18.0309  -28.1370   22.8495 C   0  0  0  0  0  0
  -24.1477  -36.7263   23.2636 C   0  0  0  0  0  0
  -25.9749  -30.7696   21.3946 C   0  0  0  0  0  0
  -26.0400  -29.3986   20.7284 C   0  0  0  0  0  0
  -27.2092  -28.5660   20.7245 C   0  0  0  0  0  0
  -26.0013  -26.9245   19.4366 C   0  0  0  0  0  0
  -24.8481  -27.7204   19.4584 C   0  0  0  0  0  0
  -23.6427  -29.8453   20.1610 C   0  0  0  0  0  0
  -25.4106  -36.3070   24.0344 C   0  0  1  0  0  0
  -20.5909  -28.3709   23.1239 C   0  0  2  0  0  0
  -20.6782  -26.9420   22.5399 C   0  0  0  0  0  0
  -19.5767  -26.6383   21.5187 C   0  0  0  0  0  0
  -18.1950  -26.7918   22.1608 C   0  0  0  0  0  0
  -19.1555  -28.8853   23.2864 C   0  0  0  0  0  0
  -18.9479  -30.1457   23.8885 C   0  0  0  0  0  0
  -17.6472  -30.6573   24.0548 C   0  0  0  0  0  0
  -25.9060  -34.9443   23.5109 C   0  0  0  0  0  0
  -16.5370  -29.9065   23.6327 C   0  0  0  0  0  0
  -16.7295  -28.6471   23.0368 C   0  0  0  0  0  0
  -26.4553  -31.6568   25.0763 C   0  0  0  0  0  0
  -25.3767  -31.3732   26.1480 C   0  0  0  0  0  0
  -27.0380  -30.2970   24.6261 C   0  0  0  0  0  0
  -27.6102  -32.4289   25.7550 C   0  0  0  0  0  0
  -27.5570  -37.1789   24.8479 C   0  0  0  0  0  0
  -21.4194  -29.3057   22.3625 N   0  0  0  0  0  0
  -26.4279  -37.3770   23.9430 N   0  0  0  0  0  0
  -24.6961  -31.0587   22.1056 N   0  0  0  0  0  0
  -23.4184  -28.8170   23.3016 O   0  0  0  0  0  0
  -28.2581  -26.3298   20.1868 O   0  0  0  0  0  0
  -26.5579  -34.8900   22.4651 O   0  0  0  0  0  0
  -23.5493  -32.1423   23.7387 O   0  0  0  0  0  0
  -28.4683  -21.0156   22.0402 C   0  0  0  0  0  0
  -29.6579  -19.8085   20.3335 C   0  0  0  0  0  0
  -29.1200  -21.0649   20.8019 C   0  0  0  0  0  0
  -28.9806  -18.6030   22.3725 C   0  0  0  0  0  0
  -28.3769  -19.8319   22.8023 C   0  0  0  0  0  0
  -29.6002  -18.5636   21.0814 C   0  0  0  0  0  0
  -27.8484  -16.4547   23.4023 C   0  0  0  0  0  0
  -28.5031  -17.0588   24.6200 C   0  0  0  0  0  0
  -27.8225  -22.5949   19.1925 C   0  0  0  0  0  0
  -27.5747  -24.1025   19.0107 C   0  0  0  0  0  0
  -29.1140  -22.4328   19.9920 C   0  0  1  0  0  0
  -29.0587  -17.3452   23.2330 C   0  0  0  0  0  0
  -29.2338  -23.8785   20.7041 C   0  0  2  0  0  0
  -28.0016  -24.8321   20.3175 C   0  0  1  0  0  0
  -27.5869  -19.9734   24.0897 C   0  0  0  0  0  0
  -30.5496  -24.5674   20.3107 C   0  0  0  0  0  0
  -26.9482  -24.6478   21.4401 C   0  0  0  0  0  0
  -30.3309  -17.2592   20.5154 C   0  0  0  0  0  0
  -29.8900  -15.8210   20.7606 N   0  0  0  0  0  0
  -31.4670  -12.5387   19.1563 H   0  0  0  0  0  0
  -30.3655  -11.4393   19.9319 H   0  0  0  0  0  0
  -29.7601  -11.7228   17.5095 H   0  0  0  0  0  0
  -29.6301  -13.4493   17.7224 H   0  0  0  0  0  0
  -27.8771  -11.2795   18.9109 H   0  0  0  0  0  0
  -27.3676  -12.5229   17.8027 H   0  0  0  0  0  0
  -27.6467  -14.2467   19.4876 H   0  0  0  0  0  0
  -28.7070  -12.1161   21.4079 H   0  0  0  0  0  0
  -28.4209  -13.7827   21.8159 H   0  0  0  0  0  0
  -25.2678   -9.5728   22.4831 H   0  0  0  0  0  0
  -23.9977   -7.4637   22.7474 H   0  0  0  0  0  0
  -21.0871   -8.8665   19.8902 H   0  0  0  0  0  0
  -22.3650  -10.9626   19.6144 H   0  0  0  0  0  0
  -21.1940   -7.6141   23.9718 H   0  0  0  0  0  0
  -21.1540   -6.0537   25.9102 H   0  0  0  0  0  0
  -22.0583   -2.7604   23.2830 H   0  0  0  0  0  0
  -22.4051  -11.9813   22.4732 H   0  0  0  0  0  0
  -21.1049  -13.1148   22.2621 H   0  0  0  0  0  0
  -24.6643  -15.8472   20.5103 H   0  0  0  0  0  0
  -26.2808  -15.6231   20.0816 H   0  0  0  0  0  0
  -26.7228  -32.5431   23.1086 H   0  0  0  0  0  0
  -25.0247  -33.9710   25.0533 H   0  0  0  0  0  0
  -22.7225  -31.3163   21.4160 H   0  0  0  0  0  0
  -23.3749  -35.9579   23.3304 H   0  0  0  0  0  0
  -24.3576  -36.8874   22.2046 H   0  0  0  0  0  0
  -23.7192  -37.6461   23.6628 H   0  0  0  0  0  0
  -26.1209  -31.5329   20.6297 H   0  0  0  0  0  0
  -26.8485  -30.8109   22.0325 H   0  0  0  0  0  0
  -28.1041  -28.8930   21.2339 H   0  0  0  0  0  0
  -25.8985  -26.0206   18.8803 H   0  0  0  0  0  0
  -23.9565  -27.3782   18.9517 H   0  0  0  0  0  0
  -23.7841  -30.6315   19.4182 H   0  0  0  0  0  0
  -22.7566  -29.2939   19.8406 H   0  0  0  0  0  0
  -25.1259  -36.1931   25.0830 H   0  0  0  0  0  0
  -21.0021  -28.3310   24.1346 H   0  0  0  0  0  0
  -20.5642  -26.2324   23.3622 H   0  0  0  0  0  0
  -21.6657  -26.7401   22.1227 H   0  0  0  0  0  0
  -19.6940  -25.6287   21.1223 H   0  0  0  0  0  0
  -19.6701  -27.3172   20.6700 H   0  0  0  0  0  0
  -17.4215  -26.6685   21.4018 H   0  0  0  0  0  0
  -18.0371  -26.0023   22.8968 H   0  0  0  0  0  0
  -19.7955  -30.7274   24.2243 H   0  0  0  0  0  0
  -17.5033  -31.6268   24.5116 H   0  0  0  0  0  0
  -15.5370  -30.2963   23.7635 H   0  0  0  0  0  0
  -15.8704  -28.0765   22.7105 H   0  0  0  0  0  0
  -24.5999  -30.7005   25.7838 H   0  0  0  0  0  0
  -24.8897  -32.2886   26.4834 H   0  0  0  0  0  0
  -25.8108  -30.9000   27.0295 H   0  0  0  0  0  0
  -26.2947  -29.6716   24.1301 H   0  0  0  0  0  0
  -27.4047  -29.7256   25.4802 H   0  0  0  0  0  0
  -27.8833  -30.4225   23.9495 H   0  0  0  0  0  0
  -27.2722  -33.3602   26.2099 H   0  0  0  0  0  0
  -28.3930  -32.6817   25.0389 H   0  0  0  0  0  0
  -28.0721  -31.8419   26.5502 H   0  0  0  0  0  0
  -28.2584  -38.0088   24.7514 H   0  0  0  0  0  0
  -28.1055  -36.2615   24.6290 H   0  0  0  0  0  0
  -27.2297  -37.1429   25.8886 H   0  0  0  0  0  0
  -20.9403  -29.8793   21.6828 H   0  0  0  0  0  0
  -26.0165  -38.2836   24.1461 H   0  0  0  0  0  0
  -28.0042  -21.9162   22.4128 H   0  0  0  0  0  0
  -30.1394  -19.7950   19.3644 H   0  0  0  0  0  0
  -26.8751  -16.8522   23.1216 H   0  0  0  0  0  0
  -27.9651  -15.3832   23.2681 H   0  0  0  0  0  0
  -29.0750  -16.3703   25.2375 H   0  0  0  0  0  0
  -27.8957  -17.7446   25.1940 H   0  0  0  0  0  0
  -27.8489  -22.0513   18.2483 H   0  0  0  0  0  0
  -26.9888  -22.1843   19.7659 H   0  0  0  0  0  0
  -26.5284  -24.1920   18.7435 H   0  0  0  0  0  0
  -28.1663  -24.4684   18.1707 H   0  0  0  0  0  0
  -29.9272  -22.3533   19.2688 H   0  0  0  0  0  0
  -30.0384  -16.8920   23.1032 H   0  0  0  0  0  0
  -29.2705  -23.7483   21.7865 H   0  0  0  0  0  0
  -27.0971  -20.9455   24.1583 H   0  0  0  0  0  0
  -28.2402  -19.8918   24.9572 H   0  0  0  0  0  0
  -26.7856  -19.2359   24.1305 H   0  0  0  0  0  0
  -30.5710  -24.8023   19.2460 H   0  0  0  0  0  0
  -31.4116  -23.9415   20.5407 H   0  0  0  0  0  0
  -30.6720  -25.5052   20.8529 H   0  0  0  0  0  0
  -26.7785  -23.6004   21.6770 H   0  0  0  0  0  0
  -25.9702  -25.0533   21.1942 H   0  0  0  0  0  0
  -27.2768  -25.1384   22.3573 H   0  0  0  0  0  0
  -31.3606  -17.3350   20.8671 H   0  0  0  0  0  0
  -30.3918  -17.3690   19.4323 H   0  0  0  0  0  0
  -28.9258  -15.6822   21.0234 H   0  0  0  0  0  0
  1 25  1  0  0  0
  1 30  2  0  0  0
  1 89  1  0  0  0
  2  3  1  0  0  0
  2 25  1  0  0  0
  2 90  1  0  0  0
  2 91  1  0  0  0
  3  4  1  0  0  0
  3 92  1  0  0  0
  3 93  1  0  0  0
  4  5  1  0  0  0
  4 94  1  0  0  0
  4 95  1  0  0  0
  5  6  1  0  0  0
  5 26  1  0  0  0
  5 96  1  0  0  0
  6 25  1  0  0  0
  6 97  1  0  0  0
  6 98  1  0  0  0
  7  8  2  0  0  0
  7 26  1  0  0  0
  7 29  1  0  0  0
  8  9  1  0  0  0
  8 22  1  0  0  0
  9 10  1  0  0  0
  9 27  2  0  0  0
 10 11  2  0  0  0
 10 15  1  0  0  0
 11 12  1  0  0  0
 11 99  1  0  0  0
 12 13  2  0  0  0
 12100  1  0  0  0
 13 14  1  0  0  0
 13 31  1  0  0  0
 14 15  2  0  0  0
 14101  1  0  0  0
 15102  1  0  0  0
 16 17  2  0  0  0
 16 21  1  0  0  0
 16 31  1  0  0  0
 17 18  1  0  0  0
 17103  1  0  0  0
 18 19  2  0  0  0
 18104  1  0  0  0
 19 20  1  0  0  0
 19 24  1  0  0  0
 20 21  2  0  0  0
 20105  1  0  0  0
 21 23  1  0  0  0
 22 28  1  0  0  0
 22 32  2  0  0  0
 26 27  1  0  0  0
 28106  1  0  0  0
 28107  1  0  0  0
 29108  1  0  0  0
 29109  1  0  0  0
 33 34  1  0  0  0
 33 66  1  0  0  0
 33 70  2  0  0  0
 34 36  1  0  0  0
 34 59  1  0  0  0
 34110  1  0  0  0
 35 44  2  0  0  0
 35 45  1  0  0  0
 35 68  1  0  0  0
 36 56  1  0  0  0
 36111  1  0  0  0
 37 39  1  0  0  0
 37 47  1  0  0  0
 37 66  1  0  0  0
 37112  1  0  0  0
 38 43  2  0  0  0
 38 46  1  0  0  0
 38 47  1  0  0  0
 39 64  1  0  0  0
 39 67  2  0  0  0
 40 52  1  0  0  0
 40 53  2  0  0  0
 40 58  1  0  0  0
 41113  1  0  0  0
 41114  1  0  0  0
 41115  1  0  0  0
 41 48  1  0  0  0
 42 43  1  0  0  0
 42 66  1  0  0  0
 42116  1  0  0  0
 42117  1  0  0  0
 43 44  1  0  0  0
 44118  1  0  0  0
 45 46  2  0  0  0
 45119  1  0  0  0
 46120  1  0  0  0
 47121  1  0  0  0
 47122  1  0  0  0
 48 56  1  0  0  0
 48 65  1  0  0  0
 48123  1  0  0  0
 49 50  1  0  0  0
 49 53  1  0  0  0
 49 64  1  0  0  0
 49124  1  0  0  0
 50 51  1  0  0  0
 50125  1  0  0  0
 50126  1  0  0  0
 51 52  1  0  0  0
 51127  1  0  0  0
 51128  1  0  0  0
 52129  1  0  0  0
 52130  1  0  0  0
 53 54  1  0  0  0
 54 55  2  0  0  0
 54131  1  0  0  0
 55 57  1  0  0  0
 55132  1  0  0  0
 56 69  2  0  0  0
 57 58  2  0  0  0
 57133  1  0  0  0
 58134  1  0  0  0
 59 60  1  0  0  0
 59 61  1  0  0  0
 59 62  1  0  0  0
 60135  1  0  0  0
 60136  1  0  0  0
 60137  1  0  0  0
 61138  1  0  0  0
 61139  1  0  0  0
 61140  1  0  0  0
 62141  1  0  0  0
 62142  1  0  0  0
 62143  1  0  0  0
 63 65  1  0  0  0
 63144  1  0  0  0
 63145  1  0  0  0
 63146  1  0  0  0
 64147  1  0  0  0
 65148  1  0  0  0
 68 84  1  0  0  0
 71 73  2  0  0  0
 71 75  1  0  0  0
 71149  1  0  0  0
 72 73  1  0  0  0
 72 76  2  0  0  0
 72150  1  0  0  0
 73 81  1  0  0  0
 74 75  2  0  0  0
 74 76  1  0  0  0
 74 82  1  0  0  0
 75 85  1  0  0  0
 76 88  1  0  0  0
 77 78  1  0  0  0
 77 82  1  0  0  0
 77151  1  0  0  0
 77152  1  0  0  0
 78 82  1  0  0  0
 78153  1  0  0  0
 78154  1  0  0  0
 79 80  1  0  0  0
 79 81  1  0  0  0
 79155  1  0  0  0
 79156  1  0  0  0
 80 84  1  0  0  0
 80157  1  0  0  0
 80158  1  0  0  0
 81 83  1  0  0  0
 81159  1  0  0  0
 82160  1  0  0  0
 83 84  1  0  0  0
 83 86  1  0  0  0
 83161  1  0  0  0
 84 87  1  0  0  0
 85162  1  0  0  0
 85163  1  0  0  0
 85164  1  0  0  0
 86165  1  0  0  0
 86166  1  0  0  0
 86167  1  0  0  0
 87168  1  0  0  0
 87169  1  0  0  0
 87170  1  0  0  0
 88 89  1  0  0  0
 88171  1  0  0  0
 88172  1  0  0  0
 89173  1  0  0  0
M  ISO  4   1 100  68 101  84 101  89 100
M  END
> <chiral flag>
0

> <version>
0

> <s_m_source_file>
/data/baiqing/PycharmProjects/Reinvent-master-3.2/result/LINK_invent/BTK/process_docking_weight1_custom_sum_contain_oxygen_bond_distance_aromatic_linkinvent_7_9_3/rearranged_h_0169.sdf

> <i_m_source_file_index>
8

> <r_mmod_Potential_Energy-OPLS-2005>
222.937271118164

> <r_mmod_Stretch_Energy-OPLS-2005>
124.754928588867

> <r_mmod_Bend_Energy-OPLS-2005>
212.6044921875

> <r_mmod_Torsional_Energy-OPLS-2005>
295.625030517578

> <r_mmod_Improper_Torsional_Energy-OPLS-2005>
5.73241376876831

> <r_mmod_Van_der_Waal_Energy-OPLS-2005>
155.138610839844

> <r_mmod_Electrostatic_Energy-OPLS-2005>
-456.302581787109

> <r_mmod_Solvation_Energy-OPLS-2005>
-191.010116577148

> <b_mmod_Minimization_Converged-OPLS-2005>
0

> <r_mmod_RMS_Derivative-OPLS-2005>
3.65581345558167

$$$$
8
                    3D
 Structure written by MMmdl.
171181  0  0  1  0            999 V2000
  -30.5133  -15.1429   20.3842 C   0  0  0  0  0  0
  -30.4287  -12.7270   19.5127 C   0  0  0  0  0  0
  -29.5247  -12.5582   18.2698 C   0  0  0  0  0  0
  -28.0684  -12.3068   18.6959 C   0  0  0  0  0  0
  -27.6130  -13.2698   19.8229 C   0  0  2  0  0  0
  -28.6509  -13.4125   20.9554 C   0  0  0  0  0  0
  -25.2412  -13.8256   20.5744 C   0  0  0  0  0  0
  -24.1749  -13.0447   20.9228 C   0  0  0  0  0  0
  -24.6393  -11.6937   20.8743 C   0  0  0  0  0  0
  -23.9085  -10.4297   21.0396 C   0  0  0  0  0  0
  -24.3632   -9.4215   21.9176 C   0  0  0  0  0  0
  -23.6306   -8.2250   22.0754 C   0  0  0  0  0  0
  -22.4287   -8.0287   21.3542 C   0  0  0  0  0  0
  -21.9919   -9.0258   20.4642 C   0  0  0  0  0  0
  -22.7251  -10.2133   20.3050 C   0  0  0  0  0  0
  -21.6861   -6.0739   22.5275 C   0  0  0  0  0  0
  -21.4016   -6.5635   23.8209 C   0  0  0  0  0  0
  -21.3663   -5.6788   24.9172 C   0  0  0  0  0  0
  -21.6051   -4.3052   24.7222 C   0  0  0  0  0  0
  -21.8819   -3.8145   23.4343 C   0  0  0  0  0  0
  -21.9192   -4.6963   22.3399 C   0  0  0  0  0  0
  -22.7772  -13.5201   21.1884 C   0  0  0  0  0  0
  -22.1662   -4.2149   21.0977 F   0  0  0  0  0  0
  -21.5635   -3.4539   25.7733 F   0  0  0  0  0  0
  -29.8943  -13.8742   20.3249 N   0  0  0  0  0  0
  -26.2825  -12.9514   20.3227 N   0  0  0  0  0  0
  -25.9331  -11.6621   20.5712 N   0  0  0  0  0  0
  -22.0426  -12.8187   22.0441 N   0  0  0  0  0  0
  -25.4101  -15.1992   20.4220 N   0  0  0  0  0  0
  -31.7381  -15.0972   20.1991 O   0  0  0  0  0  0
  -21.6653   -6.8884   21.4236 O   0  0  0  0  0  0
  -22.3447  -14.5502   20.6720 O   0  0  0  0  0  0
  -24.6559  -31.8305   23.1755 C   0  0  0  0  0  0
  -25.9274  -32.4623   23.8195 C   0  0  1  0  0  0
  -27.2194  -27.0036   20.1748 C   0  0  0  0  0  0
  -25.5971  -33.8434   24.2108 N   0  0  0  0  0  0
  -23.4658  -30.4437   21.5246 C   0  0  2  0  0  0
  -24.9166  -28.8403   20.1164 C   0  0  0  0  0  0
  -22.7627  -29.4472   22.4820 C   0  0  0  0  0  0
  -18.0316  -28.1395   22.8466 C   0  0  0  0  0  0
  -24.1496  -36.7225   23.2644 C   0  0  0  0  0  0
  -26.0304  -30.6624   21.3930 C   0  0  0  0  0  0
  -26.0994  -29.2584   20.7388 C   0  0  0  0  0  0
  -27.2493  -28.3611   20.7405 C   0  0  0  0  0  0
  -26.0060  -26.7137   19.5150 C   0  0  0  0  0  0
  -24.8901  -27.5858   19.4861 C   0  0  0  0  0  0
  -23.7003  -29.7601   20.1501 C   0  0  0  0  0  0
  -25.4136  -36.2989   24.0302 C   0  0  1  0  0  0
  -20.5935  -28.3735   23.1211 C   0  0  2  0  0  0
  -20.6794  -26.9425   22.5405 C   0  0  0  0  0  0
  -19.5770  -26.6374   21.5214 C   0  0  0  0  0  0
  -18.1952  -26.7931   22.1619 C   0  0  0  0  0  0
  -19.1573  -28.8886   23.2827 C   0  0  0  0  0  0
  -18.9486  -30.1480   23.8857 C   0  0  0  0  0  0
  -17.6480  -30.6592   24.0552 C   0  0  0  0  0  0
  -25.9094  -34.9367   23.5025 C   0  0  0  0  0  0
  -16.5373  -29.9077   23.6337 C   0  0  0  0  0  0
  -16.7297  -28.6496   23.0360 C   0  0  0  0  0  0
  -26.4547  -31.6538   25.0693 C   0  0  0  0  0  0
  -25.3694  -31.3770   26.1366 C   0  0  0  0  0  0
  -27.0431  -30.2912   24.6372 C   0  0  0  0  0  0
  -27.6053  -32.4325   25.7497 C   0  0  0  0  0  0
  -27.5577  -37.1768   24.8462 C   0  0  0  0  0  0
  -21.4307  -29.3039   22.3572 N   0  0  0  0  0  0
  -26.4287  -37.3718   23.9405 N   0  0  0  0  0  0
  -24.7382  -31.0037   22.0852 N   0  0  0  0  0  0
  -23.4213  -28.8041   23.3036 O   0  0  0  0  0  0
  -28.2666  -25.9693   20.2011 O   0  0  0  0  0  0
  -26.5700  -34.8889   22.4616 O   0  0  0  0  0  0
  -23.5648  -32.1244   23.6897 O   0  0  0  0  0  0
  -29.6808  -21.6544   19.7547 C   0  0  0  0  0  0
  -29.2968  -23.1902   19.9297 C   0  0  0  0  0  0
  -30.6800  -21.7931   18.7944 C   0  0  0  0  0  0
  -30.5034  -23.8185   19.6976 C   0  0  0  0  0  0
  -31.3184  -21.1009   16.3236 C   0  0  0  0  0  0
  -30.4079  -20.0253   16.8474 C   0  0  0  0  0  0
  -29.8886  -19.1434   21.4500 C   0  0  0  0  0  0
  -28.6186  -18.7916   19.4521 C   0  0  0  0  0  0
  -30.4962  -17.6044   21.3095 C   0  0  0  0  0  0
  -29.1989  -17.2304   19.3599 C   0  0  0  0  0  0
  -29.4889  -19.9437   20.1372 C   0  0  0  0  0  0
  -31.2745  -20.8092   17.8094 C   0  0  0  0  0  0
  -30.9619  -25.2118   20.0397 C   0  0  0  0  0  0
  -32.4828  -24.3779   17.1673 C   0  0  0  0  0  0
  -28.0893  -24.3562   20.2975 C   0  0  0  0  0  0
  -32.6012  -23.3889   18.3380 C   0  0  0  0  0  0
  -31.3034  -23.0148   18.9235 N   0  0  0  0  0  0
  -29.8491  -16.4540   20.5176 N   0  0  0  0  0  0
  -31.4568  -12.8966   19.1904 H   0  0  0  0  0  0
  -30.4561  -11.8087   20.1023 H   0  0  0  0  0  0
  -29.8816  -11.7380   17.6459 H   0  0  0  0  0  0
  -29.5780  -13.4595   17.6565 H   0  0  0  0  0  0
  -28.0036  -11.2751   19.0446 H   0  0  0  0  0  0
  -27.4019  -12.3816   17.8360 H   0  0  0  0  0  0
  -27.5379  -14.2458   19.3428 H   0  0  0  0  0  0
  -28.7933  -12.4726   21.4910 H   0  0  0  0  0  0
  -28.3159  -14.1462   21.6899 H   0  0  0  0  0  0
  -25.2775   -9.5699   22.4754 H   0  0  0  0  0  0
  -24.0016   -7.4644   22.7475 H   0  0  0  0  0  0
  -21.0855   -8.8769   19.8942 H   0  0  0  0  0  0
  -22.3704  -10.9671   19.6163 H   0  0  0  0  0  0
  -21.2005   -7.6142   23.9710 H   0  0  0  0  0  0
  -21.1491   -6.0521   25.9073 H   0  0  0  0  0  0
  -22.0596   -2.7607   23.2842 H   0  0  0  0  0  0
  -22.4056  -11.9859   22.4838 H   0  0  0  0  0  0
  -21.1030  -13.1202   22.2623 H   0  0  0  0  0  0
  -24.6496  -15.8581   20.5506 H   0  0  0  0  0  0
  -26.2760  -15.6423   20.1425 H   0  0  0  0  0  0
  -26.7342  -32.5180   23.0916 H   0  0  0  0  0  0
  -25.0063  -33.9521   25.0220 H   0  0  0  0  0  0
  -22.7749  -31.2728   21.3579 H   0  0  0  0  0  0
  -23.3768  -35.9544   23.3274 H   0  0  0  0  0  0
  -24.3579  -36.8901   22.2064 H   0  0  0  0  0  0
  -23.7244  -37.6401   23.6719 H   0  0  0  0  0  0
  -26.2006  -31.4069   20.6138 H   0  0  0  0  0  0
  -26.8947  -30.7175   22.0433 H   0  0  0  0  0  0
  -28.1526  -28.6830   21.2389 H   0  0  0  0  0  0
  -25.8946  -25.7582   19.0237 H   0  0  0  0  0  0
  -23.9897  -27.2605   18.9834 H   0  0  0  0  0  0
  -23.8489  -30.5279   19.3901 H   0  0  0  0  0  0
  -22.8115  -29.2093   19.8369 H   0  0  0  0  0  0
  -25.1331  -36.1791   25.0794 H   0  0  0  0  0  0
  -21.0019  -28.3331   24.1335 H   0  0  0  0  0  0
  -20.5678  -26.2349   23.3636 H   0  0  0  0  0  0
  -21.6660  -26.7409   22.1211 H   0  0  0  0  0  0
  -19.6931  -25.6274   21.1267 H   0  0  0  0  0  0
  -19.6711  -27.3162   20.6727 H   0  0  0  0  0  0
  -17.4221  -26.6677   21.4019 H   0  0  0  0  0  0
  -18.0345  -26.0082   22.9023 H   0  0  0  0  0  0
  -19.7964  -30.7307   24.2206 H   0  0  0  0  0  0
  -17.5033  -31.6268   24.5157 H   0  0  0  0  0  0
  -15.5370  -30.2966   23.7685 H   0  0  0  0  0  0
  -15.8701  -28.0801   22.7100 H   0  0  0  0  0  0
  -24.5888  -30.7105   25.7679 H   0  0  0  0  0  0
  -24.8871  -32.2964   26.4688 H   0  0  0  0  0  0
  -25.7943  -30.9005   27.0209 H   0  0  0  0  0  0
  -26.3076  -29.6603   24.1367 H   0  0  0  0  0  0
  -27.3977  -29.7256   25.4998 H   0  0  0  0  0  0
  -27.9010  -30.4109   23.9756 H   0  0  0  0  0  0
  -27.2633  -33.3662   26.1977 H   0  0  0  0  0  0
  -28.3923  -32.6826   25.0368 H   0  0  0  0  0  0
  -28.0658  -31.8512   26.5497 H   0  0  0  0  0  0
  -28.2568  -38.0088   24.7520 H   0  0  0  0  0  0
  -28.1100  -36.2614   24.6275 H   0  0  0  0  0  0
  -27.2294  -37.1392   25.8864 H   0  0  0  0  0  0
  -20.9550  -29.8731   21.6710 H   0  0  0  0  0  0
  -26.0137  -38.2775   24.1415 H   0  0  0  0  0  0
  -30.8354  -22.0051   15.9605 H   0  0  0  0  0  0
  -32.2043  -20.7910   15.7736 H   0  0  0  0  0  0
  -30.6817  -18.9906   16.6500 H   0  0  0  0  0  0
  -29.3439  -20.2448   16.8043 H   0  0  0  0  0  0
  -30.6351  -19.7362   21.9808 H   0  0  0  0  0  0
  -29.0248  -19.1250   22.1158 H   0  0  0  0  0  0
  -27.6554  -18.7658   19.9630 H   0  0  0  0  0  0
  -28.3638  -19.1057   18.4430 H   0  0  0  0  0  0
  -31.5065  -17.7066   20.9097 H   0  0  0  0  0  0
  -30.6464  -17.2254   22.3218 H   0  0  0  0  0  0
  -29.9370  -17.2192   18.5564 H   0  0  0  0  0  0
  -28.3857  -16.6048   18.9904 H   0  0  0  0  0  0
  -30.4227  -19.6421   19.6841 H   0  0  0  0  0  0
  -32.1344  -20.2947   18.2359 H   0  0  0  0  0  0
  -30.5537  -25.5345   20.9971 H   0  0  0  0  0  0
  -30.6575  -25.9281   19.2763 H   0  0  0  0  0  0
  -32.0416  -25.2870   20.1531 H   0  0  0  0  0  0
  -33.4612  -24.5546   16.7199 H   0  0  0  0  0  0
  -32.0946  -25.3437   17.4859 H   0  0  0  0  0  0
  -31.8285  -24.0006   16.3831 H   0  0  0  0  0  0
  -27.7665  -24.1475   21.3172 H   0  0  0  0  0  0
  -27.2377  -24.0883   19.6737 H   0  0  0  0  0  0
  -33.2418  -23.7993   19.1187 H   0  0  0  0  0  0
  -33.1353  -22.5011   18.0025 H   0  0  0  0  0  0
  1 25  1  0  0  0
  1 30  2  0  0  0
  1 88  1  0  0  0
  2  3  1  0  0  0
  2 25  1  0  0  0
  2 89  1  0  0  0
  2 90  1  0  0  0
  3  4  1  0  0  0
  3 91  1  0  0  0
  3 92  1  0  0  0
  4  5  1  0  0  0
  4 93  1  0  0  0
  4 94  1  0  0  0
  5  6  1  0  0  0
  5 26  1  0  0  0
  5 95  1  0  0  0
  6 25  1  0  0  0
  6 96  1  0  0  0
  6 97  1  0  0  0
  7  8  2  0  0  0
  7 26  1  0  0  0
  7 29  1  0  0  0
  8  9  1  0  0  0
  8 22  1  0  0  0
  9 10  1  0  0  0
  9 27  2  0  0  0
 10 11  2  0  0  0
 10 15  1  0  0  0
 11 12  1  0  0  0
 11 98  1  0  0  0
 12 13  2  0  0  0
 12 99  1  0  0  0
 13 14  1  0  0  0
 13 31  1  0  0  0
 14 15  2  0  0  0
 14100  1  0  0  0
 15101  1  0  0  0
 16 17  2  0  0  0
 16 21  1  0  0  0
 16 31  1  0  0  0
 17 18  1  0  0  0
 17102  1  0  0  0
 18 19  2  0  0  0
 18103  1  0  0  0
 19 20  1  0  0  0
 19 24  1  0  0  0
 20 21  2  0  0  0
 20104  1  0  0  0
 21 23  1  0  0  0
 22 28  1  0  0  0
 22 32  2  0  0  0
 26 27  1  0  0  0
 28105  1  0  0  0
 28106  1  0  0  0
 29107  1  0  0  0
 29108  1  0  0  0
 33 34  1  0  0  0
 33 66  1  0  0  0
 33 70  2  0  0  0
 34 36  1  0  0  0
 34 59  1  0  0  0
 34109  1  0  0  0
 35 44  2  0  0  0
 35 45  1  0  0  0
 35 68  1  0  0  0
 36 56  1  0  0  0
 36110  1  0  0  0
 37 39  1  0  0  0
 37 47  1  0  0  0
 37 66  1  0  0  0
 37111  1  0  0  0
 38 43  2  0  0  0
 38 46  1  0  0  0
 38 47  1  0  0  0
 39 64  1  0  0  0
 39 67  2  0  0  0
 40 52  1  0  0  0
 40 53  2  0  0  0
 40 58  1  0  0  0
 41112  1  0  0  0
 41113  1  0  0  0
 41114  1  0  0  0
 41 48  1  0  0  0
 42 43  1  0  0  0
 42 66  1  0  0  0
 42115  1  0  0  0
 42116  1  0  0  0
 43 44  1  0  0  0
 44117  1  0  0  0
 45 46  2  0  0  0
 45118  1  0  0  0
 46119  1  0  0  0
 47120  1  0  0  0
 47121  1  0  0  0
 48 56  1  0  0  0
 48 65  1  0  0  0
 48122  1  0  0  0
 49 50  1  0  0  0
 49 53  1  0  0  0
 49 64  1  0  0  0
 49123  1  0  0  0
 50 51  1  0  0  0
 50124  1  0  0  0
 50125  1  0  0  0
 51 52  1  0  0  0
 51126  1  0  0  0
 51127  1  0  0  0
 52128  1  0  0  0
 52129  1  0  0  0
 53 54  1  0  0  0
 54 55  2  0  0  0
 54130  1  0  0  0
 55 57  1  0  0  0
 55131  1  0  0  0
 56 69  2  0  0  0
 57 58  2  0  0  0
 57132  1  0  0  0
 58133  1  0  0  0
 59 60  1  0  0  0
 59 61  1  0  0  0
 59 62  1  0  0  0
 60134  1  0  0  0
 60135  1  0  0  0
 60136  1  0  0  0
 61137  1  0  0  0
 61138  1  0  0  0
 61139  1  0  0  0
 62140  1  0  0  0
 62141  1  0  0  0
 62142  1  0  0  0
 63 65  1  0  0  0
 63143  1  0  0  0
 63144  1  0  0  0
 63145  1  0  0  0
 64146  1  0  0  0
 65147  1  0  0  0
 68 85  1  0  0  0
 71 72  1  0  0  0
 71 73  2  0  0  0
 71 81  1  0  0  0
 72 74  2  0  0  0
 72 85  1  0  0  0
 73 87  1  0  0  0
 73 82  1  0  0  0
 74 83  1  0  0  0
 74 87  1  0  0  0
 75 76  1  0  0  0
 75 82  1  0  0  0
 75148  1  0  0  0
 75149  1  0  0  0
 76 82  1  0  0  0
 76150  1  0  0  0
 76151  1  0  0  0
 77 79  1  0  0  0
 77 81  1  0  0  0
 77152  1  0  0  0
 77153  1  0  0  0
 78 80  1  0  0  0
 78 81  1  0  0  0
 78154  1  0  0  0
 78155  1  0  0  0
 79 88  1  0  0  0
 79156  1  0  0  0
 79157  1  0  0  0
 80 88  1  0  0  0
 80158  1  0  0  0
 80159  1  0  0  0
 81160  1  0  0  0
 82161  1  0  0  0
 83162  1  0  0  0
 83163  1  0  0  0
 83164  1  0  0  0
 84 86  1  0  0  0
 84165  1  0  0  0
 84166  1  0  0  0
 84167  1  0  0  0
 85168  1  0  0  0
 85169  1  0  0  0
 86 87  1  0  0  0
 86170  1  0  0  0
 86171  1  0  0  0
M  ISO  4   1 100  68 101  85 101  88 100
M  END
> <chiral flag>
0

> <version>
0

> <s_m_source_file>
/data/baiqing/PycharmProjects/Reinvent-master-3.2/result/LINK_invent/BTK/process_docking_weight1_custom_sum_contain_oxygen_bond_distance_aromatic_linkinvent_7_9_3/rearranged_h_0169.sdf

> <i_m_source_file_index>
9

> <r_mmod_Potential_Energy-OPLS-2005>
1425.74072265625

> <r_mmod_Stretch_Energy-OPLS-2005>
462.980224609375

> <r_mmod_Bend_Energy-OPLS-2005>
536.949279785156

> <r_mmod_Torsional_Energy-OPLS-2005>
460.464019775391

> <r_mmod_Improper_Torsional_Energy-OPLS-2005>
7.71859931945801

> <r_mmod_Van_der_Waal_Energy-OPLS-2005>
128.076873779297

> <r_mmod_Electrostatic_Energy-OPLS-2005>
-308.021209716797

> <r_mmod_Solvation_Energy-OPLS-2005>
-198.907485961914

> <b_mmod_Minimization_Converged-OPLS-2005>
0

> <r_mmod_RMS_Derivative-OPLS-2005>
1.15089321136475

$$$$
9
                    3D
 Structure written by MMmdl.
175185  0  0  1  0            999 V2000
  -30.6731  -14.5743   20.4937 C   0  0  0  0  0  0
  -30.4242  -12.3490   19.4457 C   0  0  0  0  0  0
  -29.5013  -12.4972   18.2175 C   0  0  0  0  0  0
  -28.0225  -12.3513   18.6287 C   0  0  0  0  0  0
  -27.6534  -13.2158   19.8645 C   0  0  2  0  0  0
  -28.6995  -13.0633   20.9913 C   0  0  0  0  0  0
  -25.2565  -13.8165   20.5692 C   0  0  0  0  0  0
  -24.1829  -13.0434   20.9189 C   0  0  0  0  0  0
  -24.6394  -11.6907   20.8734 C   0  0  0  0  0  0
  -23.9059  -10.4289   21.0393 C   0  0  0  0  0  0
  -24.3611   -9.4207   21.9172 C   0  0  0  0  0  0
  -23.6293   -8.2242   22.0747 C   0  0  0  0  0  0
  -22.4274   -8.0275   21.3541 C   0  0  0  0  0  0
  -21.9905   -9.0246   20.4643 C   0  0  0  0  0  0
  -22.7230  -10.2126   20.3046 C   0  0  0  0  0  0
  -21.6850   -6.0730   22.5276 C   0  0  0  0  0  0
  -21.4009   -6.5636   23.8210 C   0  0  0  0  0  0
  -21.3662   -5.6790   24.9174 C   0  0  0  0  0  0
  -21.6048   -4.3054   24.7222 C   0  0  0  0  0  0
  -21.8820   -3.8141   23.4344 C   0  0  0  0  0  0
  -21.9193   -4.6958   22.3399 C   0  0  0  0  0  0
  -22.7856  -13.5234   21.1848 C   0  0  0  0  0  0
  -22.1664   -4.2144   21.0978 F   0  0  0  0  0  0
  -21.5636   -3.4539   25.7736 F   0  0  0  0  0  0
  -30.0154  -13.3775   20.4192 N   0  0  0  0  0  0
  -26.2994  -12.9348   20.3335 N   0  0  0  0  0  0
  -25.9322  -11.6501   20.5753 N   0  0  0  0  0  0
  -22.0495  -12.8231   22.0403 N   0  0  0  0  0  0
  -25.4286  -15.1884   20.4123 N   0  0  0  0  0  0
  -31.8531  -14.6760   20.1438 O   0  0  0  0  0  0
  -21.6640   -6.8870   21.4238 O   0  0  0  0  0  0
  -22.3543  -14.5538   20.6688 O   0  0  0  0  0  0
  -24.6209  -31.8632   23.2058 C   0  0  0  0  0  0
  -25.9076  -32.4802   23.8377 C   0  0  1  0  0  0
  -27.2286  -27.3771   20.1125 C   0  0  0  0  0  0
  -25.5911  -33.8600   24.2301 N   0  0  0  0  0  0
  -23.4134  -30.4863   21.5459 C   0  0  2  0  0  0
  -24.8643  -28.9511   20.1067 C   0  0  0  0  0  0
  -22.7456  -29.4632   22.4946 C   0  0  0  0  0  0
  -18.0280  -28.1377   22.8486 C   0  0  0  0  0  0
  -24.1489  -36.7304   23.2639 C   0  0  0  0  0  0
  -25.9491  -30.8128   21.3693 C   0  0  0  0  0  0
  -26.0288  -29.4449   20.7110 C   0  0  0  0  0  0
  -27.2188  -28.6668   20.7096 C   0  0  0  0  0  0
  -26.0528  -26.9229   19.4806 C   0  0  0  0  0  0
  -24.8745  -27.6924   19.4832 C   0  0  0  0  0  0
  -23.6265  -29.8207   20.1601 C   0  0  0  0  0  0
  -25.4110  -36.3098   24.0336 C   0  0  1  0  0  0
  -20.5877  -28.3676   23.1294 C   0  0  2  0  0  0
  -20.6768  -26.9402   22.5414 C   0  0  0  0  0  0
  -19.5749  -26.6378   21.5209 C   0  0  0  0  0  0
  -18.1926  -26.7923   22.1617 C   0  0  0  0  0  0
  -19.1531  -28.8843   23.2887 C   0  0  0  0  0  0
  -18.9458  -30.1445   23.8904 C   0  0  0  0  0  0
  -17.6460  -30.6584   24.0554 C   0  0  0  0  0  0
  -25.9044  -34.9467   23.5118 C   0  0  0  0  0  0
  -16.5350  -29.9081   23.6327 C   0  0  0  0  0  0
  -16.7267  -28.6493   23.0355 C   0  0  0  0  0  0
  -26.4481  -31.6599   25.0726 C   0  0  0  0  0  0
  -25.3732  -31.3726   26.1465 C   0  0  0  0  0  0
  -27.0317  -30.3029   24.6147 C   0  0  0  0  0  0
  -27.6057  -32.4316   25.7492 C   0  0  0  0  0  0
  -27.5584  -37.1800   24.8459 C   0  0  0  0  0  0
  -21.4170  -29.3035   22.3693 N   0  0  0  0  0  0
  -26.4289  -37.3790   23.9415 N   0  0  0  0  0  0
  -24.6792  -31.0692   22.0977 N   0  0  0  0  0  0
  -23.4201  -28.8172   23.3009 O   0  0  0  0  0  0
  -28.3069  -26.5036   20.1795 O   0  0  0  0  0  0
  -26.5608  -34.8926   22.4680 O   0  0  0  0  0  0
  -23.5384  -32.1406   23.7416 O   0  0  0  0  0  0
  -29.0031  -23.3943   19.7808 C   0  0  0  0  0  0
  -28.9534  -23.2861   22.1829 C   0  0  0  0  0  0
  -29.5193  -22.0618   19.7282 C   0  0  0  0  0  0
  -28.7336  -24.0405   21.0085 C   0  0  0  0  0  0
  -29.4532  -21.9565   22.1672 C   0  0  0  0  0  0
  -29.7534  -21.3186   20.9274 C   0  0  0  0  0  0
  -31.2584  -21.2903   17.9145 C   0  0  0  0  0  0
  -30.3624  -22.2946   17.2331 C   0  0  0  0  0  0
  -29.7787  -17.8047   21.8821 C   0  0  0  0  0  0
  -30.3988  -17.9893   19.4935 C   0  0  0  0  0  0
  -29.2683  -16.3464   21.6332 C   0  0  0  0  0  0
  -29.8245  -16.5638   19.2666 C   0  0  0  0  0  0
  -29.8301  -21.4631   18.3832 C   0  0  0  0  0  0
  -29.7177  -18.7553   20.6508 C   0  0  0  0  0  0
  -28.2679  -20.9580   24.1699 C   0  0  0  0  0  0
  -30.5540  -22.0211   24.4711 C   0  0  0  0  0  0
  -28.0732  -25.4423   21.1549 C   0  0  0  0  0  0
  -29.6295  -21.2465   23.5165 C   0  0  0  0  0  0
  -29.8796  -15.6927   20.4599 N   0  0  0  0  0  0
  -30.3972  -20.0468   20.9111 N   0  0  0  0  0  0
  -31.4696  -12.4439   19.1474 H   0  0  0  0  0  0
  -30.3288  -11.3536   19.8827 H   0  0  0  0  0  0
  -29.7552  -11.7511   17.4636 H   0  0  0  0  0  0
  -29.6594  -13.4704   17.7494 H   0  0  0  0  0  0
  -27.8477  -11.2985   18.8515 H   0  0  0  0  0  0
  -27.3708  -12.5953   17.7887 H   0  0  0  0  0  0
  -27.6732  -14.2530   19.5314 H   0  0  0  0  0  0
  -28.6967  -12.0448   21.3832 H   0  0  0  0  0  0
  -28.4610  -13.7114   21.8345 H   0  0  0  0  0  0
  -25.2754   -9.5692   22.4754 H   0  0  0  0  0  0
  -24.0004   -7.4633   22.7467 H   0  0  0  0  0  0
  -21.0831   -8.8756   19.8955 H   0  0  0  0  0  0
  -22.3676  -10.9661   19.6159 H   0  0  0  0  0  0
  -21.1994   -7.6143   23.9710 H   0  0  0  0  0  0
  -21.1492   -6.0521   25.9078 H   0  0  0  0  0  0
  -22.0599   -2.7605   23.2839 H   0  0  0  0  0  0
  -22.4107  -11.9891   22.4796 H   0  0  0  0  0  0
  -21.1118  -13.1261   22.2603 H   0  0  0  0  0  0
  -24.6650  -15.8456   20.5250 H   0  0  0  0  0  0
  -26.2886  -15.6266   20.1087 H   0  0  0  0  0  0
  -26.7147  -32.5499   23.1139 H   0  0  0  0  0  0
  -25.0062  -33.9754   25.0447 H   0  0  0  0  0  0
  -22.7046  -31.3048   21.4041 H   0  0  0  0  0  0
  -23.3757  -35.9631   23.3293 H   0  0  0  0  0  0
  -24.3589  -36.8927   22.2056 H   0  0  0  0  0  0
  -23.7234  -37.6503   23.6658 H   0  0  0  0  0  0
  -26.0732  -31.5799   20.6036 H   0  0  0  0  0  0
  -26.8323  -30.8621   21.9949 H   0  0  0  0  0  0
  -28.1107  -29.0325   21.1990 H   0  0  0  0  0  0
  -26.0406  -25.9480   19.0134 H   0  0  0  0  0  0
  -23.9817  -27.3067   19.0103 H   0  0  0  0  0  0
  -23.7359  -30.5964   19.4013 H   0  0  0  0  0  0
  -22.7507  -29.2415   19.8620 H   0  0  0  0  0  0
  -25.1287  -36.1955   25.0830 H   0  0  0  0  0  0
  -20.9971  -28.3241   24.1414 H   0  0  0  0  0  0
  -20.5654  -26.2283   23.3608 H   0  0  0  0  0  0
  -21.6637  -26.7427   22.1214 H   0  0  0  0  0  0
  -19.6908  -25.6288   21.1235 H   0  0  0  0  0  0
  -19.6692  -27.3186   20.6739 H   0  0  0  0  0  0
  -17.4198  -26.6671   21.4015 H   0  0  0  0  0  0
  -18.0325  -26.0060   22.9009 H   0  0  0  0  0  0
  -19.7939  -30.7248   24.2280 H   0  0  0  0  0  0
  -17.5022  -31.6270   24.5147 H   0  0  0  0  0  0
  -15.5351  -30.2984   23.7659 H   0  0  0  0  0  0
  -15.8663  -28.0812   22.7078 H   0  0  0  0  0  0
  -24.5903  -30.7075   25.7797 H   0  0  0  0  0  0
  -24.8926  -32.2889   26.4902 H   0  0  0  0  0  0
  -25.8070  -30.8899   27.0230 H   0  0  0  0  0  0
  -26.2874  -29.6791   24.1178 H   0  0  0  0  0  0
  -27.4039  -29.7273   25.4632 H   0  0  0  0  0  0
  -27.8735  -30.4330   23.9342 H   0  0  0  0  0  0
  -27.2680  -33.3609   26.2091 H   0  0  0  0  0  0
  -28.3859  -32.6882   25.0314 H   0  0  0  0  0  0
  -28.0733  -31.8423   26.5389 H   0  0  0  0  0  0
  -28.2587  -38.0112   24.7535 H   0  0  0  0  0  0
  -28.1094  -36.2647   24.6242 H   0  0  0  0  0  0
  -27.2312  -37.1397   25.8863 H   0  0  0  0  0  0
  -20.9336  -29.8772   21.6924 H   0  0  0  0  0  0
  -26.0176  -38.2864   24.1431 H   0  0  0  0  0  0
  -28.8062  -23.9310   18.8633 H   0  0  0  0  0  0
  -28.7106  -23.7395   23.1327 H   0  0  0  0  0  0
  -32.0508  -21.6752   18.5539 H   0  0  0  0  0  0
  -31.5031  -20.3883   17.3565 H   0  0  0  0  0  0
  -30.0239  -22.0481   16.2289 H   0  0  0  0  0  0
  -30.5928  -23.3447   17.4013 H   0  0  0  0  0  0
  -30.8092  -17.7434   22.2369 H   0  0  0  0  0  0
  -29.2052  -18.2334   22.7044 H   0  0  0  0  0  0
  -30.3042  -18.5580   18.5684 H   0  0  0  0  0  0
  -31.4696  -17.9042   19.6851 H   0  0  0  0  0  0
  -28.1878  -16.3590   21.4855 H   0  0  0  0  0  0
  -29.4461  -15.7503   22.5295 H   0  0  0  0  0  0
  -30.3444  -16.0968   18.4277 H   0  0  0  0  0  0
  -28.7819  -16.6408   18.9569 H   0  0  0  0  0  0
  -29.1260  -20.6685   18.1459 H   0  0  0  0  0  0
  -28.6739  -18.9436   20.3934 H   0  0  0  0  0  0
  -27.6389  -20.3589   23.5103 H   0  0  0  0  0  0
  -27.7270  -21.8759   24.4019 H   0  0  0  0  0  0
  -28.3866  -20.4019   25.1005 H   0  0  0  0  0  0
  -31.5308  -22.1897   24.0173 H   0  0  0  0  0  0
  -30.7135  -21.4630   25.3949 H   0  0  0  0  0  0
  -30.1435  -22.9916   24.7480 H   0  0  0  0  0  0
  -28.3849  -25.8515   22.1172 H   0  0  0  0  0  0
  -27.0067  -25.2414   21.2704 H   0  0  0  0  0  0
  -30.1089  -20.2820   23.3683 H   0  0  0  0  0  0
  -31.0645  -19.9584   21.6703 H   0  0  0  0  0  0
  1 25  1  0  0  0
  1 30  2  0  0  0
  1 89  1  0  0  0
  2  3  1  0  0  0
  2 25  1  0  0  0
  2 91  1  0  0  0
  2 92  1  0  0  0
  3  4  1  0  0  0
  3 93  1  0  0  0
  3 94  1  0  0  0
  4  5  1  0  0  0
  4 95  1  0  0  0
  4 96  1  0  0  0
  5  6  1  0  0  0
  5 26  1  0  0  0
  5 97  1  0  0  0
  6 25  1  0  0  0
  6 98  1  0  0  0
  6 99  1  0  0  0
  7  8  2  0  0  0
  7 26  1  0  0  0
  7 29  1  0  0  0
  8  9  1  0  0  0
  8 22  1  0  0  0
  9 10  1  0  0  0
  9 27  2  0  0  0
 10 11  2  0  0  0
 10 15  1  0  0  0
 11 12  1  0  0  0
 11100  1  0  0  0
 12 13  2  0  0  0
 12101  1  0  0  0
 13 14  1  0  0  0
 13 31  1  0  0  0
 14 15  2  0  0  0
 14102  1  0  0  0
 15103  1  0  0  0
 16 17  2  0  0  0
 16 21  1  0  0  0
 16 31  1  0  0  0
 17 18  1  0  0  0
 17104  1  0  0  0
 18 19  2  0  0  0
 18105  1  0  0  0
 19 20  1  0  0  0
 19 24  1  0  0  0
 20 21  2  0  0  0
 20106  1  0  0  0
 21 23  1  0  0  0
 22 28  1  0  0  0
 22 32  2  0  0  0
 26 27  1  0  0  0
 28107  1  0  0  0
 28108  1  0  0  0
 29109  1  0  0  0
 29110  1  0  0  0
 33 34  1  0  0  0
 33 66  1  0  0  0
 33 70  2  0  0  0
 34 36  1  0  0  0
 34 59  1  0  0  0
 34111  1  0  0  0
 35 44  2  0  0  0
 35 45  1  0  0  0
 35 68  1  0  0  0
 36 56  1  0  0  0
 36112  1  0  0  0
 37 39  1  0  0  0
 37 47  1  0  0  0
 37 66  1  0  0  0
 37113  1  0  0  0
 38 43  2  0  0  0
 38 46  1  0  0  0
 38 47  1  0  0  0
 39 64  1  0  0  0
 39 67  2  0  0  0
 40 52  1  0  0  0
 40 53  2  0  0  0
 40 58  1  0  0  0
 41114  1  0  0  0
 41115  1  0  0  0
 41116  1  0  0  0
 41 48  1  0  0  0
 42 43  1  0  0  0
 42 66  1  0  0  0
 42117  1  0  0  0
 42118  1  0  0  0
 43 44  1  0  0  0
 44119  1  0  0  0
 45 46  2  0  0  0
 45120  1  0  0  0
 46121  1  0  0  0
 47122  1  0  0  0
 47123  1  0  0  0
 48 56  1  0  0  0
 48 65  1  0  0  0
 48124  1  0  0  0
 49 50  1  0  0  0
 49 53  1  0  0  0
 49 64  1  0  0  0
 49125  1  0  0  0
 50 51  1  0  0  0
 50126  1  0  0  0
 50127  1  0  0  0
 51 52  1  0  0  0
 51128  1  0  0  0
 51129  1  0  0  0
 52130  1  0  0  0
 52131  1  0  0  0
 53 54  1  0  0  0
 54 55  2  0  0  0
 54132  1  0  0  0
 55 57  1  0  0  0
 55133  1  0  0  0
 56 69  2  0  0  0
 57 58  2  0  0  0
 57134  1  0  0  0
 58135  1  0  0  0
 59 60  1  0  0  0
 59 61  1  0  0  0
 59 62  1  0  0  0
 60136  1  0  0  0
 60137  1  0  0  0
 60138  1  0  0  0
 61139  1  0  0  0
 61140  1  0  0  0
 61141  1  0  0  0
 62142  1  0  0  0
 62143  1  0  0  0
 62144  1  0  0  0
 63 65  1  0  0  0
 63145  1  0  0  0
 63146  1  0  0  0
 63147  1  0  0  0
 64148  1  0  0  0
 65149  1  0  0  0
 68 87  1  0  0  0
 71 73  2  0  0  0
 71 74  1  0  0  0
 71150  1  0  0  0
 72 74  2  0  0  0
 72 75  1  0  0  0
 72151  1  0  0  0
 73 76  1  0  0  0
 73 83  1  0  0  0
 74 87  1  0  0  0
 75 76  2  0  0  0
 75 88  1  0  0  0
 76 90  1  0  0  0
 77 78  1  0  0  0
 77 83  1  0  0  0
 77152  1  0  0  0
 77153  1  0  0  0
 78 83  1  0  0  0
 78154  1  0  0  0
 78155  1  0  0  0
 79 81  1  0  0  0
 79 84  1  0  0  0
 79156  1  0  0  0
 79157  1  0  0  0
 80 82  1  0  0  0
 80 84  1  0  0  0
 80158  1  0  0  0
 80159  1  0  0  0
 81 89  1  0  0  0
 81160  1  0  0  0
 81161  1  0  0  0
 82 89  1  0  0  0
 82162  1  0  0  0
 82163  1  0  0  0
 83164  1  0  0  0
 84 90  1  0  0  0
 84165  1  0  0  0
 85166  1  0  0  0
 85167  1  0  0  0
 85168  1  0  0  0
 85 88  1  0  0  0
 86 88  1  0  0  0
 86169  1  0  0  0
 86170  1  0  0  0
 86171  1  0  0  0
 87172  1  0  0  0
 87173  1  0  0  0
 88174  1  0  0  0
 90175  1  0  0  0
M  ISO  4   1 100  68 101  87 101  89 100
M  END
> <chiral flag>
0

> <version>
0

> <s_m_source_file>
/data/baiqing/PycharmProjects/Reinvent-master-3.2/result/LINK_invent/BTK/process_docking_weight1_custom_sum_contain_oxygen_bond_distance_aromatic_linkinvent_7_9_3/rearranged_h_0169.sdf

> <i_m_source_file_index>
10

> <r_mmod_Potential_Energy-OPLS-2005>
289.982269287109

> <r_mmod_Stretch_Energy-OPLS-2005>
59.073673248291

> <r_mmod_Bend_Energy-OPLS-2005>
132.024459838867

> <r_mmod_Torsional_Energy-OPLS-2005>
412.878753662109

> <r_mmod_Improper_Torsional_Energy-OPLS-2005>
21.6309413909912

> <r_mmod_Van_der_Waal_Energy-OPLS-2005>
135.050933837891

> <r_mmod_Electrostatic_Energy-OPLS-2005>
-315.569641113281

> <r_mmod_Solvation_Energy-OPLS-2005>
-190.266006469727

> <b_mmod_Minimization_Converged-OPLS-2005>
0

> <r_mmod_RMS_Derivative-OPLS-2005>
1.09544360637665

$$$$
10
                    3D
 Structure written by MMmdl.
166175  0  0  1  0            999 V2000
  -30.6646  -14.5961   20.5034 C   0  0  0  0  0  0
  -30.4248  -12.3677   19.4481 C   0  0  0  0  0  0
  -29.5018  -12.5009   18.2180 C   0  0  0  0  0  0
  -28.0224  -12.3520   18.6270 C   0  0  0  0  0  0
  -27.6509  -13.2160   19.8625 C   0  0  2  0  0  0
  -28.6951  -13.0577   20.9882 C   0  0  0  0  0  0
  -25.2543  -13.8174   20.5682 C   0  0  0  0  0  0
  -24.1813  -13.0438   20.9187 C   0  0  0  0  0  0
  -24.6382  -11.6911   20.8739 C   0  0  0  0  0  0
  -23.9049  -10.4296   21.0405 C   0  0  0  0  0  0
  -24.3604   -9.4211   21.9181 C   0  0  0  0  0  0
  -23.6282   -8.2246   22.0753 C   0  0  0  0  0  0
  -22.4264   -8.0280   21.3543 C   0  0  0  0  0  0
  -21.9893   -9.0256   20.4648 C   0  0  0  0  0  0
  -22.7220  -10.2138   20.3054 C   0  0  0  0  0  0
  -21.6855   -6.0728   22.5274 C   0  0  0  0  0  0
  -21.4021   -6.5630   23.8206 C   0  0  0  0  0  0
  -21.3661   -5.6785   24.9168 C   0  0  0  0  0  0
  -21.6044   -4.3049   24.7220 C   0  0  0  0  0  0
  -21.8823   -3.8139   23.4343 C   0  0  0  0  0  0
  -21.9195   -4.6955   22.3400 C   0  0  0  0  0  0
  -22.7834  -13.5234   21.1848 C   0  0  0  0  0  0
  -22.1662   -4.2143   21.0976 F   0  0  0  0  0  0
  -21.5627   -3.4531   25.7734 F   0  0  0  0  0  0
  -30.0067  -13.3970   20.4201 N   0  0  0  0  0  0
  -26.2972  -12.9354   20.3321 N   0  0  0  0  0  0
  -25.9308  -11.6509   20.5754 N   0  0  0  0  0  0
  -22.0473  -12.8241   22.0412 N   0  0  0  0  0  0
  -25.4245  -15.1890   20.4086 N   0  0  0  0  0  0
  -31.8448  -14.6872   20.1485 O   0  0  0  0  0  0
  -21.6638   -6.8871   21.4236 O   0  0  0  0  0  0
  -22.3517  -14.5537   20.6690 O   0  0  0  0  0  0
  -24.6217  -31.8622   23.2048 C   0  0  0  0  0  0
  -25.9084  -32.4786   23.8364 C   0  0  1  0  0  0
  -27.2298  -27.3624   20.0947 C   0  0  0  0  0  0
  -25.5913  -33.8588   24.2291 N   0  0  0  0  0  0
  -23.4121  -30.4864   21.5471 C   0  0  2  0  0  0
  -24.8559  -28.9445   20.1118 C   0  0  0  0  0  0
  -22.7446  -29.4633   22.4956 C   0  0  0  0  0  0
  -18.0279  -28.1379   22.8487 C   0  0  0  0  0  0
  -24.1488  -36.7303   23.2638 C   0  0  0  0  0  0
  -25.9487  -30.8046   21.3687 C   0  0  0  0  0  0
  -26.0213  -29.4349   20.7118 C   0  0  0  0  0  0
  -27.2061  -28.6508   20.7004 C   0  0  0  0  0  0
  -26.0304  -26.8977   19.5056 C   0  0  0  0  0  0
  -24.8587  -27.6778   19.5075 C   0  0  0  0  0  0
  -23.6231  -29.8209   20.1616 C   0  0  0  0  0  0
  -25.4108  -36.3086   24.0330 C   0  0  1  0  0  0
  -20.5874  -28.3673   23.1299 C   0  0  2  0  0  0
  -20.6767  -26.9401   22.5412 C   0  0  0  0  0  0
  -19.5744  -26.6381   21.5207 C   0  0  0  0  0  0
  -18.1925  -26.7921   22.1623 C   0  0  0  0  0  0
  -19.1531  -28.8844   23.2889 C   0  0  0  0  0  0
  -18.9456  -30.1446   23.8904 C   0  0  0  0  0  0
  -17.6457  -30.6582   24.0565 C   0  0  0  0  0  0
  -25.9040  -34.9455   23.5110 C   0  0  0  0  0  0
  -16.5348  -29.9086   23.6326 C   0  0  0  0  0  0
  -16.7269  -28.6501   23.0347 C   0  0  0  0  0  0
  -26.4485  -31.6587   25.0720 C   0  0  0  0  0  0
  -25.3744  -31.3728   26.1472 C   0  0  0  0  0  0
  -27.0312  -30.3012   24.6145 C   0  0  0  0  0  0
  -27.6057  -32.4315   25.7481 C   0  0  0  0  0  0
  -27.5578  -37.1799   24.8461 C   0  0  0  0  0  0
  -21.4162  -29.3035   22.3700 N   0  0  0  0  0  0
  -26.4285  -37.3778   23.9410 N   0  0  0  0  0  0
  -24.6796  -31.0671   22.0977 N   0  0  0  0  0  0
  -23.4187  -28.8172   23.3018 O   0  0  0  0  0  0
  -28.3922  -26.5906   20.1402 O   0  0  0  0  0  0
  -26.5612  -34.8919   22.4674 O   0  0  0  0  0  0
  -23.5397  -32.1405   23.7408 O   0  0  0  0  0  0
  -29.8362  -22.5140   21.6049 C   0  0  0  0  0  0
  -29.5268  -23.8248   21.1570 C   0  0  0  0  0  0
  -28.7969  -23.9995   19.9497 C   0  0  0  0  0  0
  -29.4368  -21.3827   20.8665 C   0  0  0  0  0  0
  -28.4259  -22.7921   19.2770 C   0  0  0  0  0  0
  -29.4043  -17.7298   22.0058 C   0  0  0  0  0  0
  -30.3238  -18.1617   19.7589 C   0  0  0  0  0  0
  -29.0857  -16.2514   21.6145 C   0  0  0  0  0  0
  -29.9479  -16.7005   19.3616 C   0  0  0  0  0  0
  -29.3951  -18.7575   20.8404 C   0  0  0  0  0  0
  -30.0299  -25.0084   21.9652 C   0  0  0  0  0  0
  -27.7461  -21.6749   17.1741 C   0  0  0  0  0  0
  -28.5776  -25.4117   19.2965 C   0  0  0  0  0  0
  -28.7242  -21.5379   19.7323 N   0  0  0  0  0  0
  -29.8872  -15.7330   20.4865 N   0  0  0  0  0  0
  -29.8264  -20.0945   21.3196 N   0  0  0  0  0  0
  -27.7381  -22.8373   18.0562 N   0  0  0  0  0  0
  -31.4689  -12.4713   19.1477 H   0  0  0  0  0  0
  -30.3414  -11.3725   19.8875 H   0  0  0  0  0  0
  -29.7597  -11.7508   17.4690 H   0  0  0  0  0  0
  -29.6575  -13.4712   17.7439 H   0  0  0  0  0  0
  -27.8487  -11.2983   18.8476 H   0  0  0  0  0  0
  -27.3713  -12.5969   17.7870 H   0  0  0  0  0  0
  -27.6725  -14.2541   19.5310 H   0  0  0  0  0  0
  -28.7018  -12.0323   21.3608 H   0  0  0  0  0  0
  -28.4425  -13.6762   21.8461 H   0  0  0  0  0  0
  -25.2754   -9.5691   22.4745 H   0  0  0  0  0  0
  -23.9997   -7.4639   22.7471 H   0  0  0  0  0  0
  -21.0824   -8.8769   19.8955 H   0  0  0  0  0  0
  -22.3676  -10.9669   19.6156 H   0  0  0  0  0  0
  -21.2016   -7.6141   23.9706 H   0  0  0  0  0  0
  -21.1478   -6.0515   25.9070 H   0  0  0  0  0  0
  -22.0602   -2.7600   23.2844 H   0  0  0  0  0  0
  -22.4082  -11.9905   22.4815 H   0  0  0  0  0  0
  -21.1093  -13.1273   22.2616 H   0  0  0  0  0  0
  -24.6587  -15.8444   20.5190 H   0  0  0  0  0  0
  -26.2778  -15.6265   20.0862 H   0  0  0  0  0  0
  -26.7148  -32.5464   23.1112 H   0  0  0  0  0  0
  -25.0055  -33.9734   25.0434 H   0  0  0  0  0  0
  -22.7040  -31.3053   21.4062 H   0  0  0  0  0  0
  -23.3742  -35.9643   23.3294 H   0  0  0  0  0  0
  -24.3587  -36.8930   22.2054 H   0  0  0  0  0  0
  -23.7249  -37.6506   23.6666 H   0  0  0  0  0  0
  -26.0739  -31.5692   20.6010 H   0  0  0  0  0  0
  -26.8321  -30.8538   21.9937 H   0  0  0  0  0  0
  -28.1041  -29.0257   21.1711 H   0  0  0  0  0  0
  -25.9540  -25.9157   19.0665 H   0  0  0  0  0  0
  -23.9574  -27.2875   19.0553 H   0  0  0  0  0  0
  -23.7404  -30.5971   19.4044 H   0  0  0  0  0  0
  -22.7436  -29.2482   19.8612 H   0  0  0  0  0  0
  -25.1283  -36.1936   25.0822 H   0  0  0  0  0  0
  -20.9965  -28.3241   24.1419 H   0  0  0  0  0  0
  -20.5660  -26.2279   23.3603 H   0  0  0  0  0  0
  -21.6640  -26.7433   22.1210 H   0  0  0  0  0  0
  -19.6905  -25.6293   21.1233 H   0  0  0  0  0  0
  -19.6681  -27.3196   20.6738 H   0  0  0  0  0  0
  -17.4188  -26.6663   21.4031 H   0  0  0  0  0  0
  -18.0333  -26.0065   22.9026 H   0  0  0  0  0  0
  -19.7934  -30.7260   24.2275 H   0  0  0  0  0  0
  -17.5015  -31.6265   24.5164 H   0  0  0  0  0  0
  -15.5350  -30.2988   23.7648 H   0  0  0  0  0  0
  -15.8668  -28.0825   22.7057 H   0  0  0  0  0  0
  -24.5888  -30.7099   25.7820 H   0  0  0  0  0  0
  -24.8974  -32.2903   26.4930 H   0  0  0  0  0  0
  -25.8090  -30.8884   27.0225 H   0  0  0  0  0  0
  -26.2866  -29.6768   24.1191 H   0  0  0  0  0  0
  -27.4042  -29.7254   25.4624 H   0  0  0  0  0  0
  -27.8724  -30.4295   23.9330 H   0  0  0  0  0  0
  -27.2670  -33.3612   26.2067 H   0  0  0  0  0  0
  -28.3860  -32.6878   25.0302 H   0  0  0  0  0  0
  -28.0731  -31.8435   26.5390 H   0  0  0  0  0  0
  -28.2590  -38.0101   24.7510 H   0  0  0  0  0  0
  -28.1077  -36.2633   24.6273 H   0  0  0  0  0  0
  -27.2306  -37.1440   25.8867 H   0  0  0  0  0  0
  -20.9325  -29.8767   21.6930 H   0  0  0  0  0  0
  -26.0165  -38.2850   24.1420 H   0  0  0  0  0  0
  -30.4081  -22.3869   22.5142 H   0  0  0  0  0  0
  -30.3855  -17.7423   22.4831 H   0  0  0  0  0  0
  -28.6982  -18.0490   22.7737 H   0  0  0  0  0  0
  -30.2976  -18.7941   18.8701 H   0  0  0  0  0  0
  -31.3566  -18.1762   20.1093 H   0  0  0  0  0  0
  -28.0317  -16.1659   21.3502 H   0  0  0  0  0  0
  -29.2355  -15.6294   22.4980 H   0  0  0  0  0  0
  -30.6372  -16.3539   18.5896 H   0  0  0  0  0  0
  -28.9667  -16.7049   18.8849 H   0  0  0  0  0  0
  -28.3824  -18.8398   20.4417 H   0  0  0  0  0  0
  -30.6796  -24.6904   22.7808 H   0  0  0  0  0  0
  -29.1955  -25.5575   22.4022 H   0  0  0  0  0  0
  -30.6038  -25.6906   21.3382 H   0  0  0  0  0  0
  -27.2951  -21.9229   16.2128 H   0  0  0  0  0  0
  -27.1829  -20.8488   17.6107 H   0  0  0  0  0  0
  -28.7670  -21.3369   16.9893 H   0  0  0  0  0  0
  -27.8535  -25.3630   18.4891 H   0  0  0  0  0  0
  -29.5095  -25.6084   18.7660 H   0  0  0  0  0  0
  -30.3742  -20.0853   22.1727 H   0  0  0  0  0  0
  -27.5448  -23.7380   17.6340 H   0  0  0  0  0  0
  1 25  1  0  0  0
  1 30  2  0  0  0
  1 85  1  0  0  0
  2  3  1  0  0  0
  2 25  1  0  0  0
  2 88  1  0  0  0
  2 89  1  0  0  0
  3  4  1  0  0  0
  3 90  1  0  0  0
  3 91  1  0  0  0
  4  5  1  0  0  0
  4 92  1  0  0  0
  4 93  1  0  0  0
  5  6  1  0  0  0
  5 26  1  0  0  0
  5 94  1  0  0  0
  6 25  1  0  0  0
  6 95  1  0  0  0
  6 96  1  0  0  0
  7  8  2  0  0  0
  7 26  1  0  0  0
  7 29  1  0  0  0
  8  9  1  0  0  0
  8 22  1  0  0  0
  9 10  1  0  0  0
  9 27  2  0  0  0
 10 11  2  0  0  0
 10 15  1  0  0  0
 11 12  1  0  0  0
 11 97  1  0  0  0
 12 13  2  0  0  0
 12 98  1  0  0  0
 13 14  1  0  0  0
 13 31  1  0  0  0
 14 15  2  0  0  0
 14 99  1  0  0  0
 15100  1  0  0  0
 16 17  2  0  0  0
 16 21  1  0  0  0
 16 31  1  0  0  0
 17 18  1  0  0  0
 17101  1  0  0  0
 18 19  2  0  0  0
 18102  1  0  0  0
 19 20  1  0  0  0
 19 24  1  0  0  0
 20 21  2  0  0  0
 20103  1  0  0  0
 21 23  1  0  0  0
 22 28  1  0  0  0
 22 32  2  0  0  0
 26 27  1  0  0  0
 28104  1  0  0  0
 28105  1  0  0  0
 29106  1  0  0  0
 29107  1  0  0  0
 33 34  1  0  0  0
 33 66  1  0  0  0
 33 70  2  0  0  0
 34 36  1  0  0  0
 34 59  1  0  0  0
 34108  1  0  0  0
 35 44  2  0  0  0
 35 45  1  0  0  0
 35 68  1  0  0  0
 36 56  1  0  0  0
 36109  1  0  0  0
 37 39  1  0  0  0
 37 47  1  0  0  0
 37 66  1  0  0  0
 37110  1  0  0  0
 38 43  2  0  0  0
 38 46  1  0  0  0
 38 47  1  0  0  0
 39 64  1  0  0  0
 39 67  2  0  0  0
 40 52  1  0  0  0
 40 53  2  0  0  0
 40 58  1  0  0  0
 41111  1  0  0  0
 41112  1  0  0  0
 41113  1  0  0  0
 41 48  1  0  0  0
 42 43  1  0  0  0
 42 66  1  0  0  0
 42114  1  0  0  0
 42115  1  0  0  0
 43 44  1  0  0  0
 44116  1  0  0  0
 45 46  2  0  0  0
 45117  1  0  0  0
 46118  1  0  0  0
 47119  1  0  0  0
 47120  1  0  0  0
 48 56  1  0  0  0
 48 65  1  0  0  0
 48121  1  0  0  0
 49 50  1  0  0  0
 49 53  1  0  0  0
 49 64  1  0  0  0
 49122  1  0  0  0
 50 51  1  0  0  0
 50123  1  0  0  0
 50124  1  0  0  0
 51 52  1  0  0  0
 51125  1  0  0  0
 51126  1  0  0  0
 52127  1  0  0  0
 52128  1  0  0  0
 53 54  1  0  0  0
 54 55  2  0  0  0
 54129  1  0  0  0
 55 57  1  0  0  0
 55130  1  0  0  0
 56 69  2  0  0  0
 57 58  2  0  0  0
 57131  1  0  0  0
 58132  1  0  0  0
 59 60  1  0  0  0
 59 61  1  0  0  0
 59 62  1  0  0  0
 60133  1  0  0  0
 60134  1  0  0  0
 60135  1  0  0  0
 61136  1  0  0  0
 61137  1  0  0  0
 61138  1  0  0  0
 62139  1  0  0  0
 62140  1  0  0  0
 62141  1  0  0  0
 63 65  1  0  0  0
 63142  1  0  0  0
 63143  1  0  0  0
 63144  1  0  0  0
 64145  1  0  0  0
 65146  1  0  0  0
 68 83  1  0  0  0
 71 72  2  0  0  0
 71 74  1  0  0  0
 71147  1  0  0  0
 72 73  1  0  0  0
 72 81  1  0  0  0
 73 75  2  0  0  0
 73 83  1  0  0  0
 74 84  2  0  0  0
 74 86  1  0  0  0
 75 84  1  0  0  0
 75 87  1  0  0  0
 76 78  1  0  0  0
 76 80  1  0  0  0
 76148  1  0  0  0
 76149  1  0  0  0
 77 79  1  0  0  0
 77 80  1  0  0  0
 77150  1  0  0  0
 77151  1  0  0  0
 78 85  1  0  0  0
 78152  1  0  0  0
 78153  1  0  0  0
 79 85  1  0  0  0
 79154  1  0  0  0
 79155  1  0  0  0
 80 86  1  0  0  0
 80156  1  0  0  0
 81157  1  0  0  0
 81158  1  0  0  0
 81159  1  0  0  0
 82 87  1  0  0  0
 82160  1  0  0  0
 82161  1  0  0  0
 82162  1  0  0  0
 83163  1  0  0  0
 83164  1  0  0  0
 86165  1  0  0  0
 87166  1  0  0  0
M  ISO  4   1 100  68 101  83 101  85 100
M  END
> <chiral flag>
0

> <version>
0

> <s_m_source_file>
/data/baiqing/PycharmProjects/Reinvent-master-3.2/result/LINK_invent/BTK/process_docking_weight1_custom_sum_contain_oxygen_bond_distance_aromatic_linkinvent_7_9_3/rearranged_h_0169.sdf

> <i_m_source_file_index>
11

> <r_mmod_Potential_Energy-OPLS-2005>
9.93445110321045

> <r_mmod_Stretch_Energy-OPLS-2005>
62.5271148681641

> <r_mmod_Bend_Energy-OPLS-2005>
163.799606323242

> <r_mmod_Torsional_Energy-OPLS-2005>
311.419830322266

> <r_mmod_Improper_Torsional_Energy-OPLS-2005>
18.5708408355713

> <r_mmod_Van_der_Waal_Energy-OPLS-2005>
155.327713012695

> <r_mmod_Electrostatic_Energy-OPLS-2005>
-494.976440429688

> <r_mmod_Solvation_Energy-OPLS-2005>
-240.019958496094

> <b_mmod_Minimization_Converged-OPLS-2005>
0

> <r_mmod_RMS_Derivative-OPLS-2005>
0.873939096927643

$$$$
11
                    3D
 Structure written by MMmdl.
167177  0  0  1  0            999 V2000
  -30.4648  -15.1968   20.2419 C   0  0  0  0  0  0
  -30.4764  -12.7100   19.5399 C   0  0  0  0  0  0
  -29.5764  -12.2173   18.3768 C   0  0  0  0  0  0
  -28.0626  -12.2518   18.6900 C   0  0  0  0  0  0
  -27.6209  -13.2451   19.8024 C   0  0  2  0  0  0
  -28.6687  -13.4391   20.9069 C   0  0  0  0  0  0
  -25.2518  -13.8245   20.5727 C   0  0  0  0  0  0
  -24.1816  -13.0497   20.9257 C   0  0  0  0  0  0
  -24.6403  -11.6975   20.8802 C   0  0  0  0  0  0
  -23.9062  -10.4344   21.0401 C   0  0  0  0  0  0
  -24.3615   -9.4272   21.9179 C   0  0  0  0  0  0
  -23.6322   -8.2277   22.0718 C   0  0  0  0  0  0
  -22.4296   -8.0307   21.3513 C   0  0  0  0  0  0
  -21.9926   -9.0282   20.4605 C   0  0  0  0  0  0
  -22.7243  -10.2184   20.3041 C   0  0  0  0  0  0
  -21.6875   -6.0744   22.5270 C   0  0  0  0  0  0
  -21.4062   -6.5639   23.8211 C   0  0  0  0  0  0
  -21.3649   -5.6763   24.9150 C   0  0  0  0  0  0
  -21.6038   -4.3031   24.7195 C   0  0  0  0  0  0
  -21.8838   -3.8142   23.4307 C   0  0  0  0  0  0
  -21.9211   -4.6966   22.3383 C   0  0  0  0  0  0
  -22.7837  -13.5266   21.1863 C   0  0  0  0  0  0
  -22.1663   -4.2172   21.0948 F   0  0  0  0  0  0
  -21.5624   -3.4489   25.7690 F   0  0  0  0  0  0
  -29.8741  -13.9097   20.2096 N   0  0  0  0  0  0
  -26.2899  -12.9456   20.3201 N   0  0  0  0  0  0
  -25.9332  -11.6612   20.5844 N   0  0  0  0  0  0
  -22.0449  -12.8245   22.0399 N   0  0  0  0  0  0
  -25.4243  -15.1958   20.4119 N   0  0  0  0  0  0
  -31.7026  -15.1574   20.2932 O   0  0  0  0  0  0
  -21.6687   -6.8890   21.4219 O   0  0  0  0  0  0
  -22.3521  -14.5552   20.6694 O   0  0  0  0  0  0
  -24.6524  -31.8316   23.1778 C   0  0  0  0  0  0
  -25.9226  -32.4643   23.8235 C   0  0  1  0  0  0
  -27.2189  -27.0345   20.1879 C   0  0  0  0  0  0
  -25.5925  -33.8462   24.2144 N   0  0  0  0  0  0
  -23.4623  -30.4438   21.5237 C   0  0  2  0  0  0
  -24.9115  -28.8409   20.1203 C   0  0  0  0  0  0
  -22.7615  -29.4462   22.4818 C   0  0  0  0  0  0
  -18.0315  -28.1371   22.8473 C   0  0  0  0  0  0
  -24.1465  -36.7238   23.2652 C   0  0  0  0  0  0
  -26.0234  -30.6733   21.3870 C   0  0  0  0  0  0
  -26.0935  -29.2713   20.7391 C   0  0  0  0  0  0
  -27.2493  -28.3909   20.7401 C   0  0  0  0  0  0
  -26.0080  -26.7172   19.5371 C   0  0  0  0  0  0
  -24.8870  -27.5817   19.4977 C   0  0  0  0  0  0
  -23.6960  -29.7575   20.1497 C   0  0  0  0  0  0
  -25.4104  -36.3021   24.0327 C   0  0  1  0  0  0
  -20.5932  -28.3692   23.1199 C   0  0  2  0  0  0
  -20.6766  -26.9379   22.5387 C   0  0  0  0  0  0
  -19.5748  -26.6329   21.5186 C   0  0  0  0  0  0
  -18.1940  -26.7902   22.1621 C   0  0  0  0  0  0
  -19.1584  -28.8855   23.2829 C   0  0  0  0  0  0
  -18.9504  -30.1445   23.8869 C   0  0  0  0  0  0
  -17.6504  -30.6584   24.0536 C   0  0  0  0  0  0
  -25.9063  -34.9386   23.5059 C   0  0  0  0  0  0
  -16.5388  -29.9069   23.6338 C   0  0  0  0  0  0
  -16.7302  -28.6474   23.0383 C   0  0  0  0  0  0
  -26.4512  -31.6562   25.0725 C   0  0  0  0  0  0
  -25.3690  -31.3767   26.1417 C   0  0  0  0  0  0
  -27.0383  -30.2949   24.6378 C   0  0  0  0  0  0
  -27.6022  -32.4349   25.7511 C   0  0  0  0  0  0
  -27.5563  -37.1777   24.8474 C   0  0  0  0  0  0
  -21.4289  -29.3036   22.3598 N   0  0  0  0  0  0
  -26.4268  -37.3741   23.9426 N   0  0  0  0  0  0
  -24.7339  -31.0069   22.0855 N   0  0  0  0  0  0
  -23.4213  -28.7997   23.3001 O   0  0  0  0  0  0
  -28.2855  -26.0370   20.1703 O   0  0  0  0  0  0
  -26.5672  -34.8906   22.4654 O   0  0  0  0  0  0
  -23.5604  -32.1224   23.6938 O   0  0  0  0  0  0
  -26.9768  -18.7077   19.0774 C   0  0  0  0  0  0
  -27.9844  -17.7453   19.1252 C   0  0  0  0  0  0
  -28.3686  -20.3848   20.2595 C   0  0  0  0  0  0
  -27.1156  -19.9432   19.7267 C   0  0  0  0  0  0
  -29.3255  -19.1920   20.4543 C   0  0  0  0  0  0
  -29.0702  -17.7531   19.9997 C   0  0  0  0  0  0
  -28.2054  -16.8199   17.9794 C   0  0  0  0  0  0
  -29.3670  -23.3574   20.4338 C   0  0  0  0  0  0
  -27.4121  -23.2694   20.0387 C   0  0  0  0  0  0
  -28.3879  -22.0738   20.6206 C   0  0  1  0  0  0
  -28.2192  -24.5047   20.6298 C   0  0  2  0  0  0
  -29.6912  -16.4317   18.1538 C   0  0  0  0  0  0
  -25.8412  -20.7619   19.7760 C   0  0  0  0  0  0
  -30.6754  -19.4639   21.0783 C   0  0  0  0  0  0
  -29.9359  -15.1733   17.3239 C   0  0  0  0  0  0
  -30.6373  -17.5137   17.5587 C   0  0  0  0  0  0
  -29.8351  -16.4028   19.6482 N   0  0  0  0  0  0
  -31.4821  -12.9162   19.1664 H   0  0  0  0  0  0
  -30.6126  -11.9145   20.2737 H   0  0  0  0  0  0
  -29.8371  -11.1721   18.2036 H   0  0  0  0  0  0
  -29.8272  -12.6493   17.4143 H   0  0  0  0  0  0
  -27.8181  -11.2356   18.9960 H   0  0  0  0  0  0
  -27.4866  -12.4245   17.7781 H   0  0  0  0  0  0
  -27.5374  -14.2073   19.3029 H   0  0  0  0  0  0
  -28.8388  -12.5224   21.4749 H   0  0  0  0  0  0
  -28.3377  -14.1914   21.6245 H   0  0  0  0  0  0
  -25.2742   -9.5778   22.4774 H   0  0  0  0  0  0
  -24.0064   -7.4657   22.7420 H   0  0  0  0  0  0
  -21.0861   -8.8786   19.8898 H   0  0  0  0  0  0
  -22.3682  -10.9724   19.6156 H   0  0  0  0  0  0
  -21.2119   -7.6154   23.9735 H   0  0  0  0  0  0
  -21.1414   -6.0470   25.9055 H   0  0  0  0  0  0
  -22.0634   -2.7609   23.2782 H   0  0  0  0  0  0
  -22.4119  -11.9976   22.4871 H   0  0  0  0  0  0
  -21.1024  -13.1211   22.2508 H   0  0  0  0  0  0
  -24.6740  -15.8578   20.5725 H   0  0  0  0  0  0
  -26.2774  -15.6310   20.0850 H   0  0  0  0  0  0
  -26.7305  -32.5207   23.0967 H   0  0  0  0  0  0
  -25.0024  -33.9545   25.0261 H   0  0  0  0  0  0
  -22.7722  -31.2734   21.3546 H   0  0  0  0  0  0
  -23.3748  -35.9547   23.3297 H   0  0  0  0  0  0
  -24.3550  -36.8886   22.2070 H   0  0  0  0  0  0
  -23.7193  -37.6419   23.6697 H   0  0  0  0  0  0
  -26.1856  -31.4126   20.6014 H   0  0  0  0  0  0
  -26.8925  -30.7349   22.0313 H   0  0  0  0  0  0
  -28.1607  -28.7246   21.2170 H   0  0  0  0  0  0
  -25.9156  -25.7515   19.0588 H   0  0  0  0  0  0
  -23.9894  -27.2501   18.9925 H   0  0  0  0  0  0
  -23.8469  -30.5203   19.3859 H   0  0  0  0  0  0
  -22.8096  -29.2020   19.8370 H   0  0  0  0  0  0
  -25.1291  -36.1851   25.0824 H   0  0  0  0  0  0
  -21.0021  -28.3264   24.1316 H   0  0  0  0  0  0
  -20.5581  -26.2314   23.3620 H   0  0  0  0  0  0
  -21.6648  -26.7308   22.1262 H   0  0  0  0  0  0
  -19.6886  -25.6226   21.1240 H   0  0  0  0  0  0
  -19.6665  -27.3093   20.6680 H   0  0  0  0  0  0
  -17.4183  -26.6641   21.4051 H   0  0  0  0  0  0
  -18.0352  -26.0051   22.9037 H   0  0  0  0  0  0
  -19.7989  -30.7249   24.2255 H   0  0  0  0  0  0
  -17.5074  -31.6269   24.5125 H   0  0  0  0  0  0
  -15.5396  -30.2972   23.7698 H   0  0  0  0  0  0
  -15.8688  -28.0772   22.7162 H   0  0  0  0  0  0
  -24.5892  -30.7075   25.7761 H   0  0  0  0  0  0
  -24.8842  -32.2938   26.4773 H   0  0  0  0  0  0
  -25.7973  -30.9016   27.0253 H   0  0  0  0  0  0
  -26.3018  -29.6668   24.1349 H   0  0  0  0  0  0
  -27.3908  -29.7268   25.5001 H   0  0  0  0  0  0
  -27.8965  -30.4159   23.9766 H   0  0  0  0  0  0
  -27.2609  -33.3690   26.1985 H   0  0  0  0  0  0
  -28.3880  -32.6847   25.0370 H   0  0  0  0  0  0
  -28.0639  -31.8555   26.5515 H   0  0  0  0  0  0
  -28.2579  -38.0076   24.7523 H   0  0  0  0  0  0
  -28.1066  -36.2610   24.6295 H   0  0  0  0  0  0
  -27.2295  -37.1416   25.8881 H   0  0  0  0  0  0
  -20.9503  -29.8839   21.6845 H   0  0  0  0  0  0
  -26.0137  -38.2810   24.1446 H   0  0  0  0  0  0
  -26.1079  -18.5221   18.4597 H   0  0  0  0  0  0
  -28.0189  -17.3123   17.0237 H   0  0  0  0  0  0
  -27.5065  -15.9913   18.0594 H   0  0  0  0  0  0
  -29.8066  -23.3954   19.4347 H   0  0  0  0  0  0
  -30.1672  -23.4034   21.1724 H   0  0  0  0  0  0
  -26.3918  -23.2814   20.4126 H   0  0  0  0  0  0
  -27.3842  -23.2914   18.9472 H   0  0  0  0  0  0
  -28.2126  -22.0387   21.6964 H   0  0  0  0  0  0
  -27.9760  -24.5502   21.6917 H   0  0  0  0  0  0
  -25.7966  -21.4656   18.9470 H   0  0  0  0  0  0
  -25.7378  -21.2745   20.7310 H   0  0  0  0  0  0
  -24.9675  -20.1133   19.6991 H   0  0  0  0  0  0
  -30.5577  -19.8457   22.0921 H   0  0  0  0  0  0
  -31.2421  -20.1837   20.4875 H   0  0  0  0  0  0
  -31.2611  -18.5453   21.1354 H   0  0  0  0  0  0
  -29.9860  -15.3986   16.2572 H   0  0  0  0  0  0
  -29.0776  -14.5213   17.4340 H   0  0  0  0  0  0
  -30.8668  -14.6664   17.5729 H   0  0  0  0  0  0
  -31.6826  -17.2322   17.6881 H   0  0  0  0  0  0
  -30.5118  -18.5021   17.9989 H   0  0  0  0  0  0
  -30.4687  -17.6461   16.4895 H   0  0  0  0  0  0
  1 25  1  0  0  0
  1 30  2  0  0  0
  1 87  1  0  0  0
  2  3  1  0  0  0
  2 25  1  0  0  0
  2 88  1  0  0  0
  2 89  1  0  0  0
  3  4  1  0  0  0
  3 90  1  0  0  0
  3 91  1  0  0  0
  4  5  1  0  0  0
  4 92  1  0  0  0
  4 93  1  0  0  0
  5  6  1  0  0  0
  5 26  1  0  0  0
  5 94  1  0  0  0
  6 25  1  0  0  0
  6 95  1  0  0  0
  6 96  1  0  0  0
  7  8  2  0  0  0
  7 26  1  0  0  0
  7 29  1  0  0  0
  8  9  1  0  0  0
  8 22  1  0  0  0
  9 10  1  0  0  0
  9 27  2  0  0  0
 10 11  2  0  0  0
 10 15  1  0  0  0
 11 12  1  0  0  0
 11 97  1  0  0  0
 12 13  2  0  0  0
 12 98  1  0  0  0
 13 14  1  0  0  0
 13 31  1  0  0  0
 14 15  2  0  0  0
 14 99  1  0  0  0
 15100  1  0  0  0
 16 17  2  0  0  0
 16 21  1  0  0  0
 16 31  1  0  0  0
 17 18  1  0  0  0
 17101  1  0  0  0
 18 19  2  0  0  0
 18102  1  0  0  0
 19 20  1  0  0  0
 19 24  1  0  0  0
 20 21  2  0  0  0
 20103  1  0  0  0
 21 23  1  0  0  0
 22 28  1  0  0  0
 22 32  2  0  0  0
 26 27  1  0  0  0
 28104  1  0  0  0
 28105  1  0  0  0
 29106  1  0  0  0
 29107  1  0  0  0
 33 34  1  0  0  0
 33 66  1  0  0  0
 33 70  2  0  0  0
 34 36  1  0  0  0
 34 59  1  0  0  0
 34108  1  0  0  0
 35 44  2  0  0  0
 35 45  1  0  0  0
 35 68  1  0  0  0
 36 56  1  0  0  0
 36109  1  0  0  0
 37 39  1  0  0  0
 37 47  1  0  0  0
 37 66  1  0  0  0
 37110  1  0  0  0
 38 43  2  0  0  0
 38 46  1  0  0  0
 38 47  1  0  0  0
 39 64  1  0  0  0
 39 67  2  0  0  0
 40 52  1  0  0  0
 40 53  2  0  0  0
 40 58  1  0  0  0
 41111  1  0  0  0
 41112  1  0  0  0
 41113  1  0  0  0
 41 48  1  0  0  0
 42 43  1  0  0  0
 42 66  1  0  0  0
 42114  1  0  0  0
 42115  1  0  0  0
 43 44  1  0  0  0
 44116  1  0  0  0
 45 46  2  0  0  0
 45117  1  0  0  0
 46118  1  0  0  0
 47119  1  0  0  0
 47120  1  0  0  0
 48 56  1  0  0  0
 48 65  1  0  0  0
 48121  1  0  0  0
 49 50  1  0  0  0
 49 53  1  0  0  0
 49 64  1  0  0  0
 49122  1  0  0  0
 50 51  1  0  0  0
 50123  1  0  0  0
 50124  1  0  0  0
 51 52  1  0  0  0
 51125  1  0  0  0
 51126  1  0  0  0
 52127  1  0  0  0
 52128  1  0  0  0
 53 54  1  0  0  0
 54 55  2  0  0  0
 54129  1  0  0  0
 55 57  1  0  0  0
 55130  1  0  0  0
 56 69  2  0  0  0
 57 58  2  0  0  0
 57131  1  0  0  0
 58132  1  0  0  0
 59 60  1  0  0  0
 59 61  1  0  0  0
 59 62  1  0  0  0
 60133  1  0  0  0
 60134  1  0  0  0
 60135  1  0  0  0
 61136  1  0  0  0
 61137  1  0  0  0
 61138  1  0  0  0
 62139  1  0  0  0
 62140  1  0  0  0
 62141  1  0  0  0
 63 65  1  0  0  0
 63142  1  0  0  0
 63143  1  0  0  0
 63144  1  0  0  0
 64145  1  0  0  0
 65146  1  0  0  0
 68 81  1  0  0  0
 71 72  2  0  0  0
 71 74  1  0  0  0
 71147  1  0  0  0
 72 76  1  0  0  0
 72 77  1  0  0  0
 73 74  2  0  0  0
 73 75  1  0  0  0
 73 80  1  0  0  0
 74 83  1  0  0  0
 75 76  2  0  0  0
 75 84  1  0  0  0
 76 87  1  0  0  0
 77 82  1  0  0  0
 77148  1  0  0  0
 77149  1  0  0  0
 78 80  1  0  0  0
 78 81  1  0  0  0
 78150  1  0  0  0
 78151  1  0  0  0
 79 80  1  0  0  0
 79 81  1  0  0  0
 79152  1  0  0  0
 79153  1  0  0  0
 80154  1  0  0  0
 81155  1  0  0  0
 82 85  1  0  0  0
 82 86  1  0  0  0
 82 87  1  0  0  0
 83156  1  0  0  0
 83157  1  0  0  0
 83158  1  0  0  0
 84159  1  0  0  0
 84160  1  0  0  0
 84161  1  0  0  0
 85162  1  0  0  0
 85163  1  0  0  0
 85164  1  0  0  0
 86165  1  0  0  0
 86166  1  0  0  0
 86167  1  0  0  0
M  ISO  4   1 100  68 101  81 101  87 100
M  END
> <chiral flag>
0

> <version>
0

> <s_m_source_file>
/data/baiqing/PycharmProjects/Reinvent-master-3.2/result/LINK_invent/BTK/process_docking_weight1_custom_sum_contain_oxygen_bond_distance_aromatic_linkinvent_7_9_3/rearranged_h_0169.sdf

> <i_m_source_file_index>
12

> <r_mmod_Potential_Energy-OPLS-2005>
1481.55102539062

> <r_mmod_Stretch_Energy-OPLS-2005>
416.588653564453

> <r_mmod_Bend_Energy-OPLS-2005>
557.788208007812

> <r_mmod_Torsional_Energy-OPLS-2005>
432.390411376953

> <r_mmod_Improper_Torsional_Energy-OPLS-2005>
35.445743560791

> <r_mmod_Van_der_Waal_Energy-OPLS-2005>
146.846755981445

> <r_mmod_Electrostatic_Energy-OPLS-2005>
-299.083953857422

> <r_mmod_Solvation_Energy-OPLS-2005>
-183.753662109375

> <b_mmod_Minimization_Converged-OPLS-2005>
0

> <r_mmod_RMS_Derivative-OPLS-2005>
3.61191868782043

$$$$
12
                    3D
 Structure written by MMmdl.
172183  0  0  1  0            999 V2000
  -30.5048  -15.0255   20.4237 C   0  0  0  0  0  0
  -30.4415  -12.6410   19.5154 C   0  0  0  0  0  0
  -29.5326  -12.5430   18.2658 C   0  0  0  0  0  0
  -28.0667  -12.3075   18.6767 C   0  0  0  0  0  0
  -27.6235  -13.2488   19.8271 C   0  0  2  0  0  0
  -28.6564  -13.3059   20.9762 C   0  0  0  0  0  0
  -25.2435  -13.8185   20.5650 C   0  0  0  0  0  0
  -24.1771  -13.0440   20.9233 C   0  0  0  0  0  0
  -24.6381  -11.6917   20.8749 C   0  0  0  0  0  0
  -23.9068  -10.4289   21.0407 C   0  0  0  0  0  0
  -24.3631   -9.4194   21.9173 C   0  0  0  0  0  0
  -23.6301   -8.2232   22.0739 C   0  0  0  0  0  0
  -22.4281   -8.0280   21.3535 C   0  0  0  0  0  0
  -21.9912   -9.0252   20.4642 C   0  0  0  0  0  0
  -22.7236  -10.2135   20.3057 C   0  0  0  0  0  0
  -21.6851   -6.0729   22.5280 C   0  0  0  0  0  0
  -21.4018   -6.5633   23.8213 C   0  0  0  0  0  0
  -21.3656   -5.6788   24.9175 C   0  0  0  0  0  0
  -21.6059   -4.3046   24.7220 C   0  0  0  0  0  0
  -21.8815   -3.8139   23.4332 C   0  0  0  0  0  0
  -21.9196   -4.6960   22.3401 C   0  0  0  0  0  0
  -22.7795  -13.5228   21.1897 C   0  0  0  0  0  0
  -22.1659   -4.2165   21.0976 F   0  0  0  0  0  0
  -21.5635   -3.4524   25.7725 F   0  0  0  0  0  0
  -29.9298  -13.7467   20.3872 N   0  0  0  0  0  0
  -26.2839  -12.9425   20.3129 N   0  0  0  0  0  0
  -25.9300  -11.6555   20.5670 N   0  0  0  0  0  0
  -22.0430  -12.8255   22.0440 N   0  0  0  0  0  0
  -25.4102  -15.1924   20.3990 N   0  0  0  0  0  0
  -31.6941  -15.1067   20.0939 O   0  0  0  0  0  0
  -21.6644   -6.8882   21.4250 O   0  0  0  0  0  0
  -22.3508  -14.5522   20.6686 O   0  0  0  0  0  0
  -24.6488  -31.8396   23.1840 C   0  0  0  0  0  0
  -25.9242  -32.4687   23.8243 C   0  0  1  0  0  0
  -27.2238  -27.0962   20.1579 C   0  0  0  0  0  0
  -25.5963  -33.8496   24.2177 N   0  0  0  0  0  0
  -23.4553  -30.4556   21.5278 C   0  0  2  0  0  0
  -24.9032  -28.8607   20.1170 C   0  0  0  0  0  0
  -22.7626  -29.4518   22.4843 C   0  0  0  0  0  0
  -18.0330  -28.1414   22.8482 C   0  0  0  0  0  0
  -24.1493  -36.7222   23.2636 C   0  0  0  0  0  0
  -26.0119  -30.7004   21.3842 C   0  0  0  0  0  0
  -26.0826  -29.3038   20.7308 C   0  0  0  0  0  0
  -27.2436  -28.4390   20.7261 C   0  0  0  0  0  0
  -26.0125  -26.7497   19.5268 C   0  0  0  0  0  0
  -24.8813  -27.5993   19.4993 C   0  0  0  0  0  0
  -23.6883  -29.7740   20.1508 C   0  0  0  0  0  0
  -25.4115  -36.3001   24.0329 C   0  0  1  0  0  0
  -20.5946  -28.3722   23.1260 C   0  0  2  0  0  0
  -20.6809  -26.9424   22.5411 C   0  0  0  0  0  0
  -19.5755  -26.6386   21.5243 C   0  0  0  0  0  0
  -18.1946  -26.7951   22.1653 C   0  0  0  0  0  0
  -19.1588  -28.8883   23.2868 C   0  0  0  0  0  0
  -18.9486  -30.1491   23.8871 C   0  0  0  0  0  0
  -17.6471  -30.6596   24.0531 C   0  0  0  0  0  0
  -25.9076  -34.9397   23.5057 C   0  0  0  0  0  0
  -16.5373  -29.9070   23.6324 C   0  0  0  0  0  0
  -16.7313  -28.6500   23.0339 C   0  0  0  0  0  0
  -26.4556  -31.6566   25.0688 C   0  0  0  0  0  0
  -25.3734  -31.3769   26.1381 C   0  0  0  0  0  0
  -27.0397  -30.2940   24.6282 C   0  0  0  0  0  0
  -27.6097  -32.4325   25.7449 C   0  0  0  0  0  0
  -27.5587  -37.1746   24.8469 C   0  0  0  0  0  0
  -21.4304  -29.3062   22.3655 N   0  0  0  0  0  0
  -26.4266  -37.3728   23.9447 N   0  0  0  0  0  0
  -24.7253  -31.0209   22.0875 N   0  0  0  0  0  0
  -23.4283  -28.8057   23.2986 O   0  0  0  0  0  0
  -28.3090  -26.1425   20.1173 O   0  0  0  0  0  0
  -26.5628  -34.8902   22.4618 O   0  0  0  0  0  0
  -23.5599  -32.1271   23.7061 O   0  0  0  0  0  0
  -28.9996  -21.6890   20.2533 C   0  0  0  0  0  0
  -28.3795  -20.3968   20.1860 C   0  0  0  0  0  0
  -30.4501  -21.6907   20.6848 C   0  0  0  0  0  0
  -31.2575  -20.4292   20.4830 C   0  0  0  0  0  0
  -29.8864  -17.7744   20.5172 C   0  0  0  0  0  0
  -32.2456  -19.9410   21.4765 C   0  0  0  0  0  0
  -27.6713  -19.4233   23.3003 C   0  0  0  0  0  0
  -28.3557  -18.0837   23.4051 C   0  0  0  0  0  0
  -32.5657  -17.4357   22.2125 C   0  0  0  0  0  0
  -33.4596  -17.6659   21.0108 C   0  0  0  0  0  0
  -28.7261  -18.9015   20.8953 C   0  0  1  0  0  0
  -28.8569  -19.1078   22.4105 C   0  0  0  0  0  0
  -32.1944  -18.4745   21.1758 C   0  0  0  0  0  0
  -27.0761  -20.2586   19.4064 C   0  0  0  0  0  0
  -29.2165  -23.5265   18.3872 C   0  0  0  0  0  0
  -28.2571  -24.6348   20.5717 C   0  0  0  0  0  0
  -28.4630  -23.1884   19.6872 C   0  0  1  0  0  0
  -30.9659  -19.5815   19.5474 N   0  0  0  0  0  0
  -31.0943  -18.3451   20.1868 N   0  0  0  0  0  0
  -29.6710  -16.3385   20.6572 N   0  3  0  0  0  0
  -30.9817  -22.6795   21.2015 O   0  0  0  0  0  0
  -31.4757  -12.8122   19.2126 H   0  0  0  0  0  0
  -30.4489  -11.6928   20.0558 H   0  0  0  0  0  0
  -29.8749  -11.7430   17.6061 H   0  0  0  0  0  0
  -29.6062  -13.4677   17.6909 H   0  0  0  0  0  0
  -27.9766  -11.2680   18.9961 H   0  0  0  0  0  0
  -27.4081  -12.4187   17.8150 H   0  0  0  0  0  0
  -27.5758  -14.2435   19.3800 H   0  0  0  0  0  0
  -28.7549  -12.3300   21.4547 H   0  0  0  0  0  0
  -28.3297  -13.9994   21.7563 H   0  0  0  0  0  0
  -25.2781   -9.5694   22.4752 H   0  0  0  0  0  0
  -24.0029   -7.4624   22.7441 H   0  0  0  0  0  0
  -21.0840   -8.8771   19.8943 H   0  0  0  0  0  0
  -22.3681  -10.9680   19.6184 H   0  0  0  0  0  0
  -21.2002   -7.6143   23.9744 H   0  0  0  0  0  0
  -21.1485   -6.0498   25.9105 H   0  0  0  0  0  0
  -22.0594   -2.7609   23.2822 H   0  0  0  0  0  0
  -22.4033  -11.9956   22.4907 H   0  0  0  0  0  0
  -21.1049  -13.1281   22.2606 H   0  0  0  0  0  0
  -24.5958  -15.7980   20.4353 H   0  0  0  0  0  0
  -26.1650  -15.5898   19.8584 H   0  0  0  0  0  0
  -26.7308  -32.5275   23.0980 H   0  0  0  0  0  0
  -25.0159  -33.9608   25.0354 H   0  0  0  0  0  0
  -22.7570  -31.2789   21.3649 H   0  0  0  0  0  0
  -23.3787  -35.9517   23.3250 H   0  0  0  0  0  0
  -24.3580  -36.8889   22.2053 H   0  0  0  0  0  0
  -23.7241  -37.6409   23.6692 H   0  0  0  0  0  0
  -26.1706  -31.4516   20.6097 H   0  0  0  0  0  0
  -26.8848  -30.7530   22.0242 H   0  0  0  0  0  0
  -28.1513  -28.7782   21.2039 H   0  0  0  0  0  0
  -25.9295  -25.7825   19.0491 H   0  0  0  0  0  0
  -23.9765  -27.2569   19.0130 H   0  0  0  0  0  0
  -23.8393  -30.5403   19.3889 H   0  0  0  0  0  0
  -22.8023  -29.2194   19.8393 H   0  0  0  0  0  0
  -25.1321  -36.1766   25.0820 H   0  0  0  0  0  0
  -21.0027  -28.3250   24.1385 H   0  0  0  0  0  0
  -20.5723  -26.2308   23.3621 H   0  0  0  0  0  0
  -21.6670  -26.7432   22.1192 H   0  0  0  0  0  0
  -19.6899  -25.6296   21.1270 H   0  0  0  0  0  0
  -19.6683  -27.3203   20.6773 H   0  0  0  0  0  0
  -17.4231  -26.6731   21.4040 H   0  0  0  0  0  0
  -18.0294  -26.0101   22.9044 H   0  0  0  0  0  0
  -19.7960  -30.7322   24.2229 H   0  0  0  0  0  0
  -17.5017  -31.6263   24.5158 H   0  0  0  0  0  0
  -15.5376  -30.2936   23.7684 H   0  0  0  0  0  0
  -15.8723  -28.0805   22.7053 H   0  0  0  0  0  0
  -24.5931  -30.7108   25.7721 H   0  0  0  0  0  0
  -24.8911  -32.2951   26.4735 H   0  0  0  0  0  0
  -25.8006  -30.8996   27.0210 H   0  0  0  0  0  0
  -26.3008  -29.6659   24.1294 H   0  0  0  0  0  0
  -27.4026  -29.7244   25.4864 H   0  0  0  0  0  0
  -27.8924  -30.4206   23.9596 H   0  0  0  0  0  0
  -27.2744  -33.3678   26.1962 H   0  0  0  0  0  0
  -28.3926  -32.6824   25.0264 H   0  0  0  0  0  0
  -28.0751  -31.8480   26.5406 H   0  0  0  0  0  0
  -28.2571  -38.0076   24.7533 H   0  0  0  0  0  0
  -28.1115  -36.2604   24.6243 H   0  0  0  0  0  0
  -27.2297  -37.1320   25.8868 H   0  0  0  0  0  0
  -20.9529  -29.8702   21.6761 H   0  0  0  0  0  0
  -26.0112  -38.2789   24.1455 H   0  0  0  0  0  0
  -31.9460  -20.1534   22.5031 H   0  0  0  0  0  0
  -33.2406  -20.3496   21.2993 H   0  0  0  0  0  0
  -27.8277  -20.1278   24.1152 H   0  0  0  0  0  0
  -26.6757  -19.4408   22.8581 H   0  0  0  0  0  0
  -27.8007  -17.2225   23.0406 H   0  0  0  0  0  0
  -28.9728  -17.8980   24.2877 H   0  0  0  0  0  0
  -32.9135  -17.8011   23.1771 H   0  0  0  0  0  0
  -32.0004  -16.5112   22.2658 H   0  0  0  0  0  0
  -33.4757  -16.9188   20.2212 H   0  0  0  0  0  0
  -34.4052  -18.1864   21.1520 H   0  0  0  0  0  0
  -27.7962  -18.3499   20.7759 H   0  0  0  0  0  0
  -29.7707  -19.6013   22.7098 H   0  0  0  0  0  0
  -26.8321  -21.1141   18.7854 H   0  0  0  0  0  0
  -26.2362  -20.0763   20.0719 H   0  0  0  0  0  0
  -27.1587  -19.4162   18.7173 H   0  0  0  0  0  0
  -28.8120  -24.4221   17.9175 H   0  0  0  0  0  0
  -29.1381  -22.7196   17.6525 H   0  0  0  0  0  0
  -30.2746  -23.7205   18.5737 H   0  0  0  0  0  0
  -29.0461  -24.5957   21.3214 H   0  0  0  0  0  0
  -27.3439  -24.5207   21.1586 H   0  0  0  0  0  0
  -27.4450  -23.0098   19.3567 H   0  0  0  0  0  0
  -28.7132  -16.1956   20.9294 H   0  0  0  0  0  0
  1 25  1  0  0  0
  1 30  2  0  0  0
  1 90  1  0  0  0
  2  3  1  0  0  0
  2 25  1  0  0  0
  2 92  1  0  0  0
  2 93  1  0  0  0
  3  4  1  0  0  0
  3 94  1  0  0  0
  3 95  1  0  0  0
  4  5  1  0  0  0
  4 96  1  0  0  0
  4 97  1  0  0  0
  5  6  1  0  0  0
  5 26  1  0  0  0
  5 98  1  0  0  0
  6 25  1  0  0  0
  6 99  1  0  0  0
  6100  1  0  0  0
  7  8  2  0  0  0
  7 26  1  0  0  0
  7 29  1  0  0  0
  8  9  1  0  0  0
  8 22  1  0  0  0
  9 10  1  0  0  0
  9 27  2  0  0  0
 10 11  2  0  0  0
 10 15  1  0  0  0
 11 12  1  0  0  0
 11101  1  0  0  0
 12 13  2  0  0  0
 12102  1  0  0  0
 13 14  1  0  0  0
 13 31  1  0  0  0
 14 15  2  0  0  0
 14103  1  0  0  0
 15104  1  0  0  0
 16 17  2  0  0  0
 16 21  1  0  0  0
 16 31  1  0  0  0
 17 18  1  0  0  0
 17105  1  0  0  0
 18 19  2  0  0  0
 18106  1  0  0  0
 19 20  1  0  0  0
 19 24  1  0  0  0
 20 21  2  0  0  0
 20107  1  0  0  0
 21 23  1  0  0  0
 22 28  1  0  0  0
 22 32  2  0  0  0
 26 27  1  0  0  0
 28108  1  0  0  0
 28109  1  0  0  0
 29110  1  0  0  0
 29111  1  0  0  0
 33 34  1  0  0  0
 33 66  1  0  0  0
 33 70  2  0  0  0
 34 36  1  0  0  0
 34 59  1  0  0  0
 34112  1  0  0  0
 35 44  2  0  0  0
 35 45  1  0  0  0
 35 68  1  0  0  0
 36 56  1  0  0  0
 36113  1  0  0  0
 37 39  1  0  0  0
 37 47  1  0  0  0
 37 66  1  0  0  0
 37114  1  0  0  0
 38 43  2  0  0  0
 38 46  1  0  0  0
 38 47  1  0  0  0
 39 64  1  0  0  0
 39 67  2  0  0  0
 40 52  1  0  0  0
 40 53  2  0  0  0
 40 58  1  0  0  0
 41115  1  0  0  0
 41116  1  0  0  0
 41117  1  0  0  0
 41 48  1  0  0  0
 42 43  1  0  0  0
 42 66  1  0  0  0
 42118  1  0  0  0
 42119  1  0  0  0
 43 44  1  0  0  0
 44120  1  0  0  0
 45 46  2  0  0  0
 45121  1  0  0  0
 46122  1  0  0  0
 47123  1  0  0  0
 47124  1  0  0  0
 48 56  1  0  0  0
 48 65  1  0  0  0
 48125  1  0  0  0
 49 50  1  0  0  0
 49 53  1  0  0  0
 49 64  1  0  0  0
 49126  1  0  0  0
 50 51  1  0  0  0
 50127  1  0  0  0
 50128  1  0  0  0
 51 52  1  0  0  0
 51129  1  0  0  0
 51130  1  0  0  0
 52131  1  0  0  0
 52132  1  0  0  0
 53 54  1  0  0  0
 54 55  2  0  0  0
 54133  1  0  0  0
 55 57  1  0  0  0
 55134  1  0  0  0
 56 69  2  0  0  0
 57 58  2  0  0  0
 57135  1  0  0  0
 58136  1  0  0  0
 59 60  1  0  0  0
 59 61  1  0  0  0
 59 62  1  0  0  0
 60137  1  0  0  0
 60138  1  0  0  0
 60139  1  0  0  0
 61140  1  0  0  0
 61141  1  0  0  0
 61142  1  0  0  0
 62143  1  0  0  0
 62144  1  0  0  0
 62145  1  0  0  0
 63 65  1  0  0  0
 63146  1  0  0  0
 63147  1  0  0  0
 63148  1  0  0  0
 64149  1  0  0  0
 65150  1  0  0  0
 68 86  1  0  0  0
 71 72  2  0  0  0
 71 73  1  0  0  0
 71 87  1  0  0  0
 72 84  1  0  0  0
 72 81  1  0  0  0
 73 74  1  0  0  0
 73 91  2  0  0  0
 74 76  1  0  0  0
 74 88  2  0  0  0
 75 81  1  0  0  0
 75 89  1  0  0  0
 75 90  2  0  0  0
 76151  1  0  0  0
 76152  1  0  0  0
 76 83  1  0  0  0
 77 78  1  0  0  0
 77153  1  0  0  0
 77154  1  0  0  0
 77 82  1  0  0  0
 78 82  1  0  0  0
 78155  1  0  0  0
 78156  1  0  0  0
 79 80  1  0  0  0
 79 83  1  0  0  0
 79157  1  0  0  0
 79158  1  0  0  0
 80 83  1  0  0  0
 80159  1  0  0  0
 80160  1  0  0  0
 81 82  1  0  0  0
 81161  1  0  0  0
 82162  1  0  0  0
 83 89  1  0  0  0
 84163  1  0  0  0
 84164  1  0  0  0
 84165  1  0  0  0
 85166  1  0  0  0
 85167  1  0  0  0
 85168  1  0  0  0
 85 87  1  0  0  0
 86 87  1  0  0  0
 86169  1  0  0  0
 86170  1  0  0  0
 87171  1  0  0  0
 88 89  1  0  0  0
 90172  1  0  0  0
M  CHG  1  90   1
M  ISO  4   1 100  68 101  86 101  90 100
M  END
> <chiral flag>
0

> <version>
0

> <s_m_source_file>
/data/baiqing/PycharmProjects/Reinvent-master-3.2/result/LINK_invent/BTK/process_docking_weight1_custom_sum_contain_oxygen_bond_distance_aromatic_linkinvent_7_9_3/rearranged_h_0169.sdf

> <i_m_source_file_index>
13

> <r_mmod_Potential_Energy-OPLS-2005>
895.441162109375

> <r_mmod_Stretch_Energy-OPLS-2005>
361.142913818359

> <r_mmod_Bend_Energy-OPLS-2005>
357.029937744141

> <r_mmod_Torsional_Energy-OPLS-2005>
471.414642333984

> <r_mmod_Improper_Torsional_Energy-OPLS-2005>
15.3875532150269

> <r_mmod_Van_der_Waal_Energy-OPLS-2005>
132.151214599609

> <r_mmod_Electrostatic_Energy-OPLS-2005>
-249.033264160156

> <r_mmod_Solvation_Energy-OPLS-2005>
-425.132019042969

> <b_mmod_Minimization_Converged-OPLS-2005>
0

> <r_mmod_RMS_Derivative-OPLS-2005>
5.17690515518188

$$$$
13
                    3D
 Structure written by MMmdl.
162172  0  0  1  0            999 V2000
  -30.5427  -15.0474   20.4283 C   0  0  0  0  0  0
  -30.4350  -12.6589   19.5155 C   0  0  0  0  0  0
  -29.5261  -12.5462   18.2689 C   0  0  0  0  0  0
  -28.0602  -12.3207   18.6827 C   0  0  0  0  0  0
  -27.6237  -13.2602   19.8371 C   0  0  2  0  0  0
  -28.6659  -13.3206   20.9736 C   0  0  0  0  0  0
  -25.2396  -13.8219   20.5690 C   0  0  0  0  0  0
  -24.1747  -13.0422   20.9232 C   0  0  0  0  0  0
  -24.6395  -11.6922   20.8761 C   0  0  0  0  0  0
  -23.9086  -10.4288   21.0407 C   0  0  0  0  0  0
  -24.3630   -9.4203   21.9185 C   0  0  0  0  0  0
  -23.6301   -8.2240   22.0754 C   0  0  0  0  0  0
  -22.4281   -8.0279   21.3543 C   0  0  0  0  0  0
  -21.9922   -9.0256   20.4646 C   0  0  0  0  0  0
  -22.7256  -10.2132   20.3056 C   0  0  0  0  0  0
  -21.6852   -6.0736   22.5277 C   0  0  0  0  0  0
  -21.4018   -6.5638   23.8213 C   0  0  0  0  0  0
  -21.3658   -5.6787   24.9171 C   0  0  0  0  0  0
  -21.6051   -4.3052   24.7220 C   0  0  0  0  0  0
  -21.8821   -3.8146   23.4339 C   0  0  0  0  0  0
  -21.9190   -4.6963   22.3397 C   0  0  0  0  0  0
  -22.7765  -13.5190   21.1879 C   0  0  0  0  0  0
  -22.1652   -4.2150   21.0973 F   0  0  0  0  0  0
  -21.5634   -3.4533   25.7730 F   0  0  0  0  0  0
  -29.9233  -13.7834   20.3669 N   0  0  0  0  0  0
  -26.2855  -12.9487   20.3251 N   0  0  0  0  0  0
  -25.9336  -11.6604   20.5756 N   0  0  0  0  0  0
  -22.0428  -12.8188   22.0449 N   0  0  0  0  0  0
  -25.3955  -15.1938   20.4047 N   0  0  0  0  0  0
  -31.7457  -15.0402   20.1360 O   0  0  0  0  0  0
  -21.6637   -6.8881   21.4241 O   0  0  0  0  0  0
  -22.3440  -14.5489   20.6720 O   0  0  0  0  0  0
  -24.6510  -31.8380   23.1833 C   0  0  0  0  0  0
  -25.9254  -32.4660   23.8245 C   0  0  1  0  0  0
  -27.2105  -27.0615   20.1567 C   0  0  0  0  0  0
  -25.5974  -33.8470   24.2153 N   0  0  0  0  0  0
  -23.4582  -30.4573   21.5306 C   0  0  2  0  0  0
  -24.9086  -28.8774   20.1079 C   0  0  0  0  0  0
  -22.7608  -29.4520   22.4825 C   0  0  0  0  0  0
  -18.0312  -28.1404   22.8475 C   0  0  0  0  0  0
  -24.1493  -36.7236   23.2641 C   0  0  0  0  0  0
  -26.0209  -30.6872   21.3957 C   0  0  0  0  0  0
  -26.0899  -29.2927   20.7356 C   0  0  0  0  0  0
  -27.2403  -28.4025   20.7435 C   0  0  0  0  0  0
  -26.0028  -26.7780   19.4763 C   0  0  0  0  0  0
  -24.8830  -27.6358   19.4608 C   0  0  0  0  0  0
  -23.6893  -29.7885   20.1501 C   0  0  0  0  0  0
  -25.4128  -36.3010   24.0307 C   0  0  1  0  0  0
  -20.5932  -28.3739   23.1210 C   0  0  2  0  0  0
  -20.6796  -26.9434   22.5398 C   0  0  0  0  0  0
  -19.5767  -26.6385   21.5209 C   0  0  0  0  0  0
  -18.1949  -26.7940   22.1623 C   0  0  0  0  0  0
  -19.1573  -28.8890   23.2834 C   0  0  0  0  0  0
  -18.9487  -30.1483   23.8864 C   0  0  0  0  0  0
  -17.6483  -30.6596   24.0561 C   0  0  0  0  0  0
  -25.9088  -34.9390   23.5041 C   0  0  0  0  0  0
  -16.5373  -29.9088   23.6341 C   0  0  0  0  0  0
  -16.7298  -28.6509   23.0359 C   0  0  0  0  0  0
  -26.4544  -31.6553   25.0717 C   0  0  0  0  0  0
  -25.3703  -31.3780   26.1394 C   0  0  0  0  0  0
  -27.0414  -30.2932   24.6363 C   0  0  0  0  0  0
  -27.6063  -32.4333   25.7504 C   0  0  0  0  0  0
  -27.5572  -37.1775   24.8466 C   0  0  0  0  0  0
  -21.4291  -29.3053   22.3574 N   0  0  0  0  0  0
  -26.4283  -37.3732   23.9408 N   0  0  0  0  0  0
  -24.7304  -31.0172   22.0906 N   0  0  0  0  0  0
  -23.4219  -28.8070   23.3003 O   0  0  0  0  0  0
  -28.2138  -25.9988   20.2451 O   0  0  0  0  0  0
  -26.5678  -34.8900   22.4623 O   0  0  0  0  0  0
  -23.5611  -32.1292   23.7006 O   0  0  0  0  0  0
  -30.2417  -21.4280   20.9073 C   0  0  0  0  0  0
  -29.9359  -22.8490   20.8346 C   0  0  0  0  0  0
  -29.2127  -20.6311   20.4531 C   0  0  0  0  0  0
  -28.6801  -23.0905   20.3261 C   0  0  0  0  0  0
  -25.7357  -21.9427   20.1559 C   0  0  0  0  0  0
  -26.0552  -20.4767   20.2744 C   0  0  0  0  0  0
  -28.5480  -18.1956   21.6011 C   0  0  0  0  0  0
  -28.7066  -16.6360   21.3934 C   0  0  0  0  0  0
  -29.0654  -18.9515   20.3581 C   0  0  2  0  0  0
  -26.9690  -21.3808   19.4763 C   0  0  0  0  0  0
  -30.2249  -17.7898   20.0685 C   0  0  2  0  0  0
  -30.6793  -17.8307   18.6024 C   0  0  0  0  0  0
  -27.8056  -24.4863   19.9966 C   0  0  0  0  0  0
  -28.2476  -21.6926   20.1062 N   0  0  0  0  0  0
  -29.8370  -16.3216   20.4998 N   0  0  0  0  0  0
  -31.4680  -12.8138   19.2015 H   0  0  0  0  0  0
  -30.4431  -11.7210   20.0739 H   0  0  0  0  0  0
  -29.8638  -11.7330   17.6250 H   0  0  0  0  0  0
  -29.6052  -13.4594   17.6775 H   0  0  0  0  0  0
  -27.9649  -11.2813   18.9987 H   0  0  0  0  0  0
  -27.3992  -12.4385   17.8232 H   0  0  0  0  0  0
  -27.5752  -14.2563   19.3961 H   0  0  0  0  0  0
  -28.7855  -12.3457   21.4477 H   0  0  0  0  0  0
  -28.3401  -13.9953   21.7627 H   0  0  0  0  0  0
  -25.2768   -9.5681   22.4770 H   0  0  0  0  0  0
  -24.0008   -7.4632   22.7477 H   0  0  0  0  0  0
  -21.0853   -8.8782   19.8950 H   0  0  0  0  0  0
  -22.3716  -10.9677   19.6171 H   0  0  0  0  0  0
  -21.2013   -7.6146   23.9719 H   0  0  0  0  0  0
  -21.1476   -6.0511   25.9075 H   0  0  0  0  0  0
  -22.0603   -2.7609   23.2836 H   0  0  0  0  0  0
  -22.4051  -11.9859   22.4850 H   0  0  0  0  0  0
  -21.1049  -13.1215   22.2662 H   0  0  0  0  0  0
  -24.6199  -15.8374   20.5158 H   0  0  0  0  0  0
  -26.2301  -15.6363   20.0444 H   0  0  0  0  0  0
  -26.7321  -32.5242   23.0968 H   0  0  0  0  0  0
  -25.0097  -33.9575   25.0284 H   0  0  0  0  0  0
  -22.7651  -31.2862   21.3732 H   0  0  0  0  0  0
  -23.3761  -35.9560   23.3284 H   0  0  0  0  0  0
  -24.3582  -36.8891   22.2061 H   0  0  0  0  0  0
  -23.7240  -37.6421   23.6696 H   0  0  0  0  0  0
  -26.1887  -31.4382   20.6226 H   0  0  0  0  0  0
  -26.8866  -30.7369   22.0446 H   0  0  0  0  0  0
  -28.1335  -28.7133   21.2671 H   0  0  0  0  0  0
  -25.8717  -25.8366   18.9664 H   0  0  0  0  0  0
  -23.9850  -27.3139   18.9516 H   0  0  0  0  0  0
  -23.8338  -30.5641   19.3969 H   0  0  0  0  0  0
  -22.8019  -29.2373   19.8344 H   0  0  0  0  0  0
  -25.1318  -36.1824   25.0797 H   0  0  0  0  0  0
  -21.0028  -28.3334   24.1331 H   0  0  0  0  0  0
  -20.5688  -26.2356   23.3626 H   0  0  0  0  0  0
  -21.6661  -26.7429   22.1197 H   0  0  0  0  0  0
  -19.6929  -25.6289   21.1259 H   0  0  0  0  0  0
  -19.6700  -27.3180   20.6728 H   0  0  0  0  0  0
  -17.4218  -26.6684   21.4028 H   0  0  0  0  0  0
  -18.0349  -26.0089   22.9027 H   0  0  0  0  0  0
  -19.7964  -30.7308   24.2218 H   0  0  0  0  0  0
  -17.5037  -31.6272   24.5169 H   0  0  0  0  0  0
  -15.5373  -30.2983   23.7681 H   0  0  0  0  0  0
  -15.8697  -28.0818   22.7090 H   0  0  0  0  0  0
  -24.5902  -30.7102   25.7719 H   0  0  0  0  0  0
  -24.8869  -32.2975   26.4705 H   0  0  0  0  0  0
  -25.7964  -30.9036   27.0242 H   0  0  0  0  0  0
  -26.3052  -29.6641   24.1347 H   0  0  0  0  0  0
  -27.3963  -29.7255   25.4975 H   0  0  0  0  0  0
  -27.8992  -30.4136   23.9743 H   0  0  0  0  0  0
  -27.2650  -33.3666   26.1993 H   0  0  0  0  0  0
  -28.3918  -32.6836   25.0362 H   0  0  0  0  0  0
  -28.0678  -31.8515   26.5492 H   0  0  0  0  0  0
  -28.2577  -38.0082   24.7510 H   0  0  0  0  0  0
  -28.1077  -36.2609   24.6289 H   0  0  0  0  0  0
  -27.2293  -37.1421   25.8870 H   0  0  0  0  0  0
  -20.9513  -29.8770   21.6746 H   0  0  0  0  0  0
  -26.0138  -38.2793   24.1418 H   0  0  0  0  0  0
  -31.1731  -21.0208   21.2771 H   0  0  0  0  0  0
  -30.6080  -23.6412   21.1353 H   0  0  0  0  0  0
  -25.8353  -22.5126   21.0770 H   0  0  0  0  0  0
  -24.8972  -22.2250   19.5223 H   0  0  0  0  0  0
  -25.4320  -19.7767   19.7217 H   0  0  0  0  0  0
  -26.3560  -20.1537   21.2658 H   0  0  0  0  0  0
  -29.1500  -18.4947   22.4605 H   0  0  0  0  0  0
  -27.5195  -18.4441   21.8501 H   0  0  0  0  0  0
  -27.8037  -16.2418   20.9338 H   0  0  0  0  0  0
  -28.8250  -16.1408   22.3582 H   0  0  0  0  0  0
  -28.3155  -18.7833   19.5840 H   0  0  0  0  0  0
  -27.0252  -21.2992   18.3924 H   0  0  0  0  0  0
  -31.0887  -18.0428   20.6862 H   0  0  0  0  0  0
  -29.8727  -17.5337   17.9312 H   0  0  0  0  0  0
  -31.5263  -17.1686   18.4232 H   0  0  0  0  0  0
  -30.9897  -18.8383   18.3225 H   0  0  0  0  0  0
  -26.8622  -24.3860   20.5286 H   0  0  0  0  0  0
  -27.5462  -24.4248   18.9397 H   0  0  0  0  0  0
  1 25  1  0  0  0
  1 30  2  0  0  0
  1 85  1  0  0  0
  2  3  1  0  0  0
  2 25  1  0  0  0
  2 86  1  0  0  0
  2 87  1  0  0  0
  3  4  1  0  0  0
  3 88  1  0  0  0
  3 89  1  0  0  0
  4  5  1  0  0  0
  4 90  1  0  0  0
  4 91  1  0  0  0
  5  6  1  0  0  0
  5 26  1  0  0  0
  5 92  1  0  0  0
  6 25  1  0  0  0
  6 93  1  0  0  0
  6 94  1  0  0  0
  7  8  2  0  0  0
  7 26  1  0  0  0
  7 29  1  0  0  0
  8  9  1  0  0  0
  8 22  1  0  0  0
  9 10  1  0  0  0
  9 27  2  0  0  0
 10 11  2  0  0  0
 10 15  1  0  0  0
 11 12  1  0  0  0
 11 95  1  0  0  0
 12 13  2  0  0  0
 12 96  1  0  0  0
 13 14  1  0  0  0
 13 31  1  0  0  0
 14 15  2  0  0  0
 14 97  1  0  0  0
 15 98  1  0  0  0
 16 17  2  0  0  0
 16 21  1  0  0  0
 16 31  1  0  0  0
 17 18  1  0  0  0
 17 99  1  0  0  0
 18 19  2  0  0  0
 18100  1  0  0  0
 19 20  1  0  0  0
 19 24  1  0  0  0
 20 21  2  0  0  0
 20101  1  0  0  0
 21 23  1  0  0  0
 22 28  1  0  0  0
 22 32  2  0  0  0
 26 27  1  0  0  0
 28102  1  0  0  0
 28103  1  0  0  0
 29104  1  0  0  0
 29105  1  0  0  0
 33 34  1  0  0  0
 33 66  1  0  0  0
 33 70  2  0  0  0
 34 36  1  0  0  0
 34 59  1  0  0  0
 34106  1  0  0  0
 35 44  2  0  0  0
 35 45  1  0  0  0
 35 68  1  0  0  0
 36 56  1  0  0  0
 36107  1  0  0  0
 37 39  1  0  0  0
 37 47  1  0  0  0
 37 66  1  0  0  0
 37108  1  0  0  0
 38 43  2  0  0  0
 38 46  1  0  0  0
 38 47  1  0  0  0
 39 64  1  0  0  0
 39 67  2  0  0  0
 40 52  1  0  0  0
 40 53  2  0  0  0
 40 58  1  0  0  0
 41109  1  0  0  0
 41110  1  0  0  0
 41111  1  0  0  0
 41 48  1  0  0  0
 42 43  1  0  0  0
 42 66  1  0  0  0
 42112  1  0  0  0
 42113  1  0  0  0
 43 44  1  0  0  0
 44114  1  0  0  0
 45 46  2  0  0  0
 45115  1  0  0  0
 46116  1  0  0  0
 47117  1  0  0  0
 47118  1  0  0  0
 48 56  1  0  0  0
 48 65  1  0  0  0
 48119  1  0  0  0
 49 50  1  0  0  0
 49 53  1  0  0  0
 49 64  1  0  0  0
 49120  1  0  0  0
 50 51  1  0  0  0
 50121  1  0  0  0
 50122  1  0  0  0
 51 52  1  0  0  0
 51123  1  0  0  0
 51124  1  0  0  0
 52125  1  0  0  0
 52126  1  0  0  0
 53 54  1  0  0  0
 54 55  2  0  0  0
 54127  1  0  0  0
 55 57  1  0  0  0
 55128  1  0  0  0
 56 69  2  0  0  0
 57 58  2  0  0  0
 57129  1  0  0  0
 58130  1  0  0  0
 59 60  1  0  0  0
 59 61  1  0  0  0
 59 62  1  0  0  0
 60131  1  0  0  0
 60132  1  0  0  0
 60133  1  0  0  0
 61134  1  0  0  0
 61135  1  0  0  0
 61136  1  0  0  0
 62137  1  0  0  0
 62138  1  0  0  0
 62139  1  0  0  0
 63 65  1  0  0  0
 63140  1  0  0  0
 63141  1  0  0  0
 63142  1  0  0  0
 64143  1  0  0  0
 65144  1  0  0  0
 68 83  1  0  0  0
 71 72  1  0  0  0
 71 73  2  0  0  0
 71145  1  0  0  0
 72 74  2  0  0  0
 72146  1  0  0  0
 73 84  1  0  0  0
 73 79  1  0  0  0
 74 83  1  0  0  0
 74 84  1  0  0  0
 75 76  1  0  0  0
 75 80  1  0  0  0
 75147  1  0  0  0
 75148  1  0  0  0
 76 80  1  0  0  0
 76149  1  0  0  0
 76150  1  0  0  0
 77 78  1  0  0  0
 77 79  1  0  0  0
 77151  1  0  0  0
 77152  1  0  0  0
 78 85  1  0  0  0
 78153  1  0  0  0
 78154  1  0  0  0
 79 81  1  0  0  0
 79155  1  0  0  0
 80 84  1  0  0  0
 80156  1  0  0  0
 81 82  1  0  0  0
 81 85  1  0  0  0
 81157  1  0  0  0
 82158  1  0  0  0
 82159  1  0  0  0
 82160  1  0  0  0
 83161  1  0  0  0
 83162  1  0  0  0
M  ISO  4   1 100  68 101  83 101  85 100
M  END
> <chiral flag>
0

> <version>
0

> <s_m_source_file>
/data/baiqing/PycharmProjects/Reinvent-master-3.2/result/LINK_invent/BTK/process_docking_weight1_custom_sum_contain_oxygen_bond_distance_aromatic_linkinvent_7_9_3/rearranged_h_0169.sdf

> <i_m_source_file_index>
14

> <r_mmod_Potential_Energy-OPLS-2005>
966.927185058594

> <r_mmod_Stretch_Energy-OPLS-2005>
332.413177490234

> <r_mmod_Bend_Energy-OPLS-2005>
348.018615722656

> <r_mmod_Torsional_Energy-OPLS-2005>
370.900085449219

> <r_mmod_Improper_Torsional_Energy-OPLS-2005>
8.96417808532715

> <r_mmod_Van_der_Waal_Energy-OPLS-2005>
103.77033996582

> <r_mmod_Electrostatic_Energy-OPLS-2005>
-266.029205322266

> <r_mmod_Solvation_Energy-OPLS-2005>
-197.724060058594

> <b_mmod_Minimization_Converged-OPLS-2005>
0

> <r_mmod_RMS_Derivative-OPLS-2005>
0.698736965656281

$$$$
14
                    3D
 Structure written by MMmdl.
170181  0  0  1  0            999 V2000
  -30.5937  -14.8468   20.4646 C   0  0  0  0  0  0
  -30.4354  -12.5298   19.4879 C   0  0  0  0  0  0
  -29.5125  -12.5325   18.2478 C   0  0  0  0  0  0
  -28.0417  -12.3392   18.6582 C   0  0  0  0  0  0
  -27.6341  -13.2397   19.8558 C   0  0  2  0  0  0
  -28.6799  -13.2357   20.9911 C   0  0  0  0  0  0
  -25.2424  -13.8166   20.5652 C   0  0  0  0  0  0
  -24.1770  -13.0394   20.9291 C   0  0  0  0  0  0
  -24.6403  -11.6910   20.8795 C   0  0  0  0  0  0
  -23.9087  -10.4284   21.0420 C   0  0  0  0  0  0
  -24.3637   -9.4211   21.9211 C   0  0  0  0  0  0
  -23.6315   -8.2245   22.0780 C   0  0  0  0  0  0
  -22.4302   -8.0282   21.3576 C   0  0  0  0  0  0
  -21.9960   -9.0248   20.4648 C   0  0  0  0  0  0
  -22.7269  -10.2129   20.3063 C   0  0  0  0  0  0
  -21.6861   -6.0763   22.5300 C   0  0  0  0  0  0
  -21.4010   -6.5680   23.8220 C   0  0  0  0  0  0
  -21.3645   -5.6803   24.9177 C   0  0  0  0  0  0
  -21.6026   -4.3071   24.7221 C   0  0  0  0  0  0
  -21.8825   -3.8176   23.4353 C   0  0  0  0  0  0
  -21.9230   -4.7003   22.3417 C   0  0  0  0  0  0
  -22.7782  -13.5156   21.1829 C   0  0  0  0  0  0
  -22.1690   -4.2187   21.0991 F   0  0  0  0  0  0
  -21.5621   -3.4547   25.7742 F   0  0  0  0  0  0
  -29.9668  -13.6131   20.3935 N   0  0  0  0  0  0
  -26.2896  -12.9410   20.3356 N   0  0  0  0  0  0
  -25.9328  -11.6540   20.5825 N   0  0  0  0  0  0
  -22.0401  -12.8249   22.0430 N   0  0  0  0  0  0
  -25.3934  -15.1863   20.3855 N   0  0  0  0  0  0
  -31.7937  -14.9035   20.1829 O   0  0  0  0  0  0
  -21.6671   -6.8883   21.4253 O   0  0  0  0  0  0
  -22.3473  -14.5365   20.6498 O   0  0  0  0  0  0
  -24.6338  -31.8507   23.2041 C   0  0  0  0  0  0
  -25.9200  -32.4739   23.8348 C   0  0  1  0  0  0
  -27.2207  -27.2204   20.1567 C   0  0  0  0  0  0
  -25.6035  -33.8537   24.2280 N   0  0  0  0  0  0
  -23.4318  -30.4833   21.5380 C   0  0  2  0  0  0
  -24.8807  -28.9292   20.1057 C   0  0  0  0  0  0
  -22.7512  -29.4628   22.4842 C   0  0  0  0  0  0
  -18.0310  -28.1377   22.8531 C   0  0  0  0  0  0
  -24.1487  -36.7194   23.2639 C   0  0  0  0  0  0
  -25.9752  -30.7646   21.3816 C   0  0  0  0  0  0
  -26.0519  -29.3808   20.7252 C   0  0  0  0  0  0
  -27.2197  -28.5430   20.7340 C   0  0  0  0  0  0
  -26.0223  -26.8556   19.4908 C   0  0  0  0  0  0
  -24.8765  -27.6783   19.4740 C   0  0  0  0  0  0
  -23.6559  -29.8256   20.1489 C   0  0  0  0  0  0
  -25.4114  -36.3021   24.0339 C   0  0  1  0  0  0
  -20.5911  -28.3738   23.1243 C   0  0  2  0  0  0
  -20.6761  -26.9446   22.5421 C   0  0  0  0  0  0
  -19.5712  -26.6398   21.5230 C   0  0  0  0  0  0
  -18.1914  -26.7919   22.1653 C   0  0  0  0  0  0
  -19.1562  -28.8849   23.2900 C   0  0  0  0  0  0
  -18.9485  -30.1444   23.8931 C   0  0  0  0  0  0
  -17.6487  -30.6589   24.0564 C   0  0  0  0  0  0
  -25.9083  -34.9428   23.5075 C   0  0  0  0  0  0
  -16.5381  -29.9103   23.6331 C   0  0  0  0  0  0
  -16.7294  -28.6500   23.0391 C   0  0  0  0  0  0
  -26.4592  -31.6533   25.0694 C   0  0  0  0  0  0
  -25.3895  -31.3624   26.1453 C   0  0  0  0  0  0
  -27.0410  -30.2964   24.6129 C   0  0  0  0  0  0
  -27.6117  -32.4261   25.7499 C   0  0  0  0  0  0
  -27.5568  -37.1759   24.8466 C   0  0  0  0  0  0
  -21.4212  -29.3072   22.3589 N   0  0  0  0  0  0
  -26.4239  -37.3793   23.9473 N   0  0  0  0  0  0
  -24.6986  -31.0510   22.0980 N   0  0  0  0  0  0
  -23.4194  -28.8247   23.2988 O   0  0  0  0  0  0
  -28.3208  -26.3129   20.2815 O   0  0  0  0  0  0
  -26.5627  -34.8930   22.4621 O   0  0  0  0  0  0
  -23.5487  -32.1306   23.7383 O   0  0  0  0  0  0
  -27.3243  -21.9358   19.2047 C   0  0  0  0  0  0
  -27.7168  -19.5658   18.8050 C   0  0  0  0  0  0
  -26.9760  -20.7470   18.5637 C   0  0  0  0  0  0
  -28.7072  -19.5461   19.8416 C   0  0  0  0  0  0
  -28.3873  -22.0064   20.1126 C   0  0  0  0  0  0
  -28.5132  -17.7663   17.0297 C   0  0  0  0  0  0
  -27.3530  -18.4843   16.4168 C   0  0  0  0  0  0
  -30.2323  -24.6592   22.5441 C   0  0  0  0  0  0
  -30.0680  -23.2245   22.9719 C   0  0  0  0  0  0
  -30.3087  -17.4202   21.2000 C   0  0  0  0  0  0
  -28.7270  -16.6815   20.1137 C   0  0  0  0  0  0
  -27.4421  -18.3625   17.9281 C   0  0  0  0  0  0
  -29.4501  -18.0924   20.0747 C   0  0  0  0  0  0
  -29.9412  -23.5920   21.4992 C   0  0  0  0  0  0
  -25.7948  -20.8036   17.6022 C   0  0  0  0  0  0
  -28.3220  -24.8438   19.8492 C   0  0  0  0  0  0
  -28.5994  -23.4876   20.7754 C   0  0  1  0  0  0
  -29.0367  -20.7868   20.4535 N   0  0  0  0  0  0
  -29.8856  -16.0264   20.7782 N   0  0  0  0  0  0
  -31.4714  -12.6750   19.1702 H   0  0  0  0  0  0
  -30.4101  -11.5608   19.9912 H   0  0  0  0  0  0
  -29.8158  -11.7640   17.5343 H   0  0  0  0  0  0
  -29.6115  -13.4879   17.7326 H   0  0  0  0  0  0
  -27.8913  -11.2893   18.9037 H   0  0  0  0  0  0
  -27.3915  -12.5397   17.8055 H   0  0  0  0  0  0
  -27.6037  -14.2530   19.4625 H   0  0  0  0  0  0
  -28.7391  -12.2585   21.4713 H   0  0  0  0  0  0
  -28.3920  -13.9423   21.7723 H   0  0  0  0  0  0
  -25.2765   -9.5706   22.4798 H   0  0  0  0  0  0
  -24.0034   -7.4636   22.7513 H   0  0  0  0  0  0
  -21.0913   -8.8745   19.8931 H   0  0  0  0  0  0
  -22.3716  -10.9663   19.6180 H   0  0  0  0  0  0
  -21.1958   -7.6178   23.9740 H   0  0  0  0  0  0
  -21.1466   -6.0530   25.9079 H   0  0  0  0  0  0
  -22.0622   -2.7662   23.2834 H   0  0  0  0  0  0
  -22.4023  -11.9994   22.4939 H   0  0  0  0  0  0
  -21.0899  -13.1111   22.2351 H   0  0  0  0  0  0
  -24.5901  -15.8034   20.4252 H   0  0  0  0  0  0
  -26.1997  -15.6113   19.9494 H   0  0  0  0  0  0
  -26.7274  -32.5427   23.1083 H   0  0  0  0  0  0
  -25.0348  -33.9683   25.0537 H   0  0  0  0  0  0
  -22.7322  -31.3072   21.4031 H   0  0  0  0  0  0
  -23.3783  -35.9488   23.3284 H   0  0  0  0  0  0
  -24.3592  -36.8803   22.2060 H   0  0  0  0  0  0
  -23.7200  -37.6388   23.6633 H   0  0  0  0  0  0
  -26.1071  -31.5261   20.6120 H   0  0  0  0  0  0
  -26.8461  -30.8187   22.0193 H   0  0  0  0  0  0
  -28.1054  -28.8963   21.2461 H   0  0  0  0  0  0
  -25.9078  -25.9050   19.0019 H   0  0  0  0  0  0
  -23.9822  -27.3293   18.9794 H   0  0  0  0  0  0
  -23.8109  -30.6062   19.4033 H   0  0  0  0  0  0
  -22.7644  -29.2836   19.8247 H   0  0  0  0  0  0
  -25.1289  -36.1827   25.0834 H   0  0  0  0  0  0
  -21.0031  -28.3316   24.1346 H   0  0  0  0  0  0
  -20.5611  -26.2383   23.3671 H   0  0  0  0  0  0
  -21.6647  -26.7418   22.1268 H   0  0  0  0  0  0
  -19.6863  -25.6312   21.1235 H   0  0  0  0  0  0
  -19.6607  -27.3210   20.6762 H   0  0  0  0  0  0
  -17.4217  -26.6757   21.4025 H   0  0  0  0  0  0
  -18.0298  -25.9993   22.8972 H   0  0  0  0  0  0
  -19.7966  -30.7252   24.2318 H   0  0  0  0  0  0
  -17.5065  -31.6279   24.5148 H   0  0  0  0  0  0
  -15.5389  -30.3037   23.7594 H   0  0  0  0  0  0
  -15.8709  -28.0827   22.7088 H   0  0  0  0  0  0
  -24.6143  -30.6861   25.7863 H   0  0  0  0  0  0
  -24.9018  -32.2757   26.4860 H   0  0  0  0  0  0
  -25.8343  -30.8915   27.0235 H   0  0  0  0  0  0
  -26.2915  -29.6700   24.1279 H   0  0  0  0  0  0
  -27.4246  -29.7260   25.4602 H   0  0  0  0  0  0
  -27.8781  -30.4244   23.9258 H   0  0  0  0  0  0
  -27.2702  -33.3562   26.2075 H   0  0  0  0  0  0
  -28.3986  -32.6778   25.0373 H   0  0  0  0  0  0
  -28.0752  -31.8381   26.5444 H   0  0  0  0  0  0
  -28.2531  -38.0109   24.7624 H   0  0  0  0  0  0
  -28.1096  -36.2657   24.6106 H   0  0  0  0  0  0
  -27.2321  -37.1203   25.8871 H   0  0  0  0  0  0
  -20.9365  -29.8802   21.6824 H   0  0  0  0  0  0
  -26.0055  -38.2815   24.1607 H   0  0  0  0  0  0
  -26.7260  -22.8078   18.9926 H   0  0  0  0  0  0
  -29.4786  -18.2668   16.9770 H   0  0  0  0  0  0
  -28.5375  -16.6907   16.8635 H   0  0  0  0  0  0
  -26.6129  -17.8762   15.8989 H   0  0  0  0  0  0
  -27.6040  -19.4256   15.9373 H   0  0  0  0  0  0
  -31.2445  -25.0601   22.6043 H   0  0  0  0  0  0
  -29.4416  -25.3568   22.8156 H   0  0  0  0  0  0
  -29.1718  -23.0047   23.5501 H   0  0  0  0  0  0
  -30.9590  -22.6824   23.2860 H   0  0  0  0  0  0
  -29.9735  -17.6716   22.2063 H   0  0  0  0  0  0
  -31.3695  -17.6410   21.0805 H   0  0  0  0  0  0
  -28.5018  -16.2666   19.1364 H   0  0  0  0  0  0
  -27.8290  -16.6812   20.7326 H   0  0  0  0  0  0
  -26.7255  -17.6950   18.4059 H   0  0  0  0  0  0
  -30.1079  -18.0581   19.2077 H   0  0  0  0  0  0
  -30.7816  -23.3647   20.8506 H   0  0  0  0  0  0
  -25.0670  -21.5533   17.9114 H   0  0  0  0  0  0
  -25.2564  -19.8599   17.5435 H   0  0  0  0  0  0
  -26.1328  -21.0638   16.5994 H   0  0  0  0  0  0
  -27.4329  -24.6696   19.2710 H   0  0  0  0  0  0
  -29.1046  -24.8194   19.0922 H   0  0  0  0  0  0
  -27.8230  -23.5268   21.5409 H   0  0  0  0  0  0
  1 25  1  0  0  0
  1 30  2  0  0  0
  1 89  1  0  0  0
  2  3  1  0  0  0
  2 25  1  0  0  0
  2 90  1  0  0  0
  2 91  1  0  0  0
  3  4  1  0  0  0
  3 92  1  0  0  0
  3 93  1  0  0  0
  4  5  1  0  0  0
  4 94  1  0  0  0
  4 95  1  0  0  0
  5  6  1  0  0  0
  5 26  1  0  0  0
  5 96  1  0  0  0
  6 25  1  0  0  0
  6 97  1  0  0  0
  6 98  1  0  0  0
  7  8  2  0  0  0
  7 26  1  0  0  0
  7 29  1  0  0  0
  8  9  1  0  0  0
  8 22  1  0  0  0
  9 10  1  0  0  0
  9 27  2  0  0  0
 10 11  2  0  0  0
 10 15  1  0  0  0
 11 12  1  0  0  0
 11 99  1  0  0  0
 12 13  2  0  0  0
 12100  1  0  0  0
 13 14  1  0  0  0
 13 31  1  0  0  0
 14 15  2  0  0  0
 14101  1  0  0  0
 15102  1  0  0  0
 16 17  2  0  0  0
 16 21  1  0  0  0
 16 31  1  0  0  0
 17 18  1  0  0  0
 17103  1  0  0  0
 18 19  2  0  0  0
 18104  1  0  0  0
 19 20  1  0  0  0
 19 24  1  0  0  0
 20 21  2  0  0  0
 20105  1  0  0  0
 21 23  1  0  0  0
 22 28  1  0  0  0
 22 32  2  0  0  0
 26 27  1  0  0  0
 28106  1  0  0  0
 28107  1  0  0  0
 29108  1  0  0  0
 29109  1  0  0  0
 33 34  1  0  0  0
 33 66  1  0  0  0
 33 70  2  0  0  0
 34 36  1  0  0  0
 34 59  1  0  0  0
 34110  1  0  0  0
 35 44  2  0  0  0
 35 45  1  0  0  0
 35 68  1  0  0  0
 36 56  1  0  0  0
 36111  1  0  0  0
 37 39  1  0  0  0
 37 47  1  0  0  0
 37 66  1  0  0  0
 37112  1  0  0  0
 38 43  2  0  0  0
 38 46  1  0  0  0
 38 47  1  0  0  0
 39 64  1  0  0  0
 39 67  2  0  0  0
 40 52  1  0  0  0
 40 53  2  0  0  0
 40 58  1  0  0  0
 41113  1  0  0  0
 41114  1  0  0  0
 41115  1  0  0  0
 41 48  1  0  0  0
 42 43  1  0  0  0
 42 66  1  0  0  0
 42116  1  0  0  0
 42117  1  0  0  0
 43 44  1  0  0  0
 44118  1  0  0  0
 45 46  2  0  0  0
 45119  1  0  0  0
 46120  1  0  0  0
 47121  1  0  0  0
 47122  1  0  0  0
 48 56  1  0  0  0
 48 65  1  0  0  0
 48123  1  0  0  0
 49 50  1  0  0  0
 49 53  1  0  0  0
 49 64  1  0  0  0
 49124  1  0  0  0
 50 51  1  0  0  0
 50125  1  0  0  0
 50126  1  0  0  0
 51 52  1  0  0  0
 51127  1  0  0  0
 51128  1  0  0  0
 52129  1  0  0  0
 52130  1  0  0  0
 53 54  1  0  0  0
 54 55  2  0  0  0
 54131  1  0  0  0
 55 57  1  0  0  0
 55132  1  0  0  0
 56 69  2  0  0  0
 57 58  2  0  0  0
 57133  1  0  0  0
 58134  1  0  0  0
 59 60  1  0  0  0
 59 61  1  0  0  0
 59 62  1  0  0  0
 60135  1  0  0  0
 60136  1  0  0  0
 60137  1  0  0  0
 61138  1  0  0  0
 61139  1  0  0  0
 61140  1  0  0  0
 62141  1  0  0  0
 62142  1  0  0  0
 62143  1  0  0  0
 63 65  1  0  0  0
 63144  1  0  0  0
 63145  1  0  0  0
 63146  1  0  0  0
 64147  1  0  0  0
 65148  1  0  0  0
 68 86  1  0  0  0
 71 73  2  0  0  0
 71 75  1  0  0  0
 71149  1  0  0  0
 72 73  1  0  0  0
 72 74  2  0  0  0
 72 82  1  0  0  0
 73 85  1  0  0  0
 74 88  1  0  0  0
 74 83  1  0  0  0
 75 87  1  0  0  0
 75 88  2  0  0  0
 76 77  1  0  0  0
 76 82  1  0  0  0
 76150  1  0  0  0
 76151  1  0  0  0
 77 82  1  0  0  0
 77152  1  0  0  0
 77153  1  0  0  0
 78 79  1  0  0  0
 78154  1  0  0  0
 78155  1  0  0  0
 78 84  1  0  0  0
 79 84  1  0  0  0
 79156  1  0  0  0
 79157  1  0  0  0
 80 83  1  0  0  0
 80 89  1  0  0  0
 80158  1  0  0  0
 80159  1  0  0  0
 81 83  1  0  0  0
 81 89  1  0  0  0
 81160  1  0  0  0
 81161  1  0  0  0
 82162  1  0  0  0
 83163  1  0  0  0
 84 87  1  0  0  0
 84164  1  0  0  0
 85165  1  0  0  0
 85166  1  0  0  0
 85167  1  0  0  0
 86168  1  0  0  0
 86169  1  0  0  0
 86 87  1  0  0  0
 87170  1  0  0  0
M  ISO  4   1 100  68 101  86 101  89 100
M  END
> <chiral flag>
0

> <version>
0

> <s_m_source_file>
/data/baiqing/PycharmProjects/Reinvent-master-3.2/result/LINK_invent/BTK/process_docking_weight1_custom_sum_contain_oxygen_bond_distance_aromatic_linkinvent_7_9_3/rearranged_h_0169.sdf

> <i_m_source_file_index>
15

> <r_mmod_Potential_Energy-OPLS-2005>
481.210845947266

> <r_mmod_Stretch_Energy-OPLS-2005>
197.517532348633

> <r_mmod_Bend_Energy-OPLS-2005>
273.105987548828

> <r_mmod_Torsional_Energy-OPLS-2005>
348.819396972656

> <r_mmod_Improper_Torsional_Energy-OPLS-2005>
7.9755711555481

> <r_mmod_Van_der_Waal_Energy-OPLS-2005>
142.781753540039

> <r_mmod_Electrostatic_Energy-OPLS-2005>
-392.422729492188

> <r_mmod_Solvation_Energy-OPLS-2005>
-222.387191772461

> <b_mmod_Minimization_Converged-OPLS-2005>
0

> <r_mmod_RMS_Derivative-OPLS-2005>
6.60108041763306

$$$$
15
                    3D
 Structure written by MMmdl.
158167  0  0  1  0            999 V2000
  -30.6968  -14.5540   20.5315 C   0  0  0  0  0  0
  -30.4301  -12.3580   19.4183 C   0  0  0  0  0  0
  -29.4890  -12.4598   18.2009 C   0  0  0  0  0  0
  -28.0198  -12.3050   18.6351 C   0  0  0  0  0  0
  -27.6534  -13.1925   19.8523 C   0  0  2  0  0  0
  -28.7035  -13.0593   20.9782 C   0  0  0  0  0  0
  -25.2608  -13.8102   20.5690 C   0  0  0  0  0  0
  -24.1868  -13.0412   20.9193 C   0  0  0  0  0  0
  -24.6394  -11.6868   20.8751 C   0  0  0  0  0  0
  -23.9047  -10.4284   21.0422 C   0  0  0  0  0  0
  -24.3612   -9.4200   21.9190 C   0  0  0  0  0  0
  -23.6294   -8.2240   22.0755 C   0  0  0  0  0  0
  -22.4276   -8.0274   21.3553 C   0  0  0  0  0  0
  -21.9910   -9.0249   20.4651 C   0  0  0  0  0  0
  -22.7229  -10.2123   20.3067 C   0  0  0  0  0  0
  -21.6845   -6.0724   22.5267 C   0  0  0  0  0  0
  -21.3999   -6.5633   23.8201 C   0  0  0  0  0  0
  -21.3636   -5.6800   24.9178 C   0  0  0  0  0  0
  -21.6044   -4.3062   24.7236 C   0  0  0  0  0  0
  -21.8837   -3.8146   23.4367 C   0  0  0  0  0  0
  -21.9211   -4.6957   22.3417 C   0  0  0  0  0  0
  -22.7893  -13.5229   21.1845 C   0  0  0  0  0  0
  -22.1679   -4.2138   21.0996 F   0  0  0  0  0  0
  -21.5626   -3.4555   25.7755 F   0  0  0  0  0  0
  -30.0173  -13.3775   20.4035 N   0  0  0  0  0  0
  -26.3001  -12.9249   20.3300 N   0  0  0  0  0  0
  -25.9318  -11.6424   20.5791 N   0  0  0  0  0  0
  -22.0533  -12.8242   22.0385 N   0  0  0  0  0  0
  -25.4304  -15.1844   20.4103 N   0  0  0  0  0  0
  -31.8474  -14.6770   20.1001 O   0  0  0  0  0  0
  -21.6638   -6.8876   21.4237 O   0  0  0  0  0  0
  -22.3592  -14.5537   20.6687 O   0  0  0  0  0  0
  -24.6238  -31.8564   23.2030 C   0  0  0  0  0  0
  -25.9106  -32.4730   23.8340 C   0  0  1  0  0  0
  -27.2316  -27.3898   20.1253 C   0  0  0  0  0  0
  -25.5917  -33.8526   24.2208 N   0  0  0  0  0  0
  -23.4107  -30.4815   21.5429 C   0  0  2  0  0  0
  -24.8591  -28.9414   20.1081 C   0  0  0  0  0  0
  -22.7410  -29.4614   22.4938 C   0  0  0  0  0  0
  -18.0233  -28.1375   22.8436 C   0  0  0  0  0  0
  -24.1467  -36.7324   23.2635 C   0  0  0  0  0  0
  -25.9416  -30.8224   21.3504 C   0  0  0  0  0  0
  -26.0228  -29.4525   20.6993 C   0  0  0  0  0  0
  -27.2173  -28.6885   20.6918 C   0  0  0  0  0  0
  -26.0540  -26.9024   19.5242 C   0  0  0  0  0  0
  -24.8710  -27.6682   19.5113 C   0  0  0  0  0  0
  -23.6223  -29.8131   20.1553 C   0  0  0  0  0  0
  -25.4087  -36.3011   24.0284 C   0  0  1  0  0  0
  -20.5825  -28.3687   23.1255 C   0  0  2  0  0  0
  -20.6721  -26.9414   22.5393 C   0  0  0  0  0  0
  -19.5715  -26.6390   21.5169 C   0  0  0  0  0  0
  -18.1874  -26.7922   22.1563 C   0  0  0  0  0  0
  -19.1493  -28.8843   23.2815 C   0  0  0  0  0  0
  -18.9436  -30.1433   23.8862 C   0  0  0  0  0  0
  -17.6450  -30.6573   24.0570 C   0  0  0  0  0  0
  -25.9038  -34.9398   23.5027 C   0  0  0  0  0  0
  -16.5327  -29.9094   23.6342 C   0  0  0  0  0  0
  -16.7229  -28.6508   23.0349 C   0  0  0  0  0  0
  -26.4555  -31.6563   25.0712 C   0  0  0  0  0  0
  -25.3811  -31.3633   26.1427 C   0  0  0  0  0  0
  -27.0478  -30.3002   24.6167 C   0  0  0  0  0  0
  -27.6037  -32.4411   25.7527 C   0  0  0  0  0  0
  -27.5533  -37.1773   24.8432 C   0  0  0  0  0  0
  -21.4129  -29.3052   22.3683 N   0  0  0  0  0  0
  -26.4225  -37.3746   23.9410 N   0  0  0  0  0  0
  -24.6779  -31.0661   22.0930 N   0  0  0  0  0  0
  -23.4152  -28.8120   23.2979 O   0  0  0  0  0  0
  -28.3769  -26.6100   20.1446 O   0  0  0  0  0  0
  -26.5650  -34.8884   22.4606 O   0  0  0  0  0  0
  -23.5419  -32.1365   23.7365 O   0  0  0  0  0  0
  -28.2977  -20.1957   17.9018 C   0  0  0  0  0  0
  -28.5822  -19.0492   18.6607 C   0  0  0  0  0  0
  -28.2861  -21.4519   18.5381 C   0  0  0  0  0  0
  -28.8504  -19.1817   20.0372 C   0  0  0  0  0  0
  -28.5448  -21.5274   19.9205 C   0  0  0  0  0  0
  -30.5752  -17.9697   21.5203 C   0  0  0  0  0  0
  -30.7918  -16.5243   21.9976 C   0  0  0  0  0  0
  -29.1886  -16.5241   20.2769 C   0  0  0  0  0  0
  -29.1858  -17.9458   20.9194 C   0  0  2  0  0  0
  -28.3527  -24.0587   19.9190 C   0  0  0  0  0  0
  -28.2928  -25.3310   20.8356 C   0  0  0  0  0  0
  -28.8145  -20.4075   20.6456 N   0  0  0  0  0  0
  -30.0510  -15.6248   21.0937 N   0  0  0  0  0  0
  -28.5444  -22.7626   20.6120 N   0  0  0  0  0  0
  -31.4641  -12.4830   19.0938 H   0  0  0  0  0  0
  -30.3770  -11.3646   19.8641 H   0  0  0  0  0  0
  -29.7386  -11.6836   17.4758 H   0  0  0  0  0  0
  -29.6310  -13.4122   17.6915 H   0  0  0  0  0  0
  -27.8675  -11.2557   18.8874 H   0  0  0  0  0  0
  -27.3519  -12.5141   17.7987 H   0  0  0  0  0  0
  -27.6680  -14.2115   19.4775 H   0  0  0  0  0  0
  -28.7177  -12.0428   21.3773 H   0  0  0  0  0  0
  -28.4609  -13.7115   21.8187 H   0  0  0  0  0  0
  -25.2761   -9.5681   22.4760 H   0  0  0  0  0  0
  -23.9999   -7.4640   22.7499 H   0  0  0  0  0  0
  -21.0833   -8.8780   19.8981 H   0  0  0  0  0  0
  -22.3689  -10.9675   19.6181 H   0  0  0  0  0  0
  -21.1965   -7.6141   23.9690 H   0  0  0  0  0  0
  -21.1422   -6.0534   25.9068 H   0  0  0  0  0  0
  -22.0639   -2.7607   23.2886 H   0  0  0  0  0  0
  -22.4170  -11.9922   22.4797 H   0  0  0  0  0  0
  -21.1150  -13.1264   22.2592 H   0  0  0  0  0  0
  -24.6633  -15.8358   20.5395 H   0  0  0  0  0  0
  -26.2822  -15.6289   20.0947 H   0  0  0  0  0  0
  -26.7212  -32.5422   23.1135 H   0  0  0  0  0  0
  -25.0022  -33.9681   25.0311 H   0  0  0  0  0  0
  -22.7016  -31.2968   21.3953 H   0  0  0  0  0  0
  -23.3665  -35.9711   23.3266 H   0  0  0  0  0  0
  -24.3554  -36.9058   22.2061 H   0  0  0  0  0  0
  -23.7330  -37.6526   23.6780 H   0  0  0  0  0  0
  -26.0412  -31.5836   20.5728 H   0  0  0  0  0  0
  -26.8306  -30.8895   21.9652 H   0  0  0  0  0  0
  -28.1196  -29.0759   21.1426 H   0  0  0  0  0  0
  -26.0506  -25.9214   19.0715 H   0  0  0  0  0  0
  -23.9765  -27.2703   19.0492 H   0  0  0  0  0  0
  -23.7363  -30.5871   19.3953 H   0  0  0  0  0  0
  -22.7447  -29.2343   19.8607 H   0  0  0  0  0  0
  -25.1271  -36.1785   25.0787 H   0  0  0  0  0  0
  -20.9886  -28.3281   24.1381 H   0  0  0  0  0  0
  -20.5588  -26.2304   23.3596 H   0  0  0  0  0  0
  -21.6604  -26.7425   22.1219 H   0  0  0  0  0  0
  -19.6897  -25.6285   21.1243 H   0  0  0  0  0  0
  -19.6661  -27.3145   20.6646 H   0  0  0  0  0  0
  -17.4143  -26.6609   21.3964 H   0  0  0  0  0  0
  -18.0287  -26.0059   22.8965 H   0  0  0  0  0  0
  -19.7918  -30.7225   24.2263 H   0  0  0  0  0  0
  -17.5023  -31.6253   24.5176 H   0  0  0  0  0  0
  -15.5341  -30.3007   23.7724 H   0  0  0  0  0  0
  -15.8582  -28.0865   22.7111 H   0  0  0  0  0  0
  -24.5944  -30.7058   25.7718 H   0  0  0  0  0  0
  -24.9055  -32.2779   26.4986 H   0  0  0  0  0  0
  -25.8163  -30.8692   27.0115 H   0  0  0  0  0  0
  -26.3041  -29.6589   24.1420 H   0  0  0  0  0  0
  -27.4447  -29.7418   25.4655 H   0  0  0  0  0  0
  -27.8768  -30.4284   23.9196 H   0  0  0  0  0  0
  -27.2531  -33.3681   26.2089 H   0  0  0  0  0  0
  -28.3880  -32.7078   25.0430 H   0  0  0  0  0  0
  -28.0709  -31.8604   26.5490 H   0  0  0  0  0  0
  -28.2458  -38.0145   24.7562 H   0  0  0  0  0  0
  -28.1126  -36.2682   24.6165 H   0  0  0  0  0  0
  -27.2268  -37.1328   25.8831 H   0  0  0  0  0  0
  -20.9291  -29.8844   21.6958 H   0  0  0  0  0  0
  -26.0045  -38.2768   24.1525 H   0  0  0  0  0  0
  -28.0870  -20.1016   16.8457 H   0  0  0  0  0  0
  -28.5771  -18.0881   18.1668 H   0  0  0  0  0  0
  -28.0747  -22.3283   17.9436 H   0  0  0  0  0  0
  -31.2950  -18.2182   20.7373 H   0  0  0  0  0  0
  -30.6743  -18.7073   22.3165 H   0  0  0  0  0  0
  -30.3854  -16.4025   23.0032 H   0  0  0  0  0  0
  -31.8599  -16.3057   22.0552 H   0  0  0  0  0  0
  -29.6113  -16.5565   19.2708 H   0  0  0  0  0  0
  -28.1683  -16.1622   20.1942 H   0  0  0  0  0  0
  -28.4649  -17.9291   21.7379 H   0  0  0  0  0  0
  -29.1708  -24.1741   19.2056 H   0  0  0  0  0  0
  -27.4269  -24.0173   19.3447 H   0  0  0  0  0  0
  -29.1391  -25.3048   21.5256 H   0  0  0  0  0  0
  -27.4014  -25.2954   21.4663 H   0  0  0  0  0  0
  -28.8569  -22.7729   21.5771 H   0  0  0  0  0  0
  1 25  1  0  0  0
  1 30  2  0  0  0
  1 83  1  0  0  0
  2  3  1  0  0  0
  2 25  1  0  0  0
  2 85  1  0  0  0
  2 86  1  0  0  0
  3  4  1  0  0  0
  3 87  1  0  0  0
  3 88  1  0  0  0
  4  5  1  0  0  0
  4 89  1  0  0  0
  4 90  1  0  0  0
  5  6  1  0  0  0
  5 26  1  0  0  0
  5 91  1  0  0  0
  6 25  1  0  0  0
  6 92  1  0  0  0
  6 93  1  0  0  0
  7  8  2  0  0  0
  7 26  1  0  0  0
  7 29  1  0  0  0
  8  9  1  0  0  0
  8 22  1  0  0  0
  9 10  1  0  0  0
  9 27  2  0  0  0
 10 11  2  0  0  0
 10 15  1  0  0  0
 11 12  1  0  0  0
 11 94  1  0  0  0
 12 13  2  0  0  0
 12 95  1  0  0  0
 13 14  1  0  0  0
 13 31  1  0  0  0
 14 15  2  0  0  0
 14 96  1  0  0  0
 15 97  1  0  0  0
 16 17  2  0  0  0
 16 21  1  0  0  0
 16 31  1  0  0  0
 17 18  1  0  0  0
 17 98  1  0  0  0
 18 19  2  0  0  0
 18 99  1  0  0  0
 19 20  1  0  0  0
 19 24  1  0  0  0
 20 21  2  0  0  0
 20100  1  0  0  0
 21 23  1  0  0  0
 22 28  1  0  0  0
 22 32  2  0  0  0
 26 27  1  0  0  0
 28101  1  0  0  0
 28102  1  0  0  0
 29103  1  0  0  0
 29104  1  0  0  0
 33 34  1  0  0  0
 33 66  1  0  0  0
 33 70  2  0  0  0
 34 36  1  0  0  0
 34 59  1  0  0  0
 34105  1  0  0  0
 35 44  2  0  0  0
 35 45  1  0  0  0
 35 68  1  0  0  0
 36 56  1  0  0  0
 36106  1  0  0  0
 37 39  1  0  0  0
 37 47  1  0  0  0
 37 66  1  0  0  0
 37107  1  0  0  0
 38 43  2  0  0  0
 38 46  1  0  0  0
 38 47  1  0  0  0
 39 64  1  0  0  0
 39 67  2  0  0  0
 40 52  1  0  0  0
 40 53  2  0  0  0
 40 58  1  0  0  0
 41108  1  0  0  0
 41109  1  0  0  0
 41110  1  0  0  0
 41 48  1  0  0  0
 42 43  1  0  0  0
 42 66  1  0  0  0
 42111  1  0  0  0
 42112  1  0  0  0
 43 44  1  0  0  0
 44113  1  0  0  0
 45 46  2  0  0  0
 45114  1  0  0  0
 46115  1  0  0  0
 47116  1  0  0  0
 47117  1  0  0  0
 48 56  1  0  0  0
 48 65  1  0  0  0
 48118  1  0  0  0
 49 50  1  0  0  0
 49 53  1  0  0  0
 49 64  1  0  0  0
 49119  1  0  0  0
 50 51  1  0  0  0
 50120  1  0  0  0
 50121  1  0  0  0
 51 52  1  0  0  0
 51122  1  0  0  0
 51123  1  0  0  0
 52124  1  0  0  0
 52125  1  0  0  0
 53 54  1  0  0  0
 54 55  2  0  0  0
 54126  1  0  0  0
 55 57  1  0  0  0
 55127  1  0  0  0
 56 69  2  0  0  0
 57 58  2  0  0  0
 57128  1  0  0  0
 58129  1  0  0  0
 59 60  1  0  0  0
 59 61  1  0  0  0
 59 62  1  0  0  0
 60130  1  0  0  0
 60131  1  0  0  0
 60132  1  0  0  0
 61133  1  0  0  0
 61134  1  0  0  0
 61135  1  0  0  0
 62136  1  0  0  0
 62137  1  0  0  0
 62138  1  0  0  0
 63 65  1  0  0  0
 63139  1  0  0  0
 63140  1  0  0  0
 63141  1  0  0  0
 64142  1  0  0  0
 65143  1  0  0  0
 68 81  1  0  0  0
 71 72  2  0  0  0
 71 73  1  0  0  0
 71144  1  0  0  0
 72 74  1  0  0  0
 72145  1  0  0  0
 73 75  2  0  0  0
 73146  1  0  0  0
 74 82  2  0  0  0
 74 79  1  0  0  0
 75 82  1  0  0  0
 75 84  1  0  0  0
 76 77  1  0  0  0
 76 79  1  0  0  0
 76147  1  0  0  0
 76148  1  0  0  0
 77 83  1  0  0  0
 77149  1  0  0  0
 77150  1  0  0  0
 78 79  1  0  0  0
 78 83  1  0  0  0
 78151  1  0  0  0
 78152  1  0  0  0
 79153  1  0  0  0
 80 81  1  0  0  0
 80 84  1  0  0  0
 80154  1  0  0  0
 80155  1  0  0  0
 81156  1  0  0  0
 81157  1  0  0  0
 84158  1  0  0  0
M  ISO  4   1 100  68 101  81 101  83 100
M  END
> <chiral flag>
0

> <version>
0

> <s_m_source_file>
/data/baiqing/PycharmProjects/Reinvent-master-3.2/result/LINK_invent/BTK/process_docking_weight1_custom_sum_contain_oxygen_bond_distance_aromatic_linkinvent_7_9_3/rearranged_h_0169.sdf

> <i_m_source_file_index>
16

> <r_mmod_Potential_Energy-OPLS-2005>
-47.4179992675781

> <r_mmod_Stretch_Energy-OPLS-2005>
52.6246566772461

> <r_mmod_Bend_Energy-OPLS-2005>
146.354904174805

> <r_mmod_Torsional_Energy-OPLS-2005>
321.922515869141

> <r_mmod_Improper_Torsional_Energy-OPLS-2005>
6.61674404144287

> <r_mmod_Van_der_Waal_Energy-OPLS-2005>
146.015380859375

> <r_mmod_Electrostatic_Energy-OPLS-2005>
-523.555419921875

> <r_mmod_Solvation_Energy-OPLS-2005>
-224.129028320312

> <b_mmod_Minimization_Converged-OPLS-2005>
0

> <r_mmod_RMS_Derivative-OPLS-2005>
4.96964263916016

$$$$
16
                    3D
 Structure written by MMmdl.
162173  0  0  1  0            999 V2000
  -30.3516  -15.6461   20.3537 C   0  0  0  0  0  0
  -30.3989  -13.1006   19.5305 C   0  0  0  0  0  0
  -29.5350  -12.6597   18.3183 C   0  0  0  0  0  0
  -28.1109  -12.3050   18.7672 C   0  0  0  0  0  0
  -27.5875  -13.3132   19.8138 C   0  0  2  0  0  0
  -28.6022  -13.6775   20.9228 C   0  0  0  0  0  0
  -25.2307  -13.8301   20.5856 C   0  0  0  0  0  0
  -24.1694  -13.0442   20.9267 C   0  0  0  0  0  0
  -24.6417  -11.6957   20.8768 C   0  0  0  0  0  0
  -23.9141  -10.4303   21.0398 C   0  0  0  0  0  0
  -24.3697   -9.4212   21.9153 C   0  0  0  0  0  0
  -23.6351   -8.2258   22.0733 C   0  0  0  0  0  0
  -22.4316   -8.0309   21.3556 C   0  0  0  0  0  0
  -21.9944   -9.0300   20.4674 C   0  0  0  0  0  0
  -22.7299  -10.2161   20.3069 C   0  0  0  0  0  0
  -21.6870   -6.0758   22.5284 C   0  0  0  0  0  0
  -21.4021   -6.5655   23.8223 C   0  0  0  0  0  0
  -21.3659   -5.6799   24.9180 C   0  0  0  0  0  0
  -21.6051   -4.3063   24.7236 C   0  0  0  0  0  0
  -21.8809   -3.8158   23.4348 C   0  0  0  0  0  0
  -21.9194   -4.6984   22.3407 C   0  0  0  0  0  0
  -22.7713  -13.5159   21.1926 C   0  0  0  0  0  0
  -22.1655   -4.2165   21.0986 F   0  0  0  0  0  0
  -21.5640   -3.4551   25.7749 F   0  0  0  0  0  0
  -29.7605  -14.3071   20.2459 N   0  0  0  0  0  0
  -26.2746  -12.9641   20.3294 N   0  0  0  0  0  0
  -25.9366  -11.6700   20.5724 N   0  0  0  0  0  0
  -22.0388  -12.8124   22.0480 N   0  0  0  0  0  0
  -25.3949  -15.2049   20.4452 N   0  0  0  0  0  0
  -31.5784  -15.4850   20.1934 O   0  0  0  0  0  0
  -21.6659   -6.8916   21.4254 O   0  0  0  0  0  0
  -22.3383  -14.5465   20.6763 O   0  0  0  0  0  0
  -24.6860  -31.7953   23.1478 C   0  0  0  0  0  0
  -25.9424  -32.4445   23.8032 C   0  0  1  0  0  0
  -27.2163  -26.6635   20.2107 C   0  0  0  0  0  0
  -25.5968  -33.8273   24.1908 N   0  0  0  0  0  0
  -23.5126  -30.3957   21.5043 C   0  0  2  0  0  0
  -24.9673  -28.7293   20.1158 C   0  0  0  0  0  0
  -22.7771  -29.4294   22.4715 C   0  0  0  0  0  0
  -18.0335  -28.1418   22.8454 C   0  0  0  0  0  0
  -24.1502  -36.7170   23.2656 C   0  0  0  0  0  0
  -26.0945  -30.5133   21.4177 C   0  0  0  0  0  0
  -26.1567  -29.0746   20.7679 C   0  0  0  0  0  0
  -27.2636  -28.0702   20.7832 C   0  0  0  0  0  0
  -25.9955  -26.5365   19.4990 C   0  0  0  0  0  0
  -24.9279  -27.4870   19.4583 C   0  0  0  0  0  0
  -23.7645  -29.6890   20.1402 C   0  0  0  0  0  0
  -25.4152  -36.2897   24.0276 C   0  0  1  0  0  0
  -20.5974  -28.3780   23.1141 C   0  0  2  0  0  0
  -20.6804  -26.9437   22.5413 C   0  0  0  0  0  0
  -19.5786  -26.6367   21.5221 C   0  0  0  0  0  0
  -18.1964  -26.7943   22.1622 C   0  0  0  0  0  0
  -19.1603  -28.8922   23.2771 C   0  0  0  0  0  0
  -18.9510  -30.1504   23.8819 C   0  0  0  0  0  0
  -17.6500  -30.6600   24.0546 C   0  0  0  0  0  0
  -25.9130  -34.9276   23.4947 C   0  0  0  0  0  0
  -16.5386  -29.9082   23.6347 C   0  0  0  0  0  0
  -16.7313  -28.6504   23.0365 C   0  0  0  0  0  0
  -26.4588  -31.6511   25.0676 C   0  0  0  0  0  0
  -25.3640  -31.3843   26.1288 C   0  0  0  0  0  0
  -27.0522  -30.2845   24.6601 C   0  0  0  0  0  0
  -27.6030  -32.4391   25.7478 C   0  0  0  0  0  0
  -27.5565  -37.1744   24.8454 C   0  0  0  0  0  0
  -21.4418  -29.3014   22.3455 N   0  0  0  0  0  0
  -26.4273  -37.3659   23.9397 N   0  0  0  0  0  0
  -24.7886  -30.9357   22.0755 N   0  0  0  0  0  0
  -23.4204  -28.7896   23.3064 O   0  0  0  0  0  0
  -28.1737  -25.4319   20.2990 O   0  0  0  0  0  0
  -26.5806  -34.8863   22.4588 O   0  0  0  0  0  0
  -23.5870  -32.1039   23.6415 O   0  0  0  0  0  0
  -27.9979  -17.7639   19.1270 C   0  0  0  0  0  0
  -28.7494  -20.1114   19.7904 C   0  0  0  0  0  0
  -28.9867  -18.4442   19.8945 C   0  0  0  0  0  0
  -28.2107  -20.3557   18.5091 C   0  0  0  0  0  0
  -27.0279  -18.4253   18.3528 C   0  0  0  0  0  0
  -28.8737  -20.5371   15.9116 C   0  0  0  0  0  0
  -29.7606  -19.4928   16.5561 C   0  0  0  0  0  0
  -25.0565  -16.1877   16.2113 C   0  0  0  0  0  0
  -26.4493  -16.5502   15.7417 C   0  0  0  0  0  0
  -29.4279  -23.1156   19.7851 C   0  0  0  0  0  0
  -28.7638  -21.9040   20.4347 C   0  0  1  0  0  0
  -29.1998  -20.6264   17.3885 C   0  0  0  0  0  0
  -26.1276  -16.5294   17.2162 C   0  0  0  0  0  0
  -28.0348  -23.6715   20.0628 C   0  0  1  0  0  0
  -27.1226  -19.7196   18.0556 N   0  0  0  0  0  0
  -29.8187  -17.1154   20.5685 N   0  0  0  0  0  0
  -25.9408  -17.8252   17.7648 O   0  0  0  0  0  0
  -31.3948  -13.3402   19.1573 H   0  0  0  0  0  0
  -30.5525  -12.2669   20.2185 H   0  0  0  0  0  0
  -29.9936  -11.8117   17.8090 H   0  0  0  0  0  0
  -29.4963  -13.4724   17.5925 H   0  0  0  0  0  0
  -28.1358  -11.3069   19.2046 H   0  0  0  0  0  0
  -27.4377  -12.2476   17.9108 H   0  0  0  0  0  0
  -27.4414  -14.2276   19.2420 H   0  0  0  0  0  0
  -28.8761  -12.8106   21.5260 H   0  0  0  0  0  0
  -28.1639  -14.4036   21.6094 H   0  0  0  0  0  0
  -25.2847   -9.5690   22.4722 H   0  0  0  0  0  0
  -24.0078   -7.4643   22.7442 H   0  0  0  0  0  0
  -21.0845   -8.8871   19.9018 H   0  0  0  0  0  0
  -22.3729  -10.9743   19.6234 H   0  0  0  0  0  0
  -21.2003   -7.6162   23.9729 H   0  0  0  0  0  0
  -21.1485   -6.0531   25.9084 H   0  0  0  0  0  0
  -22.0580   -2.7627   23.2853 H   0  0  0  0  0  0
  -22.4031  -11.9764   22.4797 H   0  0  0  0  0  0
  -21.0994  -13.1092   22.2711 H   0  0  0  0  0  0
  -24.6327  -15.8551   20.6013 H   0  0  0  0  0  0
  -26.2785  -15.6646   20.2771 H   0  0  0  0  0  0
  -26.7502  -32.4905   23.0731 H   0  0  0  0  0  0
  -24.9916  -33.9310   24.9920 H   0  0  0  0  0  0
  -22.8399  -31.2347   21.3135 H   0  0  0  0  0  0
  -23.3771  -35.9489   23.3259 H   0  0  0  0  0  0
  -24.3566  -36.8900   22.2081 H   0  0  0  0  0  0
  -23.7254  -37.6330   23.6775 H   0  0  0  0  0  0
  -26.3016  -31.2332   20.6247 H   0  0  0  0  0  0
  -26.9451  -30.5818   22.0832 H   0  0  0  0  0  0
  -28.1539  -28.3410   21.3333 H   0  0  0  0  0  0
  -25.8191  -25.5981   18.9944 H   0  0  0  0  0  0
  -24.0291  -27.2143   18.9216 H   0  0  0  0  0  0
  -23.9359  -30.4476   19.3748 H   0  0  0  0  0  0
  -22.8670  -29.1532   19.8236 H   0  0  0  0  0  0
  -25.1366  -36.1656   25.0763 H   0  0  0  0  0  0
  -21.0042  -28.3406   24.1276 H   0  0  0  0  0  0
  -20.5663  -26.2401   23.3677 H   0  0  0  0  0  0
  -21.6664  -26.7372   22.1240 H   0  0  0  0  0  0
  -19.6945  -25.6259   21.1299 H   0  0  0  0  0  0
  -19.6738  -27.3135   20.6721 H   0  0  0  0  0  0
  -17.4237  -26.6672   21.4024 H   0  0  0  0  0  0
  -18.0355  -26.0106   22.9042 H   0  0  0  0  0  0
  -19.7981  -30.7340   24.2157 H   0  0  0  0  0  0
  -17.5048  -31.6281   24.5160 H   0  0  0  0  0  0
  -15.5381  -30.2963   23.7722 H   0  0  0  0  0  0
  -15.8713  -28.0801   22.7125 H   0  0  0  0  0  0
  -24.5845  -30.7176   25.7583 H   0  0  0  0  0  0
  -24.8811  -32.3073   26.4511 H   0  0  0  0  0  0
  -25.7808  -30.9133   27.0204 H   0  0  0  0  0  0
  -26.3252  -29.6467   24.1569 H   0  0  0  0  0  0
  -27.3900  -29.7289   25.5363 H   0  0  0  0  0  0
  -27.9250  -30.3971   24.0167 H   0  0  0  0  0  0
  -27.2562  -33.3766   26.1839 H   0  0  0  0  0  0
  -28.3929  -32.6849   25.0365 H   0  0  0  0  0  0
  -28.0603  -31.8676   26.5567 H   0  0  0  0  0  0
  -28.2553  -38.0068   24.7499 H   0  0  0  0  0  0
  -28.1097  -36.2592   24.6284 H   0  0  0  0  0  0
  -27.2283  -37.1377   25.8858 H   0  0  0  0  0  0
  -20.9729  -29.8653   21.6508 H   0  0  0  0  0  0
  -26.0104  -38.2711   24.1400 H   0  0  0  0  0  0
  -27.9329  -16.6892   19.1906 H   0  0  0  0  0  0
  -27.8800  -20.2193   15.6027 H   0  0  0  0  0  0
  -29.3640  -21.2400   15.2431 H   0  0  0  0  0  0
  -29.3383  -18.4978   16.6715 H   0  0  0  0  0  0
  -30.8197  -19.5185   16.3109 H   0  0  0  0  0  0
  -24.7568  -15.1446   16.1352 H   0  0  0  0  0  0
  -24.2635  -16.9142   16.0461 H   0  0  0  0  0  0
  -26.5855  -17.5220   15.2692 H   0  0  0  0  0  0
  -27.0752  -15.7504   15.3530 H   0  0  0  0  0  0
  -29.6686  -23.1085   18.7288 H   0  0  0  0  0  0
  -30.2362  -23.5452   20.3733 H   0  0  0  0  0  0
  -28.9430  -21.7778   21.5001 H   0  0  0  0  0  0
  -29.9561  -21.3370   17.6937 H   0  0  0  0  0  0
  -26.4914  -15.7443   17.8716 H   0  0  0  0  0  0
  -27.2709  -23.5802   19.2940 H   0  0  0  0  0  0
  -30.5436  -17.5197   21.1433 H   0  0  0  0  0  0
  1 25  1  0  0  0
  1 30  2  0  0  0
  1 86  1  0  0  0
  2  3  1  0  0  0
  2 25  1  0  0  0
  2 88  1  0  0  0
  2 89  1  0  0  0
  3  4  1  0  0  0
  3 90  1  0  0  0
  3 91  1  0  0  0
  4  5  1  0  0  0
  4 92  1  0  0  0
  4 93  1  0  0  0
  5  6  1  0  0  0
  5 26  1  0  0  0
  5 94  1  0  0  0
  6 25  1  0  0  0
  6 95  1  0  0  0
  6 96  1  0  0  0
  7  8  2  0  0  0
  7 26  1  0  0  0
  7 29  1  0  0  0
  8  9  1  0  0  0
  8 22  1  0  0  0
  9 10  1  0  0  0
  9 27  2  0  0  0
 10 11  2  0  0  0
 10 15  1  0  0  0
 11 12  1  0  0  0
 11 97  1  0  0  0
 12 13  2  0  0  0
 12 98  1  0  0  0
 13 14  1  0  0  0
 13 31  1  0  0  0
 14 15  2  0  0  0
 14 99  1  0  0  0
 15100  1  0  0  0
 16 17  2  0  0  0
 16 21  1  0  0  0
 16 31  1  0  0  0
 17 18  1  0  0  0
 17101  1  0  0  0
 18 19  2  0  0  0
 18102  1  0  0  0
 19 20  1  0  0  0
 19 24  1  0  0  0
 20 21  2  0  0  0
 20103  1  0  0  0
 21 23  1  0  0  0
 22 28  1  0  0  0
 22 32  2  0  0  0
 26 27  1  0  0  0
 28104  1  0  0  0
 28105  1  0  0  0
 29106  1  0  0  0
 29107  1  0  0  0
 33 34  1  0  0  0
 33 66  1  0  0  0
 33 70  2  0  0  0
 34 36  1  0  0  0
 34 59  1  0  0  0
 34108  1  0  0  0
 35 44  2  0  0  0
 35 45  1  0  0  0
 35 68  1  0  0  0
 36 56  1  0  0  0
 36109  1  0  0  0
 37 39  1  0  0  0
 37 47  1  0  0  0
 37 66  1  0  0  0
 37110  1  0  0  0
 38 43  2  0  0  0
 38 46  1  0  0  0
 38 47  1  0  0  0
 39 64  1  0  0  0
 39 67  2  0  0  0
 40 52  1  0  0  0
 40 53  2  0  0  0
 40 58  1  0  0  0
 41111  1  0  0  0
 41112  1  0  0  0
 41113  1  0  0  0
 41 48  1  0  0  0
 42 43  1  0  0  0
 42 66  1  0  0  0
 42114  1  0  0  0
 42115  1  0  0  0
 43 44  1  0  0  0
 44116  1  0  0  0
 45 46  2  0  0  0
 45117  1  0  0  0
 46118  1  0  0  0
 47119  1  0  0  0
 47120  1  0  0  0
 48 56  1  0  0  0
 48 65  1  0  0  0
 48121  1  0  0  0
 49 50  1  0  0  0
 49 53  1  0  0  0
 49 64  1  0  0  0
 49122  1  0  0  0
 50 51  1  0  0  0
 50123  1  0  0  0
 50124  1  0  0  0
 51 52  1  0  0  0
 51125  1  0  0  0
 51126  1  0  0  0
 52127  1  0  0  0
 52128  1  0  0  0
 53 54  1  0  0  0
 54 55  2  0  0  0
 54129  1  0  0  0
 55 57  1  0  0  0
 55130  1  0  0  0
 56 69  2  0  0  0
 57 58  2  0  0  0
 57131  1  0  0  0
 58132  1  0  0  0
 59 60  1  0  0  0
 59 61  1  0  0  0
 59 62  1  0  0  0
 60133  1  0  0  0
 60134  1  0  0  0
 60135  1  0  0  0
 61136  1  0  0  0
 61137  1  0  0  0
 61138  1  0  0  0
 62139  1  0  0  0
 62140  1  0  0  0
 62141  1  0  0  0
 63 65  1  0  0  0
 63142  1  0  0  0
 63143  1  0  0  0
 63144  1  0  0  0
 64145  1  0  0  0
 65146  1  0  0  0
 68 84  1  0  0  0
 71 73  2  0  0  0
 71 75  1  0  0  0
 71147  1  0  0  0
 72 73  1  0  0  0
 72 74  2  0  0  0
 72 81  1  0  0  0
 73 86  1  0  0  0
 74 85  1  0  0  0
 74 82  1  0  0  0
 75 85  2  0  0  0
 75 87  1  0  0  0
 76 77  1  0  0  0
 76 82  1  0  0  0
 76148  1  0  0  0
 76149  1  0  0  0
 77 82  1  0  0  0
 77150  1  0  0  0
 77151  1  0  0  0
 78 79  1  0  0  0
 78 83  1  0  0  0
 78152  1  0  0  0
 78153  1  0  0  0
 79 83  1  0  0  0
 79154  1  0  0  0
 79155  1  0  0  0
 80 81  1  0  0  0
 80 84  1  0  0  0
 80156  1  0  0  0
 80157  1  0  0  0
 81 84  1  0  0  0
 81158  1  0  0  0
 82159  1  0  0  0
 83 87  1  0  0  0
 83160  1  0  0  0
 84161  1  0  0  0
 86162  1  0  0  0
M  ISO  4   1 100  68 101  84 101  86 100
M  END
> <chiral flag>
0

> <version>
0

> <s_m_source_file>
/data/baiqing/PycharmProjects/Reinvent-master-3.2/result/LINK_invent/BTK/process_docking_weight1_custom_sum_contain_oxygen_bond_distance_aromatic_linkinvent_7_9_3/rearranged_h_0169.sdf

> <i_m_source_file_index>
17

> <r_mmod_Potential_Energy-OPLS-2005>
2918.11547851562

> <r_mmod_Stretch_Energy-OPLS-2005>
1238.2646484375

> <r_mmod_Bend_Energy-OPLS-2005>
833.7705078125

> <r_mmod_Torsional_Energy-OPLS-2005>
514.48828125

> <r_mmod_Improper_Torsional_Energy-OPLS-2005>
14.9423122406006

> <r_mmod_Van_der_Waal_Energy-OPLS-2005>
129.423049926758

> <r_mmod_Electrostatic_Energy-OPLS-2005>
-525.483764648438

> <r_mmod_Solvation_Energy-OPLS-2005>
-222.4033203125

> <b_mmod_Minimization_Converged-OPLS-2005>
0

> <r_mmod_RMS_Derivative-OPLS-2005>
2.60927939414978

$$$$
17
                    3D
 Structure written by MMmdl.
157166  0  0  1  0            999 V2000
  -30.5155  -14.9379   20.4210 C   0  0  0  0  0  0
  -30.4498  -12.5776   19.4913 C   0  0  0  0  0  0
  -29.5245  -12.5294   18.2521 C   0  0  0  0  0  0
  -28.0561  -12.3159   18.6690 C   0  0  0  0  0  0
  -27.6338  -13.2405   19.8402 C   0  0  2  0  0  0
  -28.6782  -13.2433   20.9774 C   0  0  0  0  0  0
  -25.2481  -13.8196   20.5693 C   0  0  0  0  0  0
  -24.1793  -13.0431   20.9225 C   0  0  0  0  0  0
  -24.6397  -11.6913   20.8751 C   0  0  0  0  0  0
  -23.9076  -10.4287   21.0406 C   0  0  0  0  0  0
  -24.3624   -9.4201   21.9183 C   0  0  0  0  0  0
  -23.6293   -8.2241   22.0755 C   0  0  0  0  0  0
  -22.4275   -8.0283   21.3547 C   0  0  0  0  0  0
  -21.9912   -9.0256   20.4648 C   0  0  0  0  0  0
  -22.7247  -10.2131   20.3057 C   0  0  0  0  0  0
  -21.6854   -6.0735   22.5278 C   0  0  0  0  0  0
  -21.4014   -6.5636   23.8212 C   0  0  0  0  0  0
  -21.3660   -5.6789   24.9173 C   0  0  0  0  0  0
  -21.6046   -4.3053   24.7224 C   0  0  0  0  0  0
  -21.8819   -3.8146   23.4344 C   0  0  0  0  0  0
  -21.9192   -4.6961   22.3400 C   0  0  0  0  0  0
  -22.7814  -13.5211   21.1878 C   0  0  0  0  0  0
  -22.1661   -4.2150   21.0977 F   0  0  0  0  0  0
  -21.5629   -3.4535   25.7734 F   0  0  0  0  0  0
  -29.9567  -13.6613   20.3856 N   0  0  0  0  0  0
  -26.2903  -12.9414   20.3233 N   0  0  0  0  0  0
  -25.9327  -11.6553   20.5729 N   0  0  0  0  0  0
  -22.0459  -12.8205   22.0436 N   0  0  0  0  0  0
  -25.4127  -15.1927   20.4098 N   0  0  0  0  0  0
  -31.7180  -15.0398   20.1464 O   0  0  0  0  0  0
  -21.6642   -6.8878   21.4241 O   0  0  0  0  0  0
  -22.3499  -14.5514   20.6717 O   0  0  0  0  0  0
  -24.6426  -31.8447   23.1877 C   0  0  0  0  0  0
  -25.9200  -32.4698   23.8267 C   0  0  1  0  0  0
  -27.2204  -27.1420   20.1550 C   0  0  0  0  0  0
  -25.5949  -33.8503   24.2186 N   0  0  0  0  0  0
  -23.4463  -30.4629   21.5334 C   0  0  2  0  0  0
  -24.8966  -28.8858   20.1146 C   0  0  0  0  0  0
  -22.7565  -29.4550   22.4867 C   0  0  0  0  0  0
  -18.0306  -28.1400   22.8475 C   0  0  0  0  0  0
  -24.1493  -36.7256   23.2642 C   0  0  0  0  0  0
  -26.0017  -30.7200   21.3857 C   0  0  0  0  0  0
  -26.0742  -29.3300   20.7303 C   0  0  0  0  0  0
  -27.2393  -28.4755   20.7293 C   0  0  0  0  0  0
  -26.0183  -26.7960   19.5023 C   0  0  0  0  0  0
  -24.8803  -27.6318   19.4853 C   0  0  0  0  0  0
  -23.6732  -29.7885   20.1543 C   0  0  0  0  0  0
  -25.4125  -36.3033   24.0314 C   0  0  1  0  0  0
  -20.5916  -28.3723   23.1240 C   0  0  2  0  0  0
  -20.6790  -26.9427   22.5406 C   0  0  0  0  0  0
  -19.5763  -26.6383   21.5215 C   0  0  0  0  0  0
  -18.1944  -26.7937   22.1625 C   0  0  0  0  0  0
  -19.1561  -28.8880   23.2848 C   0  0  0  0  0  0
  -18.9477  -30.1475   23.8876 C   0  0  0  0  0  0
  -17.6473  -30.6593   24.0558 C   0  0  0  0  0  0
  -25.9073  -34.9408   23.5059 C   0  0  0  0  0  0
  -16.5365  -29.9086   23.6334 C   0  0  0  0  0  0
  -16.7290  -28.6505   23.0354 C   0  0  0  0  0  0
  -26.4522  -31.6567   25.0709 C   0  0  0  0  0  0
  -25.3704  -31.3770   26.1403 C   0  0  0  0  0  0
  -27.0380  -30.2959   24.6294 C   0  0  0  0  0  0
  -27.6053  -32.4334   25.7496 C   0  0  0  0  0  0
  -27.5577  -37.1784   24.8463 C   0  0  0  0  0  0
  -21.4258  -29.3049   22.3614 N   0  0  0  0  0  0
  -26.4291  -37.3743   23.9404 N   0  0  0  0  0  0
  -24.7166  -31.0304   22.0908 N   0  0  0  0  0  0
  -23.4210  -28.8100   23.3018 O   0  0  0  0  0  0
  -28.2847  -26.1721   20.1680 O   0  0  0  0  0  0
  -26.5658  -34.8905   22.4639 O   0  0  0  0  0  0
  -23.5544  -32.1325   23.7098 O   0  0  0  0  0  0
  -29.1930  -19.8262   19.4185 C   0  0  0  0  0  0
  -29.4352  -18.3863   19.3856 C   0  0  0  0  0  0
  -29.1751  -20.5903   20.6336 C   0  0  0  0  0  0
  -29.4950  -19.7166   21.7341 C   0  0  0  0  0  0
  -29.7093  -17.5841   20.5480 C   0  0  0  0  0  0
  -30.4892  -21.4421   23.4350 C   0  0  0  0  0  0
  -30.7914  -20.0742   23.9884 C   0  0  0  0  0  0
  -29.5666  -20.2815   23.1214 C   0  0  0  0  0  0
  -30.2989  -23.5688   19.7854 C   0  0  0  0  0  0
  -28.0405  -24.6793   20.5434 C   0  0  0  0  0  0
  -28.8154  -23.2675   20.0176 C   0  0  2  0  0  0
  -29.7237  -18.3416   21.6916 N   0  0  0  0  0  0
  -29.6483  -16.0550   20.5543 N   0  0  0  0  0  0
  -28.8056  -21.9934   20.8806 O   0  0  0  0  0  0
  -31.4816  -12.7472   19.1795 H   0  0  0  0  0  0
  -30.4492  -11.6195   20.0136 H   0  0  0  0  0  0
  -29.8402  -11.7357   17.5736 H   0  0  0  0  0  0
  -29.6140  -13.4623   17.6934 H   0  0  0  0  0  0
  -27.9483  -11.2726   18.9683 H   0  0  0  0  0  0
  -27.3948  -12.4568   17.8134 H   0  0  0  0  0  0
  -27.6019  -14.2458   19.4197 H   0  0  0  0  0  0
  -28.7621  -12.2564   21.4351 H   0  0  0  0  0  0
  -28.3800  -13.9254   21.7752 H   0  0  0  0  0  0
  -25.2766   -9.5676   22.4760 H   0  0  0  0  0  0
  -24.0001   -7.4631   22.7474 H   0  0  0  0  0  0
  -21.0841   -8.8777   19.8953 H   0  0  0  0  0  0
  -22.3705  -10.9670   19.6170 H   0  0  0  0  0  0
  -21.2008   -7.6144   23.9713 H   0  0  0  0  0  0
  -21.1484   -6.0519   25.9075 H   0  0  0  0  0  0
  -22.0598   -2.7609   23.2844 H   0  0  0  0  0  0
  -22.4078  -11.9874   22.4831 H   0  0  0  0  0  0
  -21.1077  -13.1235   22.2637 H   0  0  0  0  0  0
  -24.6338  -15.8341   20.5141 H   0  0  0  0  0  0
  -26.2355  -15.6358   20.0234 H   0  0  0  0  0  0
  -26.7266  -32.5311   23.0996 H   0  0  0  0  0  0
  -25.0070  -33.9615   25.0317 H   0  0  0  0  0  0
  -22.7484  -31.2881   21.3770 H   0  0  0  0  0  0
  -23.3759  -35.9583   23.3293 H   0  0  0  0  0  0
  -24.3577  -36.8900   22.2058 H   0  0  0  0  0  0
  -23.7245  -37.6448   23.6687 H   0  0  0  0  0  0
  -26.1564  -31.4739   20.6125 H   0  0  0  0  0  0
  -26.8722  -30.7717   22.0280 H   0  0  0  0  0  0
  -28.1415  -28.8143   21.2192 H   0  0  0  0  0  0
  -25.9427  -25.8404   19.0039 H   0  0  0  0  0  0
  -23.9826  -27.2890   18.9891 H   0  0  0  0  0  0
  -23.8107  -30.5605   19.3963 H   0  0  0  0  0  0
  -22.7881  -29.2299   19.8444 H   0  0  0  0  0  0
  -25.1315  -36.1860   25.0806 H   0  0  0  0  0  0
  -21.0005  -28.3315   24.1362 H   0  0  0  0  0  0
  -20.5688  -26.2336   23.3624 H   0  0  0  0  0  0
  -21.6656  -26.7435   22.1203 H   0  0  0  0  0  0
  -19.6922  -25.6287   21.1259 H   0  0  0  0  0  0
  -19.6699  -27.3181   20.6734 H   0  0  0  0  0  0
  -17.4211  -26.6678   21.4030 H   0  0  0  0  0  0
  -18.0342  -26.0091   22.9033 H   0  0  0  0  0  0
  -19.7953  -30.7295   24.2239 H   0  0  0  0  0  0
  -17.5027  -31.6272   24.5164 H   0  0  0  0  0  0
  -15.5364  -30.2979   23.7673 H   0  0  0  0  0  0
  -15.8691  -28.0814   22.7085 H   0  0  0  0  0  0
  -24.5875  -30.7128   25.7722 H   0  0  0  0  0  0
  -24.8903  -32.2960   26.4776 H   0  0  0  0  0  0
  -25.7978  -30.8969   27.0214 H   0  0  0  0  0  0
  -26.2994  -29.6685   24.1290 H   0  0  0  0  0  0
  -27.3974  -29.7258   25.4871 H   0  0  0  0  0  0
  -27.8911  -30.4186   23.9618 H   0  0  0  0  0  0
  -27.2645  -33.3652   26.2021 H   0  0  0  0  0  0
  -28.3892  -32.6867   25.0346 H   0  0  0  0  0  0
  -28.0688  -31.8494   26.5456 H   0  0  0  0  0  0
  -28.2587  -38.0088   24.7508 H   0  0  0  0  0  0
  -28.1082  -36.2615   24.6294 H   0  0  0  0  0  0
  -27.2290  -37.1436   25.8865 H   0  0  0  0  0  0
  -20.9474  -29.8755   21.6783 H   0  0  0  0  0  0
  -26.0157  -38.2811   24.1410 H   0  0  0  0  0  0
  -28.9565  -20.3289   18.4921 H   0  0  0  0  0  0
  -29.3507  -17.8874   18.4304 H   0  0  0  0  0  0
  -31.1272  -21.8116   22.6341 H   0  0  0  0  0  0
  -30.1359  -22.1949   24.1366 H   0  0  0  0  0  0
  -30.6342  -19.9253   25.0543 H   0  0  0  0  0  0
  -31.6292  -19.5298   23.5564 H   0  0  0  0  0  0
  -28.5898  -20.2720   23.6002 H   0  0  0  0  0  0
  -30.4216  -24.4141   19.1078 H   0  0  0  0  0  0
  -30.8147  -22.7154   19.3457 H   0  0  0  0  0  0
  -30.7983  -23.8175   20.7219 H   0  0  0  0  0  0
  -28.2026  -24.6873   21.6214 H   0  0  0  0  0  0
  -26.9739  -24.4785   20.4558 H   0  0  0  0  0  0
  -28.3788  -23.0015   19.0540 H   0  0  0  0  0  0
  -28.7126  -15.7299   20.7314 H   0  0  0  0  0  0
  1 25  1  0  0  0
  1 30  2  0  0  0
  1 83  1  0  0  0
  2  3  1  0  0  0
  2 25  1  0  0  0
  2 85  1  0  0  0
  2 86  1  0  0  0
  3  4  1  0  0  0
  3 87  1  0  0  0
  3 88  1  0  0  0
  4  5  1  0  0  0
  4 89  1  0  0  0
  4 90  1  0  0  0
  5  6  1  0  0  0
  5 26  1  0  0  0
  5 91  1  0  0  0
  6 25  1  0  0  0
  6 92  1  0  0  0
  6 93  1  0  0  0
  7  8  2  0  0  0
  7 26  1  0  0  0
  7 29  1  0  0  0
  8  9  1  0  0  0
  8 22  1  0  0  0
  9 10  1  0  0  0
  9 27  2  0  0  0
 10 11  2  0  0  0
 10 15  1  0  0  0
 11 12  1  0  0  0
 11 94  1  0  0  0
 12 13  2  0  0  0
 12 95  1  0  0  0
 13 14  1  0  0  0
 13 31  1  0  0  0
 14 15  2  0  0  0
 14 96  1  0  0  0
 15 97  1  0  0  0
 16 17  2  0  0  0
 16 21  1  0  0  0
 16 31  1  0  0  0
 17 18  1  0  0  0
 17 98  1  0  0  0
 18 19  2  0  0  0
 18 99  1  0  0  0
 19 20  1  0  0  0
 19 24  1  0  0  0
 20 21  2  0  0  0
 20100  1  0  0  0
 21 23  1  0  0  0
 22 28  1  0  0  0
 22 32  2  0  0  0
 26 27  1  0  0  0
 28101  1  0  0  0
 28102  1  0  0  0
 29103  1  0  0  0
 29104  1  0  0  0
 33 34  1  0  0  0
 33 66  1  0  0  0
 33 70  2  0  0  0
 34 36  1  0  0  0
 34 59  1  0  0  0
 34105  1  0  0  0
 35 44  2  0  0  0
 35 45  1  0  0  0
 35 68  1  0  0  0
 36 56  1  0  0  0
 36106  1  0  0  0
 37 39  1  0  0  0
 37 47  1  0  0  0
 37 66  1  0  0  0
 37107  1  0  0  0
 38 43  2  0  0  0
 38 46  1  0  0  0
 38 47  1  0  0  0
 39 64  1  0  0  0
 39 67  2  0  0  0
 40 52  1  0  0  0
 40 53  2  0  0  0
 40 58  1  0  0  0
 41108  1  0  0  0
 41109  1  0  0  0
 41110  1  0  0  0
 41 48  1  0  0  0
 42 43  1  0  0  0
 42 66  1  0  0  0
 42111  1  0  0  0
 42112  1  0  0  0
 43 44  1  0  0  0
 44113  1  0  0  0
 45 46  2  0  0  0
 45114  1  0  0  0
 46115  1  0  0  0
 47116  1  0  0  0
 47117  1  0  0  0
 48 56  1  0  0  0
 48 65  1  0  0  0
 48118  1  0  0  0
 49 50  1  0  0  0
 49 53  1  0  0  0
 49 64  1  0  0  0
 49119  1  0  0  0
 50 51  1  0  0  0
 50120  1  0  0  0
 50121  1  0  0  0
 51 52  1  0  0  0
 51122  1  0  0  0
 51123  1  0  0  0
 52124  1  0  0  0
 52125  1  0  0  0
 53 54  1  0  0  0
 54 55  2  0  0  0
 54126  1  0  0  0
 55 57  1  0  0  0
 55127  1  0  0  0
 56 69  2  0  0  0
 57 58  2  0  0  0
 57128  1  0  0  0
 58129  1  0  0  0
 59 60  1  0  0  0
 59 61  1  0  0  0
 59 62  1  0  0  0
 60130  1  0  0  0
 60131  1  0  0  0
 60132  1  0  0  0
 61133  1  0  0  0
 61134  1  0  0  0
 61135  1  0  0  0
 62136  1  0  0  0
 62137  1  0  0  0
 62138  1  0  0  0
 63 65  1  0  0  0
 63139  1  0  0  0
 63140  1  0  0  0
 63141  1  0  0  0
 64142  1  0  0  0
 65143  1  0  0  0
 68 80  1  0  0  0
 71 72  2  0  0  0
 71 73  1  0  0  0
 71144  1  0  0  0
 72 75  1  0  0  0
 72145  1  0  0  0
 73 74  2  0  0  0
 73 84  1  0  0  0
 74 82  1  0  0  0
 74 78  1  0  0  0
 75 82  2  0  0  0
 75 83  1  0  0  0
 76 77  1  0  0  0
 76 78  1  0  0  0
 76146  1  0  0  0
 76147  1  0  0  0
 77 78  1  0  0  0
 77148  1  0  0  0
 77149  1  0  0  0
 78150  1  0  0  0
 79151  1  0  0  0
 79152  1  0  0  0
 79153  1  0  0  0
 79 81  1  0  0  0
 80 81  1  0  0  0
 80154  1  0  0  0
 80155  1  0  0  0
 81 84  1  0  0  0
 81156  1  0  0  0
 83157  1  0  0  0
M  ISO  4   1 100  68 101  80 101  83 100
M  END
> <chiral flag>
0

> <version>
0

> <s_m_source_file>
/data/baiqing/PycharmProjects/Reinvent-master-3.2/result/LINK_invent/BTK/process_docking_weight1_custom_sum_contain_oxygen_bond_distance_aromatic_linkinvent_7_9_3/rearranged_h_0169.sdf

> <i_m_source_file_index>
18

> <r_mmod_Potential_Energy-OPLS-2005>
392.388885498047

> <r_mmod_Stretch_Energy-OPLS-2005>
227.766204833984

> <r_mmod_Bend_Energy-OPLS-2005>
286.654876708984

> <r_mmod_Torsional_Energy-OPLS-2005>
284.654479980469

> <r_mmod_Improper_Torsional_Energy-OPLS-2005>
7.68625020980835

> <r_mmod_Van_der_Waal_Energy-OPLS-2005>
124.07105255127

> <r_mmod_Electrostatic_Energy-OPLS-2005>
-499.801055908203

> <r_mmod_Solvation_Energy-OPLS-2005>
-221.949188232422

> <b_mmod_Minimization_Converged-OPLS-2005>
0

> <r_mmod_RMS_Derivative-OPLS-2005>
0.577983319759369

$$$$
18
                    3D
 Structure written by MMmdl.
156165  0  0  1  0            999 V2000
  -30.4041  -15.3354   20.3691 C   0  0  0  0  0  0
  -30.4351  -12.8608   19.5218 C   0  0  0  0  0  0
  -29.5347  -12.5878   18.2894 C   0  0  0  0  0  0
  -28.0892  -12.2908   18.7239 C   0  0  0  0  0  0
  -27.6041  -13.2757   19.8155 C   0  0  2  0  0  0
  -28.6349  -13.4821   20.9450 C   0  0  0  0  0  0
  -25.2353  -13.8235   20.5729 C   0  0  0  0  0  0
  -24.1719  -13.0427   20.9273 C   0  0  0  0  0  0
  -24.6378  -11.6923   20.8766 C   0  0  0  0  0  0
  -23.9066  -10.4292   21.0407 C   0  0  0  0  0  0
  -24.3623   -9.4204   21.9174 C   0  0  0  0  0  0
  -23.6304   -8.2236   22.0743 C   0  0  0  0  0  0
  -22.4289   -8.0266   21.3534 C   0  0  0  0  0  0
  -21.9918   -9.0235   20.4638 C   0  0  0  0  0  0
  -22.7242  -10.2120   20.3047 C   0  0  0  0  0  0
  -21.6857   -6.0734   22.5278 C   0  0  0  0  0  0
  -21.4014   -6.5637   23.8211 C   0  0  0  0  0  0
  -21.3666   -5.6787   24.9174 C   0  0  0  0  0  0
  -21.6047   -4.3050   24.7224 C   0  0  0  0  0  0
  -21.8818   -3.8144   23.4346 C   0  0  0  0  0  0
  -21.9189   -4.6960   22.3403 C   0  0  0  0  0  0
  -22.7738  -13.5176   21.1924 C   0  0  0  0  0  0
  -22.1653   -4.2144   21.0981 F   0  0  0  0  0  0
  -21.5631   -3.4537   25.7741 F   0  0  0  0  0  0
  -29.8510  -14.0153   20.3063 N   0  0  0  0  0  0
  -26.2777  -12.9507   20.3189 N   0  0  0  0  0  0
  -25.9315  -11.6615   20.5705 N   0  0  0  0  0  0
  -22.0393  -12.8163   22.0479 N   0  0  0  0  0  0
  -25.3976  -15.1971   20.4128 N   0  0  0  0  0  0
  -31.6370  -15.3069   20.2058 O   0  0  0  0  0  0
  -21.6641   -6.8875   21.4241 O   0  0  0  0  0  0
  -22.3417  -14.5471   20.6751 O   0  0  0  0  0  0
  -24.6674  -31.8181   23.1656 C   0  0  0  0  0  0
  -25.9336  -32.4556   23.8136 C   0  0  1  0  0  0
  -27.2151  -26.8806   20.2063 C   0  0  0  0  0  0
  -25.5981  -33.8368   24.2040 N   0  0  0  0  0  0
  -23.4841  -30.4274   21.5171 C   0  0  2  0  0  0
  -24.9354  -28.7998   20.1208 C   0  0  0  0  0  0
  -22.7687  -29.4409   22.4778 C   0  0  0  0  0  0
  -18.0327  -28.1417   22.8469 C   0  0  0  0  0  0
  -24.1495  -36.7198   23.2646 C   0  0  0  0  0  0
  -26.0548  -30.6122   21.4002 C   0  0  0  0  0  0
  -26.1215  -29.1943   20.7531 C   0  0  0  0  0  0
  -27.2573  -28.2597   20.7607 C   0  0  0  0  0  0
  -25.9972  -26.6429   19.5312 C   0  0  0  0  0  0
  -24.9010  -27.5463   19.4881 C   0  0  0  0  0  0
  -23.7261  -29.7359   20.1470 C   0  0  0  0  0  0
  -25.4137  -36.2947   24.0292 C   0  0  1  0  0  0
  -20.5954  -28.3757   23.1187 C   0  0  2  0  0  0
  -20.6802  -26.9432   22.5407 C   0  0  0  0  0  0
  -19.5773  -26.6381   21.5219 C   0  0  0  0  0  0
  -18.1957  -26.7952   22.1625 C   0  0  0  0  0  0
  -19.1588  -28.8910   23.2815 C   0  0  0  0  0  0
  -18.9497  -30.1505   23.8840 C   0  0  0  0  0  0
  -17.6486  -30.6599   24.0559 C   0  0  0  0  0  0
  -25.9103  -34.9330   23.4992 C   0  0  0  0  0  0
  -16.5378  -29.9085   23.6347 C   0  0  0  0  0  0
  -16.7308  -28.6513   23.0355 C   0  0  0  0  0  0
  -26.4574  -31.6524   25.0689 C   0  0  0  0  0  0
  -25.3687  -31.3784   26.1336 C   0  0  0  0  0  0
  -27.0480  -30.2889   24.6450 C   0  0  0  0  0  0
  -27.6053  -32.4348   25.7495 C   0  0  0  0  0  0
  -27.5568  -37.1754   24.8464 C   0  0  0  0  0  0
  -21.4352  -29.3033   22.3528 N   0  0  0  0  0  0
  -26.4276  -37.3690   23.9409 N   0  0  0  0  0  0
  -24.7574  -30.9810   22.0814 N   0  0  0  0  0  0
  -23.4216  -28.7983   23.3036 O   0  0  0  0  0  0
  -28.2370  -25.7799   20.2100 O   0  0  0  0  0  0
  -26.5716  -34.8878   22.4589 O   0  0  0  0  0  0
  -23.5737  -32.1153   23.6740 O   0  0  0  0  0  0
  -28.9589  -19.4789   20.1885 C   0  0  0  0  0  0
  -29.3097  -20.9831   20.3621 C   0  0  0  0  0  0
  -30.6417  -21.0511   20.7836 C   0  0  0  0  0  0
  -31.4421  -19.9134   21.0873 C   0  0  0  0  0  0
  -29.8455  -18.2307   20.4869 C   0  0  0  0  0  0
  -31.1794  -22.4574   20.6519 C   0  0  0  0  0  0
  -30.2766  -23.1244   19.5956 C   0  0  0  0  0  0
  -28.8326  -22.6108   19.8227 C   0  0  2  0  0  0
  -32.8855  -20.0888   21.5204 C   0  0  0  0  0  0
  -28.0862  -22.4113   18.4959 C   0  0  0  0  0  0
  -28.0992  -24.1363   20.5203 C   0  0  0  0  0  0
  -31.0552  -18.6129   20.9629 N   0  0  0  0  0  0
  -29.6185  -16.6176   20.3670 N   0  0  0  0  0  0
  -31.4488  -13.0802   19.1828 H   0  0  0  0  0  0
  -30.5232  -11.9688   20.1450 H   0  0  0  0  0  0
  -29.9314  -11.7571   17.7051 H   0  0  0  0  0  0
  -29.5441  -13.4592   17.6329 H   0  0  0  0  0  0
  -28.0652  -11.2737   19.1166 H   0  0  0  0  0  0
  -27.4195  -12.3021   17.8633 H   0  0  0  0  0  0
  -27.5076  -14.2305   19.2981 H   0  0  0  0  0  0
  -28.8226  -12.5559   21.4897 H   0  0  0  0  0  0
  -28.2596  -14.2026   21.6738 H   0  0  0  0  0  0
  -25.2760   -9.5686   22.4755 H   0  0  0  0  0  0
  -24.0005   -7.4628   22.7463 H   0  0  0  0  0  0
  -21.0847   -8.8757   19.8954 H   0  0  0  0  0  0
  -22.3685  -10.9654   19.6160 H   0  0  0  0  0  0
  -21.2005   -7.6145   23.9720 H   0  0  0  0  0  0
  -21.1487   -6.0516   25.9080 H   0  0  0  0  0  0
  -22.0594   -2.7604   23.2852 H   0  0  0  0  0  0
  -22.4023  -11.9840   22.4891 H   0  0  0  0  0  0
  -21.0996  -13.1160   22.2667 H   0  0  0  0  0  0
  -24.6205  -15.8408   20.5136 H   0  0  0  0  0  0
  -26.2237  -15.6349   20.0283 H   0  0  0  0  0  0
  -26.7401  -32.5092   23.0844 H   0  0  0  0  0  0
  -25.0080  -33.9421   25.0159 H   0  0  0  0  0  0
  -22.8006  -31.2606   21.3419 H   0  0  0  0  0  0
  -23.3767  -35.9518   23.3271 H   0  0  0  0  0  0
  -24.3568  -36.8887   22.2067 H   0  0  0  0  0  0
  -23.7242  -37.6369   23.6733 H   0  0  0  0  0  0
  -26.2359  -31.3476   20.6152 H   0  0  0  0  0  0
  -26.9130  -30.6743   22.0571 H   0  0  0  0  0  0
  -28.1618  -28.5687   21.2647 H   0  0  0  0  0  0
  -25.8716  -25.6880   19.0404 H   0  0  0  0  0  0
  -24.0020  -27.2394   18.9715 H   0  0  0  0  0  0
  -23.8894  -30.4988   19.3854 H   0  0  0  0  0  0
  -22.8351  -29.1927   19.8277 H   0  0  0  0  0  0
  -25.1342  -36.1730   25.0782 H   0  0  0  0  0  0
  -21.0038  -28.3365   24.1312 H   0  0  0  0  0  0
  -20.5689  -26.2365   23.3650 H   0  0  0  0  0  0
  -21.6664  -26.7411   22.1204 H   0  0  0  0  0  0
  -19.6924  -25.6278   21.1278 H   0  0  0  0  0  0
  -19.6716  -27.3165   20.6731 H   0  0  0  0  0  0
  -17.4228  -26.6696   21.4028 H   0  0  0  0  0  0
  -18.0348  -26.0112   22.9037 H   0  0  0  0  0  0
  -19.7968  -30.7349   24.2170 H   0  0  0  0  0  0
  -17.5030  -31.6266   24.5180 H   0  0  0  0  0  0
  -15.5373  -30.2962   23.7706 H   0  0  0  0  0  0
  -15.8714  -28.0817   22.7084 H   0  0  0  0  0  0
  -24.5892  -30.7109   25.7643 H   0  0  0  0  0  0
  -24.8851  -32.2987   26.4621 H   0  0  0  0  0  0
  -25.7905  -30.9043   27.0208 H   0  0  0  0  0  0
  -26.3151  -29.6551   24.1441 H   0  0  0  0  0  0
  -27.3985  -29.7273   25.5122 H   0  0  0  0  0  0
  -27.9105  -30.4070   23.9887 H   0  0  0  0  0  0
  -27.2610  -33.3704   26.1915 H   0  0  0  0  0  0
  -28.3938  -32.6812   25.0373 H   0  0  0  0  0  0
  -28.0635  -31.8578   26.5539 H   0  0  0  0  0  0
  -28.2562  -38.0072   24.7515 H   0  0  0  0  0  0
  -28.1087  -36.2595   24.6292 H   0  0  0  0  0  0
  -27.2282  -37.1397   25.8866 H   0  0  0  0  0  0
  -20.9622  -29.8707   21.6632 H   0  0  0  0  0  0
  -26.0121  -38.2746   24.1425 H   0  0  0  0  0  0
  -27.9909  -19.2711   19.7527 H   0  0  0  0  0  0
  -32.2258  -22.4785   20.3444 H   0  0  0  0  0  0
  -31.0983  -22.9668   21.6132 H   0  0  0  0  0  0
  -30.6217  -22.7845   18.6176 H   0  0  0  0  0  0
  -30.3772  -24.2098   19.5846 H   0  0  0  0  0  0
  -33.5063  -20.3633   20.6673 H   0  0  0  0  0  0
  -33.2943  -19.1732   21.9493 H   0  0  0  0  0  0
  -32.9659  -20.8713   22.2741 H   0  0  0  0  0  0
  -27.9213  -23.3607   17.9851 H   0  0  0  0  0  0
  -27.1116  -21.9549   18.6730 H   0  0  0  0  0  0
  -28.6349  -21.7575   17.8189 H   0  0  0  0  0  0
  -28.4198  -24.0997   21.5619 H   0  0  0  0  0  0
  -27.0274  -23.9483   20.5843 H   0  0  0  0  0  0
  -28.6380  -16.3999   20.2959 H   0  0  0  0  0  0
  1 25  1  0  0  0
  1 30  2  0  0  0
  1 83  1  0  0  0
  2  3  1  0  0  0
  2 25  1  0  0  0
  2 84  1  0  0  0
  2 85  1  0  0  0
  3  4  1  0  0  0
  3 86  1  0  0  0
  3 87  1  0  0  0
  4  5  1  0  0  0
  4 88  1  0  0  0
  4 89  1  0  0  0
  5  6  1  0  0  0
  5 26  1  0  0  0
  5 90  1  0  0  0
  6 25  1  0  0  0
  6 91  1  0  0  0
  6 92  1  0  0  0
  7  8  2  0  0  0
  7 26  1  0  0  0
  7 29  1  0  0  0
  8  9  1  0  0  0
  8 22  1  0  0  0
  9 10  1  0  0  0
  9 27  2  0  0  0
 10 11  2  0  0  0
 10 15  1  0  0  0
 11 12  1  0  0  0
 11 93  1  0  0  0
 12 13  2  0  0  0
 12 94  1  0  0  0
 13 14  1  0  0  0
 13 31  1  0  0  0
 14 15  2  0  0  0
 14 95  1  0  0  0
 15 96  1  0  0  0
 16 17  2  0  0  0
 16 21  1  0  0  0
 16 31  1  0  0  0
 17 18  1  0  0  0
 17 97  1  0  0  0
 18 19  2  0  0  0
 18 98  1  0  0  0
 19 20  1  0  0  0
 19 24  1  0  0  0
 20 21  2  0  0  0
 20 99  1  0  0  0
 21 23  1  0  0  0
 22 28  1  0  0  0
 22 32  2  0  0  0
 26 27  1  0  0  0
 28100  1  0  0  0
 28101  1  0  0  0
 29102  1  0  0  0
 29103  1  0  0  0
 33 34  1  0  0  0
 33 66  1  0  0  0
 33 70  2  0  0  0
 34 36  1  0  0  0
 34 59  1  0  0  0
 34104  1  0  0  0
 35 44  2  0  0  0
 35 45  1  0  0  0
 35 68  1  0  0  0
 36 56  1  0  0  0
 36105  1  0  0  0
 37 39  1  0  0  0
 37 47  1  0  0  0
 37 66  1  0  0  0
 37106  1  0  0  0
 38 43  2  0  0  0
 38 46  1  0  0  0
 38 47  1  0  0  0
 39 64  1  0  0  0
 39 67  2  0  0  0
 40 52  1  0  0  0
 40 53  2  0  0  0
 40 58  1  0  0  0
 41107  1  0  0  0
 41108  1  0  0  0
 41109  1  0  0  0
 41 48  1  0  0  0
 42 43  1  0  0  0
 42 66  1  0  0  0
 42110  1  0  0  0
 42111  1  0  0  0
 43 44  1  0  0  0
 44112  1  0  0  0
 45 46  2  0  0  0
 45113  1  0  0  0
 46114  1  0  0  0
 47115  1  0  0  0
 47116  1  0  0  0
 48 56  1  0  0  0
 48 65  1  0  0  0
 48117  1  0  0  0
 49 50  1  0  0  0
 49 53  1  0  0  0
 49 64  1  0  0  0
 49118  1  0  0  0
 50 51  1  0  0  0
 50119  1  0  0  0
 50120  1  0  0  0
 51 52  1  0  0  0
 51121  1  0  0  0
 51122  1  0  0  0
 52123  1  0  0  0
 52124  1  0  0  0
 53 54  1  0  0  0
 54 55  2  0  0  0
 54125  1  0  0  0
 55 57  1  0  0  0
 55126  1  0  0  0
 56 69  2  0  0  0
 57 58  2  0  0  0
 57127  1  0  0  0
 58128  1  0  0  0
 59 60  1  0  0  0
 59 61  1  0  0  0
 59 62  1  0  0  0
 60129  1  0  0  0
 60130  1  0  0  0
 60131  1  0  0  0
 61132  1  0  0  0
 61133  1  0  0  0
 61134  1  0  0  0
 62135  1  0  0  0
 62136  1  0  0  0
 62137  1  0  0  0
 63 65  1  0  0  0
 63138  1  0  0  0
 63139  1  0  0  0
 63140  1  0  0  0
 64141  1  0  0  0
 65142  1  0  0  0
 68 81  1  0  0  0
 71 72  2  0  0  0
 71 75  1  0  0  0
 71143  1  0  0  0
 72 73  1  0  0  0
 72 78  1  0  0  0
 73 74  2  0  0  0
 73 76  1  0  0  0
 74 79  1  0  0  0
 74 82  1  0  0  0
 75 82  2  0  0  0
 75 83  1  0  0  0
 76 77  1  0  0  0
 76144  1  0  0  0
 76145  1  0  0  0
 77 78  1  0  0  0
 77146  1  0  0  0
 77147  1  0  0  0
 78 80  1  0  0  0
 78 81  1  0  0  0
 79148  1  0  0  0
 79149  1  0  0  0
 79150  1  0  0  0
 80151  1  0  0  0
 80152  1  0  0  0
 80153  1  0  0  0
 81154  1  0  0  0
 81155  1  0  0  0
 83156  1  0  0  0
M  ISO  4   1 100  68 101  81 101  83 100
M  END
> <chiral flag>
0

> <version>
0

> <s_m_source_file>
/data/baiqing/PycharmProjects/Reinvent-master-3.2/result/LINK_invent/BTK/process_docking_weight1_custom_sum_contain_oxygen_bond_distance_aromatic_linkinvent_7_9_3/rearranged_h_0169.sdf

> <i_m_source_file_index>
19

> <r_mmod_Potential_Energy-OPLS-2005>
1360.83142089844

> <r_mmod_Stretch_Energy-OPLS-2005>
656.638061523438

> <r_mmod_Bend_Energy-OPLS-2005>
540.753967285156

> <r_mmod_Torsional_Energy-OPLS-2005>
254.41943359375

> <r_mmod_Improper_Torsional_Energy-OPLS-2005>
11.9708776473999

> <r_mmod_Van_der_Waal_Energy-OPLS-2005>
124.251365661621

> <r_mmod_Electrostatic_Energy-OPLS-2005>
-514.004638671875

> <r_mmod_Solvation_Energy-OPLS-2005>
-237.83984375

> <b_mmod_Minimization_Converged-OPLS-2005>
0

> <r_mmod_RMS_Derivative-OPLS-2005>
1.53757679462433

$$$$
19
                    3D
 Structure written by MMmdl.
168179  0  0  1  0            999 V2000
  -30.6602  -14.7156   20.4987 C   0  0  0  0  0  0
  -30.4161  -12.4509   19.4747 C   0  0  0  0  0  0
  -29.4989  -12.4915   18.2360 C   0  0  0  0  0  0
  -28.0331  -12.2797   18.6527 C   0  0  0  0  0  0
  -27.6265  -13.1972   19.8296 C   0  0  2  0  0  0
  -28.6695  -13.1801   20.9736 C   0  0  0  0  0  0
  -25.2418  -13.8006   20.5621 C   0  0  0  0  0  0
  -24.1741  -13.0320   20.9256 C   0  0  0  0  0  0
  -24.6339  -11.6810   20.8813 C   0  0  0  0  0  0
  -23.9031  -10.4225   21.0470 C   0  0  0  0  0  0
  -24.3602   -9.4158   21.9241 C   0  0  0  0  0  0
  -23.6290   -8.2188   22.0780 C   0  0  0  0  0  0
  -22.4270   -8.0250   21.3562 C   0  0  0  0  0  0
  -21.9906   -9.0217   20.4664 C   0  0  0  0  0  0
  -22.7219  -10.2098   20.3102 C   0  0  0  0  0  0
  -21.6837   -6.0740   22.5286 C   0  0  0  0  0  0
  -21.3991   -6.5644   23.8214 C   0  0  0  0  0  0
  -21.3652   -5.6791   24.9172 C   0  0  0  0  0  0
  -21.6044   -4.3057   24.7211 C   0  0  0  0  0  0
  -21.8830   -3.8159   23.4331 C   0  0  0  0  0  0
  -21.9187   -4.6972   22.3393 C   0  0  0  0  0  0
  -22.7786  -13.5152   21.1921 C   0  0  0  0  0  0
  -22.1665   -4.2168   21.0966 F   0  0  0  0  0  0
  -21.5619   -3.4527   25.7721 F   0  0  0  0  0  0
  -29.9743  -13.5253   20.3976 N   0  0  0  0  0  0
  -26.2829  -12.9200   20.3162 N   0  0  0  0  0  0
  -25.9242  -11.6389   20.5756 N   0  0  0  0  0  0
  -22.0423  -12.8191   22.0493 N   0  0  0  0  0  0
  -25.3956  -15.1677   20.3927 N   0  0  0  0  0  0
  -31.8474  -14.7593   20.1655 O   0  0  0  0  0  0
  -21.6615   -6.8875   21.4257 O   0  0  0  0  0  0
  -22.3480  -14.5465   20.6765 O   0  0  0  0  0  0
  -24.6246  -31.8604   23.1993 C   0  0  0  0  0  0
  -25.9095  -32.4775   23.8331 C   0  0  1  0  0  0
  -27.2396  -27.3243   20.1603 C   0  0  0  0  0  0
  -25.5925  -33.8575   24.2271 N   0  0  0  0  0  0
  -23.4186  -30.4788   21.5393 C   0  0  2  0  0  0
  -24.8708  -28.9166   20.1265 C   0  0  0  0  0  0
  -22.7483  -29.4626   22.4937 C   0  0  0  0  0  0
  -18.0308  -28.1360   22.8479 C   0  0  0  0  0  0
  -24.1500  -36.7302   23.2633 C   0  0  0  0  0  0
  -25.9543  -30.7940   21.3668 C   0  0  0  0  0  0
  -26.0330  -29.4129   20.7320 C   0  0  0  0  0  0
  -27.2215  -28.6296   20.7343 C   0  0  0  0  0  0
  -26.0621  -26.8707   19.5326 C   0  0  0  0  0  0
  -24.8849  -27.6496   19.5186 C   0  0  0  0  0  0
  -23.6388  -29.7980   20.1604 C   0  0  0  0  0  0
  -25.4119  -36.3080   24.0331 C   0  0  1  0  0  0
  -20.5900  -28.3667   23.1279 C   0  0  2  0  0  0
  -20.6798  -26.9407   22.5366 C   0  0  0  0  0  0
  -19.5760  -26.6373   21.5188 C   0  0  0  0  0  0
  -18.1954  -26.7898   22.1623 C   0  0  0  0  0  0
  -19.1553  -28.8825   23.2880 C   0  0  0  0  0  0
  -18.9473  -30.1425   23.8905 C   0  0  0  0  0  0
  -17.6475  -30.6552   24.0581 C   0  0  0  0  0  0
  -25.9045  -34.9447   23.5100 C   0  0  0  0  0  0
  -16.5368  -29.9066   23.6315 C   0  0  0  0  0  0
  -16.7299  -28.6483   23.0334 C   0  0  0  0  0  0
  -26.4492  -31.6563   25.0681 C   0  0  0  0  0  0
  -25.3740  -31.3697   26.1419 C   0  0  0  0  0  0
  -27.0312  -30.2989   24.6087 C   0  0  0  0  0  0
  -27.6058  -32.4280   25.7458 C   0  0  0  0  0  0
  -27.5589  -37.1803   24.8463 C   0  0  0  0  0  0
  -21.4186  -29.3055   22.3695 N   0  0  0  0  0  0
  -26.4302  -37.3776   23.9406 N   0  0  0  0  0  0
  -24.6837  -31.0638   22.0925 N   0  0  0  0  0  0
  -23.4228  -28.8183   23.3017 O   0  0  0  0  0  0
  -28.4021  -26.5573   20.0578 O   0  0  0  0  0  0
  -26.5609  -34.8917   22.4655 O   0  0  0  0  0  0
  -23.5405  -32.1397   23.7333 O   0  0  0  0  0  0
  -28.8166  -20.4692   20.7829 C   0  0  0  0  0  0
  -26.1507  -20.1558   20.0896 C   0  0  0  0  0  0
  -27.9317  -21.6272   20.8504 C   0  0  0  0  0  0
  -28.3766  -19.1529   20.3538 C   0  0  0  0  0  0
  -26.5441  -21.3695   20.6690 C   0  0  0  0  0  0
  -27.0514  -19.1102   19.8417 C   0  0  0  0  0  0
  -25.2123  -22.7464   22.4796 C   0  0  0  0  0  0
  -24.2387  -21.7894   21.8509 C   0  0  0  0  0  0
  -29.0132  -24.0353   19.9968 C   0  0  0  0  0  0
  -27.5556  -24.3957   21.4079 C   0  0  0  0  0  0
  -30.5318  -17.3141   20.9755 C   0  0  0  0  0  0
  -28.6640  -16.4498   20.8687 C   0  0  0  0  0  0
  -28.4315  -23.1129   21.1144 C   0  0  1  0  0  0
  -29.2165  -17.7957   20.3011 C   0  0  0  0  0  0
  -25.4208  -22.3001   21.0440 C   0  0  0  0  0  0
  -28.6464  -25.3122   20.8182 C   0  0  1  0  0  0
  -26.5093  -18.0004   18.9584 C   0  0  0  0  0  0
  -30.0342  -15.9047   20.8578 N   0  0  0  0  0  0
  -31.4559  -12.5645   19.1655 H   0  0  0  0  0  0
  -30.3546  -11.4791   19.9673 H   0  0  0  0  0  0
  -29.7978  -11.7251   17.5198 H   0  0  0  0  0  0
  -29.6115  -13.4502   17.7267 H   0  0  0  0  0  0
  -27.9180  -11.2352   18.9425 H   0  0  0  0  0  0
  -27.3696  -12.4336   17.8012 H   0  0  0  0  0  0
  -27.5942  -14.1763   19.3679 H   0  0  0  0  0  0
  -28.7125  -12.1979   21.4436 H   0  0  0  0  0  0
  -28.3918  -13.8779   21.7633 H   0  0  0  0  0  0
  -25.2757   -9.5611   22.4811 H   0  0  0  0  0  0
  -23.9999   -7.4558   22.7486 H   0  0  0  0  0  0
  -21.0851   -8.8722   19.8958 H   0  0  0  0  0  0
  -22.3714  -10.9642   19.6199 H   0  0  0  0  0  0
  -21.1991   -7.6152   23.9703 H   0  0  0  0  0  0
  -21.1465   -6.0532   25.9063 H   0  0  0  0  0  0
  -22.0629   -2.7627   23.2812 H   0  0  0  0  0  0
  -22.3979  -11.9845   22.4915 H   0  0  0  0  0  0
  -21.1045  -13.1243   22.2656 H   0  0  0  0  0  0
  -24.5963  -15.7880   20.4564 H   0  0  0  0  0  0
  -26.1961  -15.5957   19.9538 H   0  0  0  0  0  0
  -26.7176  -32.5473   23.1092 H   0  0  0  0  0  0
  -25.0110  -33.9714   25.0446 H   0  0  0  0  0  0
  -22.7104  -31.2964   21.3870 H   0  0  0  0  0  0
  -23.3754  -35.9644   23.3286 H   0  0  0  0  0  0
  -24.3602  -36.8921   22.2048 H   0  0  0  0  0  0
  -23.7263  -37.6508   23.6653 H   0  0  0  0  0  0
  -26.0740  -31.5453   20.5856 H   0  0  0  0  0  0
  -26.8400  -30.8586   21.9866 H   0  0  0  0  0  0
  -28.1241  -29.0217   21.1814 H   0  0  0  0  0  0
  -26.0591  -25.9079   19.0417 H   0  0  0  0  0  0
  -23.9979  -27.2629   19.0372 H   0  0  0  0  0  0
  -23.7635  -30.5648   19.3958 H   0  0  0  0  0  0
  -22.7609  -29.2225   19.8611 H   0  0  0  0  0  0
  -25.1297  -36.1928   25.0831 H   0  0  0  0  0  0
  -21.0017  -28.3212   24.1398 H   0  0  0  0  0  0
  -20.5735  -26.2247   23.3539 H   0  0  0  0  0  0
  -21.6650  -26.7474   22.1126 H   0  0  0  0  0  0
  -19.6939  -25.6294   21.1187 H   0  0  0  0  0  0
  -19.6640  -27.3210   20.6739 H   0  0  0  0  0  0
  -17.4235  -26.6657   21.4017 H   0  0  0  0  0  0
  -18.0340  -26.0035   22.9014 H   0  0  0  0  0  0
  -19.7950  -30.7221   24.2300 H   0  0  0  0  0  0
  -17.5026  -31.6219   24.5214 H   0  0  0  0  0  0
  -15.5357  -30.2980   23.7600 H   0  0  0  0  0  0
  -15.8699  -28.0806   22.7030 H   0  0  0  0  0  0
  -24.5933  -30.7017   25.7764 H   0  0  0  0  0  0
  -24.8915  -32.2860   26.4830 H   0  0  0  0  0  0
  -25.8080  -30.8900   27.0201 H   0  0  0  0  0  0
  -26.2851  -29.6751   24.1147 H   0  0  0  0  0  0
  -27.4073  -29.7223   25.4549 H   0  0  0  0  0  0
  -27.8700  -30.4286   23.9240 H   0  0  0  0  0  0
  -27.2675  -33.3583   26.2039 H   0  0  0  0  0  0
  -28.3870  -32.6830   25.0282 H   0  0  0  0  0  0
  -28.0723  -31.8397   26.5370 H   0  0  0  0  0  0
  -28.2594  -38.0110   24.7503 H   0  0  0  0  0  0
  -28.1088  -36.2634   24.6288 H   0  0  0  0  0  0
  -27.2302  -37.1457   25.8865 H   0  0  0  0  0  0
  -20.9350  -29.8825   21.6951 H   0  0  0  0  0  0
  -26.0174  -38.2852   24.1396 H   0  0  0  0  0  0
  -29.8560  -20.6017   21.0482 H   0  0  0  0  0  0
  -25.1145  -20.0278   19.8072 H   0  0  0  0  0  0
  -25.8882  -22.3526   23.2383 H   0  0  0  0  0  0
  -24.8666  -23.7653   22.6506 H   0  0  0  0  0  0
  -23.2482  -22.1865   21.6385 H   0  0  0  0  0  0
  -24.2593  -20.7653   22.2180 H   0  0  0  0  0  0
  -28.4436  -23.9686   19.0676 H   0  0  0  0  0  0
  -30.0767  -23.8954   19.8056 H   0  0  0  0  0  0
  -27.3487  -24.5713   22.4649 H   0  0  0  0  0  0
  -26.6536  -24.4850   20.8108 H   0  0  0  0  0  0
  -30.6385  -17.6447   22.0111 H   0  0  0  0  0  0
  -31.4295  -17.5472   20.4006 H   0  0  0  0  0  0
  -27.9639  -15.9722   20.2075 H   0  0  0  0  0  0
  -28.2403  -16.5415   21.8707 H   0  0  0  0  0  0
  -29.1710  -23.0302   21.9125 H   0  0  0  0  0  0
  -29.3952  -17.6687   19.2305 H   0  0  0  0  0  0
  -25.1696  -22.9685   20.2229 H   0  0  0  0  0  0
  -29.4152  -25.5080   21.5674 H   0  0  0  0  0  0
  -25.6412  -17.5377   19.4192 H   0  0  0  0  0  0
  -27.2298  -17.2414   18.6704 H   0  0  0  0  0  0
  -26.1680  -18.4414   18.0212 H   0  0  0  0  0  0
  1 25  1  0  0  0
  1 30  2  0  0  0
  1 88  1  0  0  0
  2  3  1  0  0  0
  2 25  1  0  0  0
  2 89  1  0  0  0
  2 90  1  0  0  0
  3  4  1  0  0  0
  3 91  1  0  0  0
  3 92  1  0  0  0
  4  5  1  0  0  0
  4 93  1  0  0  0
  4 94  1  0  0  0
  5  6  1  0  0  0
  5 26  1  0  0  0
  5 95  1  0  0  0
  6 25  1  0  0  0
  6 96  1  0  0  0
  6 97  1  0  0  0
  7  8  2  0  0  0
  7 26  1  0  0  0
  7 29  1  0  0  0
  8  9  1  0  0  0
  8 22  1  0  0  0
  9 10  1  0  0  0
  9 27  2  0  0  0
 10 11  2  0  0  0
 10 15  1  0  0  0
 11 12  1  0  0  0
 11 98  1  0  0  0
 12 13  2  0  0  0
 12 99  1  0  0  0
 13 14  1  0  0  0
 13 31  1  0  0  0
 14 15  2  0  0  0
 14100  1  0  0  0
 15101  1  0  0  0
 16 17  2  0  0  0
 16 21  1  0  0  0
 16 31  1  0  0  0
 17 18  1  0  0  0
 17102  1  0  0  0
 18 19  2  0  0  0
 18103  1  0  0  0
 19 20  1  0  0  0
 19 24  1  0  0  0
 20 21  2  0  0  0
 20104  1  0  0  0
 21 23  1  0  0  0
 22 28  1  0  0  0
 22 32  2  0  0  0
 26 27  1  0  0  0
 28105  1  0  0  0
 28106  1  0  0  0
 29107  1  0  0  0
 29108  1  0  0  0
 33 34  1  0  0  0
 33 66  1  0  0  0
 33 70  2  0  0  0
 34 36  1  0  0  0
 34 59  1  0  0  0
 34109  1  0  0  0
 35 44  2  0  0  0
 35 45  1  0  0  0
 35 68  1  0  0  0
 36 56  1  0  0  0
 36110  1  0  0  0
 37 39  1  0  0  0
 37 47  1  0  0  0
 37 66  1  0  0  0
 37111  1  0  0  0
 38 43  2  0  0  0
 38 46  1  0  0  0
 38 47  1  0  0  0
 39 64  1  0  0  0
 39 67  2  0  0  0
 40 52  1  0  0  0
 40 53  2  0  0  0
 40 58  1  0  0  0
 41112  1  0  0  0
 41113  1  0  0  0
 41114  1  0  0  0
 41 48  1  0  0  0
 42 43  1  0  0  0
 42 66  1  0  0  0
 42115  1  0  0  0
 42116  1  0  0  0
 43 44  1  0  0  0
 44117  1  0  0  0
 45 46  2  0  0  0
 45118  1  0  0  0
 46119  1  0  0  0
 47120  1  0  0  0
 47121  1  0  0  0
 48 56  1  0  0  0
 48 65  1  0  0  0
 48122  1  0  0  0
 49 50  1  0  0  0
 49 53  1  0  0  0
 49 64  1  0  0  0
 49123  1  0  0  0
 50 51  1  0  0  0
 50124  1  0  0  0
 50125  1  0  0  0
 51 52  1  0  0  0
 51126  1  0  0  0
 51127  1  0  0  0
 52128  1  0  0  0
 52129  1  0  0  0
 53 54  1  0  0  0
 54 55  2  0  0  0
 54130  1  0  0  0
 55 57  1  0  0  0
 55131  1  0  0  0
 56 69  2  0  0  0
 57 58  2  0  0  0
 57132  1  0  0  0
 58133  1  0  0  0
 59 60  1  0  0  0
 59 61  1  0  0  0
 59 62  1  0  0  0
 60134  1  0  0  0
 60135  1  0  0  0
 60136  1  0  0  0
 61137  1  0  0  0
 61138  1  0  0  0
 61139  1  0  0  0
 62140  1  0  0  0
 62141  1  0  0  0
 62142  1  0  0  0
 63 65  1  0  0  0
 63143  1  0  0  0
 63144  1  0  0  0
 63145  1  0  0  0
 64146  1  0  0  0
 65147  1  0  0  0
 68 86  1  0  0  0
 71 73  2  0  0  0
 71 74  1  0  0  0
 71148  1  0  0  0
 72 75  2  0  0  0
 72 76  1  0  0  0
 72149  1  0  0  0
 73 75  1  0  0  0
 73 83  1  0  0  0
 74 76  2  0  0  0
 74 84  1  0  0  0
 75 85  1  0  0  0
 76 87  1  0  0  0
 77 78  1  0  0  0
 77 85  1  0  0  0
 77150  1  0  0  0
 77151  1  0  0  0
 78 85  1  0  0  0
 78152  1  0  0  0
 78153  1  0  0  0
 79 83  1  0  0  0
 79 86  1  0  0  0
 79154  1  0  0  0
 79155  1  0  0  0
 80 83  1  0  0  0
 80 86  1  0  0  0
 80156  1  0  0  0
 80157  1  0  0  0
 81 84  1  0  0  0
 81 88  1  0  0  0
 81158  1  0  0  0
 81159  1  0  0  0
 82 84  1  0  0  0
 82 88  1  0  0  0
 82160  1  0  0  0
 82161  1  0  0  0
 83162  1  0  0  0
 84163  1  0  0  0
 85164  1  0  0  0
 86165  1  0  0  0
 87166  1  0  0  0
 87167  1  0  0  0
 87168  1  0  0  0
M  ISO  4   1 100  68 101  86 101  88 100
M  END
> <chiral flag>
0

> <version>
0

> <s_m_source_file>
/data/baiqing/PycharmProjects/Reinvent-master-3.2/result/LINK_invent/BTK/process_docking_weight1_custom_sum_contain_oxygen_bond_distance_aromatic_linkinvent_7_9_3/rearranged_h_0169.sdf

> <i_m_source_file_index>
20

> <r_mmod_Potential_Energy-OPLS-2005>
326.661682128906

> <r_mmod_Stretch_Energy-OPLS-2005>
94.7598648071289

> <r_mmod_Bend_Energy-OPLS-2005>
239.709259033203

> <r_mmod_Torsional_Energy-OPLS-2005>
349.964996337891

> <r_mmod_Improper_Torsional_Energy-OPLS-2005>
5.2795786857605

> <r_mmod_Van_der_Waal_Energy-OPLS-2005>
144.406005859375

> <r_mmod_Electrostatic_Energy-OPLS-2005>
-366.657073974609

> <r_mmod_Solvation_Energy-OPLS-2005>
-202.060302734375

> <b_mmod_Minimization_Converged-OPLS-2005>
0

> <r_mmod_RMS_Derivative-OPLS-2005>
2.74035811424255

$$$$
20
                    3D
 Structure written by MMmdl.
162171  0  0  1  0            999 V2000
  -30.6078  -14.8055   20.4129 C   0  0  0  0  0  0
  -30.4259  -12.4840   19.4953 C   0  0  0  0  0  0
  -29.5139  -12.5102   18.2483 C   0  0  0  0  0  0
  -28.0408  -12.3295   18.6588 C   0  0  0  0  0  0
  -27.6364  -13.2437   19.8463 C   0  0  2  0  0  0
  -28.6786  -13.2187   20.9858 C   0  0  0  0  0  0
  -25.2480  -13.8222   20.5718 C   0  0  0  0  0  0
  -24.1785  -13.0449   20.9221 C   0  0  0  0  0  0
  -24.6393  -11.6931   20.8752 C   0  0  0  0  0  0
  -23.9075  -10.4299   21.0405 C   0  0  0  0  0  0
  -24.3623   -9.4210   21.9181 C   0  0  0  0  0  0
  -23.6298   -8.2245   22.0752 C   0  0  0  0  0  0
  -22.4281   -8.0281   21.3543 C   0  0  0  0  0  0
  -21.9915   -9.0257   20.4647 C   0  0  0  0  0  0
  -22.7245  -10.2135   20.3052 C   0  0  0  0  0  0
  -21.6855   -6.0737   22.5279 C   0  0  0  0  0  0
  -21.4019   -6.5641   23.8213 C   0  0  0  0  0  0
  -21.3661   -5.6792   24.9174 C   0  0  0  0  0  0
  -21.6040   -4.3054   24.7224 C   0  0  0  0  0  0
  -21.8820   -3.8149   23.4344 C   0  0  0  0  0  0
  -21.9193   -4.6966   22.3400 C   0  0  0  0  0  0
  -22.7805  -13.5221   21.1877 C   0  0  0  0  0  0
  -22.1661   -4.2150   21.0978 F   0  0  0  0  0  0
  -21.5623   -3.4534   25.7736 F   0  0  0  0  0  0
  -29.9767  -13.5734   20.4009 N   0  0  0  0  0  0
  -26.2912  -12.9452   20.3277 N   0  0  0  0  0  0
  -25.9327  -11.6581   20.5755 N   0  0  0  0  0  0
  -22.0454  -12.8208   22.0433 N   0  0  0  0  0  0
  -25.4160  -15.1947   20.4145 N   0  0  0  0  0  0
  -31.8115  -14.8351   20.1309 O   0  0  0  0  0  0
  -21.6640   -6.8879   21.4240 O   0  0  0  0  0  0
  -22.3490  -14.5524   20.6716 O   0  0  0  0  0  0
  -24.6355  -31.8523   23.1958 C   0  0  0  0  0  0
  -25.9162  -32.4742   23.8315 C   0  0  1  0  0  0
  -27.2122  -27.2159   20.1339 C   0  0  0  0  0  0
  -25.5945  -33.8544   24.2239 N   0  0  0  0  0  0
  -23.4346  -30.4747   21.5401 C   0  0  2  0  0  0
  -24.8817  -28.9192   20.1078 C   0  0  0  0  0  0
  -22.7530  -29.4586   22.4893 C   0  0  0  0  0  0
  -18.0299  -28.1393   22.8481 C   0  0  0  0  0  0
  -24.1490  -36.7272   23.2641 C   0  0  0  0  0  0
  -25.9852  -30.7508   21.3836 C   0  0  0  0  0  0
  -26.0566  -29.3705   20.7230 C   0  0  0  0  0  0
  -27.2249  -28.5324   20.7231 C   0  0  0  0  0  0
  -26.0140  -26.8528   19.4774 C   0  0  0  0  0  0
  -24.8688  -27.6708   19.4716 C   0  0  0  0  0  0
  -23.6553  -29.8113   20.1558 C   0  0  0  0  0  0
  -25.4120  -36.3059   24.0324 C   0  0  1  0  0  0
  -20.5906  -28.3705   23.1255 C   0  0  2  0  0  0
  -20.6783  -26.9419   22.5403 C   0  0  0  0  0  0
  -19.5757  -26.6384   21.5209 C   0  0  0  0  0  0
  -18.1939  -26.7932   22.1624 C   0  0  0  0  0  0
  -19.1555  -28.8868   23.2863 C   0  0  0  0  0  0
  -18.9471  -30.1467   23.8884 C   0  0  0  0  0  0
  -17.6471  -30.6590   24.0560 C   0  0  0  0  0  0
  -25.9065  -34.9433   23.5086 C   0  0  0  0  0  0
  -16.5359  -29.9084   23.6333 C   0  0  0  0  0  0
  -16.7289  -28.6502   23.0354 C   0  0  0  0  0  0
  -26.4508  -31.6579   25.0721 C   0  0  0  0  0  0
  -25.3712  -31.3739   26.1429 C   0  0  0  0  0  0
  -27.0367  -30.2988   24.6242 C   0  0  0  0  0  0
  -27.6056  -32.4323   25.7500 C   0  0  0  0  0  0
  -27.5577  -37.1797   24.8469 C   0  0  0  0  0  0
  -21.4234  -29.3045   22.3642 N   0  0  0  0  0  0
  -26.4292  -37.3760   23.9410 N   0  0  0  0  0  0
  -24.7045  -31.0449   22.0956 N   0  0  0  0  0  0
  -23.4213  -28.8127   23.3006 O   0  0  0  0  0  0
  -28.2774  -26.2697   20.2099 O   0  0  0  0  0  0
  -26.5638  -34.8914   22.4654 O   0  0  0  0  0  0
  -23.5491  -32.1367   23.7224 O   0  0  0  0  0  0
  -29.4751  -18.6142   20.3205 C   0  0  0  0  0  0
  -29.5620  -19.8319   19.4992 C   0  0  0  0  0  0
  -30.1612  -19.6057   18.2231 C   0  0  0  0  0  0
  -30.7402  -18.3534   17.9180 C   0  0  0  0  0  0
  -30.0247  -17.3115   19.9012 C   0  0  0  0  0  0
  -28.4217  -22.1092   20.9985 C   0  0  0  0  0  0
  -28.9873  -21.3386   19.7587 C   0  0  2  0  0  0
  -28.9285  -23.5435   20.5190 C   0  0  1  0  0  0
  -29.8094  -22.6801   19.5440 C   0  0  1  0  0  0
  -30.1528  -20.6728   17.1233 C   0  0  0  0  0  0
  -31.4752  -18.0923   16.6123 C   0  0  0  0  0  0
  -31.3107  -22.6464   19.8260 C   0  0  0  0  0  0
  -27.9709  -24.7839   20.0476 C   0  0  0  0  0  0
  -30.6705  -17.2823   18.7210 N   0  0  0  0  0  0
  -29.8749  -15.9910   20.5941 N   0  0  0  0  0  0
  -31.4696  -12.5923   19.1960 H   0  0  0  0  0  0
  -30.3625  -11.5185   19.9996 H   0  0  0  0  0  0
  -29.8072  -11.7276   17.5469 H   0  0  0  0  0  0
  -29.6360  -13.4583   17.7218 H   0  0  0  0  0  0
  -27.9062  -11.2841   18.9388 H   0  0  0  0  0  0
  -27.3841  -12.5034   17.8055 H   0  0  0  0  0  0
  -27.6198  -14.2577   19.4464 H   0  0  0  0  0  0
  -28.7230  -12.2338   21.4528 H   0  0  0  0  0  0
  -28.4071  -13.9212   21.7746 H   0  0  0  0  0  0
  -25.2764   -9.5686   22.4762 H   0  0  0  0  0  0
  -24.0006   -7.4635   22.7468 H   0  0  0  0  0  0
  -21.0845   -8.8776   19.8957 H   0  0  0  0  0  0
  -22.3700  -10.9672   19.6166 H   0  0  0  0  0  0
  -21.2018   -7.6150   23.9719 H   0  0  0  0  0  0
  -21.1482   -6.0519   25.9076 H   0  0  0  0  0  0
  -22.0598   -2.7610   23.2842 H   0  0  0  0  0  0
  -22.4076  -11.9879   22.4832 H   0  0  0  0  0  0
  -21.1069  -13.1231   22.2630 H   0  0  0  0  0  0
  -24.6451  -15.8456   20.5193 H   0  0  0  0  0  0
  -26.2583  -15.6347   20.0666 H   0  0  0  0  0  0
  -26.7228  -32.5375   23.1052 H   0  0  0  0  0  0
  -25.0081  -33.9673   25.0378 H   0  0  0  0  0  0
  -22.7325  -31.2980   21.3931 H   0  0  0  0  0  0
  -23.3756  -35.9601   23.3304 H   0  0  0  0  0  0
  -24.3575  -36.8893   22.2054 H   0  0  0  0  0  0
  -23.7241  -37.6472   23.6667 H   0  0  0  0  0  0
  -26.1314  -31.5103   20.6143 H   0  0  0  0  0  0
  -26.8596  -30.7982   22.0212 H   0  0  0  0  0  0
  -28.1204  -28.8697   21.2257 H   0  0  0  0  0  0
  -25.9226  -25.9015   18.9759 H   0  0  0  0  0  0
  -23.9722  -27.3211   18.9783 H   0  0  0  0  0  0
  -23.7858  -30.5888   19.4024 H   0  0  0  0  0  0
  -22.7722  -29.2492   19.8470 H   0  0  0  0  0  0
  -25.1303  -36.1900   25.0815 H   0  0  0  0  0  0
  -20.9997  -28.3284   24.1379 H   0  0  0  0  0  0
  -20.5672  -26.2319   23.3613 H   0  0  0  0  0  0
  -21.6650  -26.7432   22.1202 H   0  0  0  0  0  0
  -19.6913  -25.6289   21.1252 H   0  0  0  0  0  0
  -19.6692  -27.3182   20.6727 H   0  0  0  0  0  0
  -17.4205  -26.6676   21.4034 H   0  0  0  0  0  0
  -18.0345  -26.0082   22.9028 H   0  0  0  0  0  0
  -19.7948  -30.7287   24.2250 H   0  0  0  0  0  0
  -17.5023  -31.6271   24.5159 H   0  0  0  0  0  0
  -15.5361  -30.2978   23.7668 H   0  0  0  0  0  0
  -15.8689  -28.0818   22.7074 H   0  0  0  0  0  0
  -24.5902  -30.7076   25.7752 H   0  0  0  0  0  0
  -24.8891  -32.2912   26.4819 H   0  0  0  0  0  0
  -25.8013  -30.8943   27.0230 H   0  0  0  0  0  0
  -26.2969  -29.6726   24.1245 H   0  0  0  0  0  0
  -27.4010  -29.7261   25.4780 H   0  0  0  0  0  0
  -27.8861  -30.4251   23.9525 H   0  0  0  0  0  0
  -27.2667  -33.3634   26.2050 H   0  0  0  0  0  0
  -28.3884  -32.6861   25.0341 H   0  0  0  0  0  0
  -28.0705  -31.8465   26.5440 H   0  0  0  0  0  0
  -28.2599  -38.0089   24.7506 H   0  0  0  0  0  0
  -28.1069  -36.2622   24.6311 H   0  0  0  0  0  0
  -27.2297  -37.1461   25.8872 H   0  0  0  0  0  0
  -20.9429  -29.8775   21.6848 H   0  0  0  0  0  0
  -26.0169  -38.2834   24.1399 H   0  0  0  0  0  0
  -28.9601  -18.6779   21.2691 H   0  0  0  0  0  0
  -28.9170  -21.7985   21.9199 H   0  0  0  0  0  0
  -27.3403  -22.0244   21.1109 H   0  0  0  0  0  0
  -28.1469  -21.3707   19.0632 H   0  0  0  0  0  0
  -29.5635  -23.9147   21.3247 H   0  0  0  0  0  0
  -29.6439  -23.0416   18.5290 H   0  0  0  0  0  0
  -31.0417  -21.3004   17.1663 H   0  0  0  0  0  0
  -29.2684  -21.3052   17.1552 H   0  0  0  0  0  0
  -30.1216  -20.2282   16.1296 H   0  0  0  0  0  0
  -32.1402  -18.9192   16.3643 H   0  0  0  0  0  0
  -30.7670  -17.9582   15.7943 H   0  0  0  0  0  0
  -32.0887  -17.1921   16.6704 H   0  0  0  0  0  0
  -31.8376  -21.9516   19.1743 H   0  0  0  0  0  0
  -31.5133  -22.3340   20.8509 H   0  0  0  0  0  0
  -31.7607  -23.6299   19.6869 H   0  0  0  0  0  0
  -27.0206  -24.6249   20.5580 H   0  0  0  0  0  0
  -27.7489  -24.6336   18.9908 H   0  0  0  0  0  0
  -28.9975  -15.8714   21.0739 H   0  0  0  0  0  0
  1 25  1  0  0  0
  1 30  2  0  0  0
  1 85  1  0  0  0
  2  3  1  0  0  0
  2 25  1  0  0  0
  2 86  1  0  0  0
  2 87  1  0  0  0
  3  4  1  0  0  0
  3 88  1  0  0  0
  3 89  1  0  0  0
  4  5  1  0  0  0
  4 90  1  0  0  0
  4 91  1  0  0  0
  5  6  1  0  0  0
  5 26  1  0  0  0
  5 92  1  0  0  0
  6 25  1  0  0  0
  6 93  1  0  0  0
  6 94  1  0  0  0
  7  8  2  0  0  0
  7 26  1  0  0  0
  7 29  1  0  0  0
  8  9  1  0  0  0
  8 22  1  0  0  0
  9 10  1  0  0  0
  9 27  2  0  0  0
 10 11  2  0  0  0
 10 15  1  0  0  0
 11 12  1  0  0  0
 11 95  1  0  0  0
 12 13  2  0  0  0
 12 96  1  0  0  0
 13 14  1  0  0  0
 13 31  1  0  0  0
 14 15  2  0  0  0
 14 97  1  0  0  0
 15 98  1  0  0  0
 16 17  2  0  0  0
 16 21  1  0  0  0
 16 31  1  0  0  0
 17 18  1  0  0  0
 17 99  1  0  0  0
 18 19  2  0  0  0
 18100  1  0  0  0
 19 20  1  0  0  0
 19 24  1  0  0  0
 20 21  2  0  0  0
 20101  1  0  0  0
 21 23  1  0  0  0
 22 28  1  0  0  0
 22 32  2  0  0  0
 26 27  1  0  0  0
 28102  1  0  0  0
 28103  1  0  0  0
 29104  1  0  0  0
 29105  1  0  0  0
 33 34  1  0  0  0
 33 66  1  0  0  0
 33 70  2  0  0  0
 34 36  1  0  0  0
 34 59  1  0  0  0
 34106  1  0  0  0
 35 44  2  0  0  0
 35 45  1  0  0  0
 35 68  1  0  0  0
 36 56  1  0  0  0
 36107  1  0  0  0
 37 39  1  0  0  0
 37 47  1  0  0  0
 37 66  1  0  0  0
 37108  1  0  0  0
 38 43  2  0  0  0
 38 46  1  0  0  0
 38 47  1  0  0  0
 39 64  1  0  0  0
 39 67  2  0  0  0
 40 52  1  0  0  0
 40 53  2  0  0  0
 40 58  1  0  0  0
 41109  1  0  0  0
 41110  1  0  0  0
 41111  1  0  0  0
 41 48  1  0  0  0
 42 43  1  0  0  0
 42 66  1  0  0  0
 42112  1  0  0  0
 42113  1  0  0  0
 43 44  1  0  0  0
 44114  1  0  0  0
 45 46  2  0  0  0
 45115  1  0  0  0
 46116  1  0  0  0
 47117  1  0  0  0
 47118  1  0  0  0
 48 56  1  0  0  0
 48 65  1  0  0  0
 48119  1  0  0  0
 49 50  1  0  0  0
 49 53  1  0  0  0
 49 64  1  0  0  0
 49120  1  0  0  0
 50 51  1  0  0  0
 50121  1  0  0  0
 50122  1  0  0  0
 51 52  1  0  0  0
 51123  1  0  0  0
 51124  1  0  0  0
 52125  1  0  0  0
 52126  1  0  0  0
 53 54  1  0  0  0
 54 55  2  0  0  0
 54127  1  0  0  0
 55 57  1  0  0  0
 55128  1  0  0  0
 56 69  2  0  0  0
 57 58  2  0  0  0
 57129  1  0  0  0
 58130  1  0  0  0
 59 60  1  0  0  0
 59 61  1  0  0  0
 59 62  1  0  0  0
 60131  1  0  0  0
 60132  1  0  0  0
 60133  1  0  0  0
 61134  1  0  0  0
 61135  1  0  0  0
 61136  1  0  0  0
 62137  1  0  0  0
 62138  1  0  0  0
 62139  1  0  0  0
 63 65  1  0  0  0
 63140  1  0  0  0
 63141  1  0  0  0
 63142  1  0  0  0
 64143  1  0  0  0
 65144  1  0  0  0
 68 83  1  0  0  0
 71 72  2  0  0  0
 71 75  1  0  0  0
 71145  1  0  0  0
 72 73  1  0  0  0
 72 77  1  0  0  0
 73 74  2  0  0  0
 73 80  1  0  0  0
 74 81  1  0  0  0
 74 84  1  0  0  0
 75 84  2  0  0  0
 75 85  1  0  0  0
 76 77  1  0  0  0
 76 78  1  0  0  0
 76146  1  0  0  0
 76147  1  0  0  0
 77 79  1  0  0  0
 77148  1  0  0  0
 78 79  1  0  0  0
 78 83  1  0  0  0
 78149  1  0  0  0
 79 82  1  0  0  0
 79150  1  0  0  0
 80151  1  0  0  0
 80152  1  0  0  0
 80153  1  0  0  0
 81154  1  0  0  0
 81155  1  0  0  0
 81156  1  0  0  0
 82157  1  0  0  0
 82158  1  0  0  0
 82159  1  0  0  0
 83160  1  0  0  0
 83161  1  0  0  0
 85162  1  0  0  0
M  ISO  4   1 100  68 101  83 101  85 100
M  END
> <chiral flag>
0

> <version>
0

> <s_m_source_file>
/data/baiqing/PycharmProjects/Reinvent-master-3.2/result/LINK_invent/BTK/process_docking_weight1_custom_sum_contain_oxygen_bond_distance_aromatic_linkinvent_7_9_3/rearranged_h_0169.sdf

> <i_m_source_file_index>
21

> <r_mmod_Potential_Energy-OPLS-2005>
181.729217529297

> <r_mmod_Stretch_Energy-OPLS-2005>
162.506423950195

> <r_mmod_Bend_Energy-OPLS-2005>
225.278305053711

> <r_mmod_Torsional_Energy-OPLS-2005>
258.461730957031

> <r_mmod_Improper_Torsional_Energy-OPLS-2005>
4.54057550430298

> <r_mmod_Van_der_Waal_Energy-OPLS-2005>
149.791412353516

> <r_mmod_Electrostatic_Energy-OPLS-2005>
-507.183837890625

> <r_mmod_Solvation_Energy-OPLS-2005>
-229.097503662109

> <b_mmod_Minimization_Converged-OPLS-2005>
0

> <r_mmod_RMS_Derivative-OPLS-2005>
0.973559141159058

$$$$
21
                    3D
 Structure written by MMmdl.
174184  0  0  1  0            999 V2000
  -30.7160  -14.5292   20.6049 C   0  0  0  0  0  0
  -30.4272  -12.3595   19.4309 C   0  0  0  0  0  0
  -29.4938  -12.5067   18.2115 C   0  0  0  0  0  0
  -28.0204  -12.3298   18.6267 C   0  0  0  0  0  0
  -27.6579  -13.1823   19.8674 C   0  0  2  0  0  0
  -28.7070  -12.9746   20.9925 C   0  0  0  0  0  0
  -25.2585  -13.8091   20.5638 C   0  0  0  0  0  0
  -24.1834  -13.0404   20.9192 C   0  0  0  0  0  0
  -24.6371  -11.6866   20.8765 C   0  0  0  0  0  0
  -23.9030  -10.4267   21.0435 C   0  0  0  0  0  0
  -24.3589   -9.4180   21.9205 C   0  0  0  0  0  0
  -23.6270   -8.2212   22.0761 C   0  0  0  0  0  0
  -22.4253   -8.0260   21.3548 C   0  0  0  0  0  0
  -21.9888   -9.0236   20.4653 C   0  0  0  0  0  0
  -22.7212  -10.2116   20.3074 C   0  0  0  0  0  0
  -21.6836   -6.0722   22.5281 C   0  0  0  0  0  0
  -21.4000   -6.5632   23.8212 C   0  0  0  0  0  0
  -21.3662   -5.6791   24.9179 C   0  0  0  0  0  0
  -21.6045   -4.3051   24.7231 C   0  0  0  0  0  0
  -21.8818   -3.8139   23.4352 C   0  0  0  0  0  0
  -21.9185   -4.6953   22.3408 C   0  0  0  0  0  0
  -22.7864  -13.5228   21.1850 C   0  0  0  0  0  0
  -22.1655   -4.2139   21.0982 F   0  0  0  0  0  0
  -21.5638   -3.4538   25.7746 F   0  0  0  0  0  0
  -30.0190  -13.3548   20.4492 N   0  0  0  0  0  0
  -26.2996  -12.9211   20.3325 N   0  0  0  0  0  0
  -25.9283  -11.6404   20.5783 N   0  0  0  0  0  0
  -22.0484  -12.8245   22.0410 N   0  0  0  0  0  0
  -25.4282  -15.1800   20.3959 N   0  0  0  0  0  0
  -31.8275  -14.6517   20.0770 O   0  0  0  0  0  0
  -21.6620   -6.8860   21.4240 O   0  0  0  0  0  0
  -22.3562  -14.5534   20.6687 O   0  0  0  0  0  0
  -24.6145  -31.8661   23.2071 C   0  0  0  0  0  0
  -25.9027  -32.4813   23.8379 C   0  0  1  0  0  0
  -27.2414  -27.4205   20.1116 C   0  0  0  0  0  0
  -25.5873  -33.8613   24.2308 N   0  0  0  0  0  0
  -23.4047  -30.4883   21.5460 C   0  0  2  0  0  0
  -24.8538  -28.9475   20.1162 C   0  0  0  0  0  0
  -22.7408  -29.4659   22.4964 C   0  0  0  0  0  0
  -18.0277  -28.1383   22.8509 C   0  0  0  0  0  0
  -24.1481  -36.7307   23.2644 C   0  0  0  0  0  0
  -25.9337  -30.8297   21.3607 C   0  0  0  0  0  0
  -26.0137  -29.4626   20.7090 C   0  0  0  0  0  0
  -27.2107  -28.7097   20.6947 C   0  0  0  0  0  0
  -26.0633  -26.9211   19.5115 C   0  0  0  0  0  0
  -24.8747  -27.6774   19.5130 C   0  0  0  0  0  0
  -23.6157  -29.8156   20.1623 C   0  0  0  0  0  0
  -25.4102  -36.3100   24.0338 C   0  0  1  0  0  0
  -20.5865  -28.3664   23.1317 C   0  0  2  0  0  0
  -20.6755  -26.9395   22.5417 C   0  0  0  0  0  0
  -19.5732  -26.6390   21.5209 C   0  0  0  0  0  0
  -18.1916  -26.7938   22.1630 C   0  0  0  0  0  0
  -19.1526  -28.8838   23.2918 C   0  0  0  0  0  0
  -18.9460  -30.1447   23.8922 C   0  0  0  0  0  0
  -17.6464  -30.6592   24.0574 C   0  0  0  0  0  0
  -25.9025  -34.9470   23.5125 C   0  0  0  0  0  0
  -16.5351  -29.9102   23.6332 C   0  0  0  0  0  0
  -16.7269  -28.6514   23.0359 C   0  0  0  0  0  0
  -26.4454  -31.6605   25.0719 C   0  0  0  0  0  0
  -25.3718  -31.3731   26.1465 C   0  0  0  0  0  0
  -27.0287  -30.3048   24.6108 C   0  0  0  0  0  0
  -27.6024  -32.4326   25.7485 C   0  0  0  0  0  0
  -27.5577  -37.1803   24.8466 C   0  0  0  0  0  0
  -21.4131  -29.3036   22.3718 N   0  0  0  0  0  0
  -26.4287  -37.3783   23.9411 N   0  0  0  0  0  0
  -24.6691  -31.0761   22.0966 N   0  0  0  0  0  0
  -23.4174  -28.8198   23.3012 O   0  0  0  0  0  0
  -28.4166  -26.6929   20.1241 O   0  0  0  0  0  0
  -26.5602  -34.8926   22.4694 O   0  0  0  0  0  0
  -23.5336  -32.1419   23.7462 O   0  0  0  0  0  0
  -31.0837  -23.7135   22.2075 C   0  0  0  0  0  0
  -30.2763  -25.7624   21.8867 C   0  0  0  0  0  0
  -31.2637  -25.0830   22.5368 C   0  0  0  0  0  0
  -29.9836  -23.5764   21.4007 C   0  0  0  0  0  0
  -31.0206  -17.9752   21.3148 C   0  0  0  0  0  0
  -28.6267  -17.4318   20.8839 C   0  0  0  0  0  0
  -30.0610  -21.7551   19.5776 C   0  0  0  0  0  0
  -31.1677  -16.5675   21.9674 C   0  0  0  0  0  0
  -28.8540  -16.0546   21.5533 C   0  0  0  0  0  0
  -29.7652  -20.2377   19.5565 C   0  0  0  0  0  0
  -29.3968  -22.2857   20.8514 C   0  0  1  0  0  0
  -29.5703  -18.5030   21.4558 C   0  0  0  0  0  0
  -29.5105  -21.0487   21.7854 C   0  0  1  0  0  0
  -32.3232  -25.6735   23.4280 C   0  0  0  0  0  0
  -28.5343  -21.1339   22.9752 C   0  0  0  0  0  0
  -28.3303  -25.2978   20.3634 C   0  0  0  0  0  0
  -29.4886  -24.8736   21.1678 N   0  0  0  0  0  0
  -30.2404  -15.5598   21.3884 N   0  0  0  0  0  0
  -29.2616  -19.8738   20.9064 N   0  3  1  0  0  0
  -31.4658  -12.4703   19.1146 H   0  0  0  0  0  0
  -30.3632  -11.3497   19.8406 H   0  0  0  0  0  0
  -29.7559  -11.7741   17.4469 H   0  0  0  0  0  0
  -29.6348  -13.4881   17.7562 H   0  0  0  0  0  0
  -27.8598  -11.2734   18.8452 H   0  0  0  0  0  0
  -27.3599  -12.5715   17.7932 H   0  0  0  0  0  0
  -27.6892  -14.2101   19.5114 H   0  0  0  0  0  0
  -28.7231  -11.9229   21.2833 H   0  0  0  0  0  0
  -28.4630  -13.4911   21.9191 H   0  0  0  0  0  0
  -25.2736   -9.5646   22.4781 H   0  0  0  0  0  0
  -23.9977   -7.4594   22.7472 H   0  0  0  0  0  0
  -21.0820   -8.8753   19.8955 H   0  0  0  0  0  0
  -22.3679  -10.9657   19.6182 H   0  0  0  0  0  0
  -21.1981   -7.6140   23.9712 H   0  0  0  0  0  0
  -21.1491   -6.0522   25.9083 H   0  0  0  0  0  0
  -22.0596   -2.7601   23.2856 H   0  0  0  0  0  0
  -22.4071  -11.9906   22.4825 H   0  0  0  0  0  0
  -21.1104  -13.1291   22.2593 H   0  0  0  0  0  0
  -24.6555  -15.8290   20.4958 H   0  0  0  0  0  0
  -26.2679  -15.6146   20.0373 H   0  0  0  0  0  0
  -26.7098  -32.5520   23.1145 H   0  0  0  0  0  0
  -24.9987  -33.9765   25.0431 H   0  0  0  0  0  0
  -22.6949  -31.3059   21.4025 H   0  0  0  0  0  0
  -23.3735  -35.9645   23.3308 H   0  0  0  0  0  0
  -24.3578  -36.8919   22.2058 H   0  0  0  0  0  0
  -23.7243  -37.6519   23.6657 H   0  0  0  0  0  0
  -26.0463  -31.5956   20.5923 H   0  0  0  0  0  0
  -26.8205  -30.8851   21.9805 H   0  0  0  0  0  0
  -28.1085  -29.1076   21.1473 H   0  0  0  0  0  0
  -26.0599  -25.9504   19.0361 H   0  0  0  0  0  0
  -23.9829  -27.2772   19.0497 H   0  0  0  0  0  0
  -23.7255  -30.5881   19.4000 H   0  0  0  0  0  0
  -22.7416  -29.2325   19.8659 H   0  0  0  0  0  0
  -25.1282  -36.1956   25.0831 H   0  0  0  0  0  0
  -20.9968  -28.3219   24.1433 H   0  0  0  0  0  0
  -20.5635  -26.2267   23.3603 H   0  0  0  0  0  0
  -21.6628  -26.7429   22.1207 H   0  0  0  0  0  0
  -19.6881  -25.6302   21.1232 H   0  0  0  0  0  0
  -19.6671  -27.3212   20.6744 H   0  0  0  0  0  0
  -17.4179  -26.6696   21.4037 H   0  0  0  0  0  0
  -18.0319  -26.0084   22.9029 H   0  0  0  0  0  0
  -19.7936  -30.7261   24.2289 H   0  0  0  0  0  0
  -17.5025  -31.6276   24.5172 H   0  0  0  0  0  0
  -15.5353  -30.3014   23.7641 H   0  0  0  0  0  0
  -15.8669  -28.0839   22.7056 H   0  0  0  0  0  0
  -24.5870  -30.7104   25.7799 H   0  0  0  0  0  0
  -24.8933  -32.2901   26.4915 H   0  0  0  0  0  0
  -25.8058  -30.8893   27.0221 H   0  0  0  0  0  0
  -26.2845  -29.6825   24.1127 H   0  0  0  0  0  0
  -27.4022  -29.7270   25.4571 H   0  0  0  0  0  0
  -27.8688  -30.4371   23.9287 H   0  0  0  0  0  0
  -27.2628  -33.3604   26.2098 H   0  0  0  0  0  0
  -28.3811  -32.6919   25.0300 H   0  0  0  0  0  0
  -28.0714  -31.8435   26.5375 H   0  0  0  0  0  0
  -28.2584  -38.0110   24.7502 H   0  0  0  0  0  0
  -28.1078  -36.2637   24.6284 H   0  0  0  0  0  0
  -27.2299  -37.1438   25.8872 H   0  0  0  0  0  0
  -20.9274  -29.8787   21.6976 H   0  0  0  0  0  0
  -26.0174  -38.2857   24.1415 H   0  0  0  0  0  0
  -31.7043  -22.8991   22.5565 H   0  0  0  0  0  0
  -30.0622  -26.8239   21.8793 H   0  0  0  0  0  0
  -31.3098  -17.8913   20.2678 H   0  0  0  0  0  0
  -31.7203  -18.6714   21.7776 H   0  0  0  0  0  0
  -27.5896  -17.7328   21.0374 H   0  0  0  0  0  0
  -28.7666  -17.3444   19.8054 H   0  0  0  0  0  0
  -29.7201  -22.2704   18.6795 H   0  0  0  0  0  0
  -31.1406  -21.8982   19.6425 H   0  0  0  0  0  0
  -30.9659  -16.6412   23.0376 H   0  0  0  0  0  0
  -32.2097  -16.2478   21.9075 H   0  0  0  0  0  0
  -28.0923  -15.4070   21.1586 H   0  0  0  0  0  0
  -28.6383  -16.1177   22.6214 H   0  0  0  0  0  0
  -30.6665  -19.6999   19.2697 H   0  0  0  0  0  0
  -28.9992  -19.9931   18.8200 H   0  0  0  0  0  0
  -28.3398  -22.4467   20.6338 H   0  0  0  0  0  0
  -29.3601  -18.5434   22.5242 H   0  0  0  0  0  0
  -30.5328  -20.9580   22.1562 H   0  0  0  0  0  0
  -32.9349  -24.8935   23.8825 H   0  0  0  0  0  0
  -31.8639  -26.2539   24.2285 H   0  0  0  0  0  0
  -32.9764  -26.3348   22.8585 H   0  0  0  0  0  0
  -27.4949  -21.1530   22.6463 H   0  0  0  0  0  0
  -28.7112  -22.0437   23.5486 H   0  0  0  0  0  0
  -28.6534  -20.3024   23.6684 H   0  0  0  0  0  0
  -27.4312  -25.0389   20.9261 H   0  0  0  0  0  0
  -28.3354  -24.7563   19.4164 H   0  0  0  0  0  0
  -28.2582  -19.8775   20.7970 H   0  0  0  0  0  0
  1 25  1  0  0  0
  1 30  2  0  0  0
  1 88  1  0  0  0
  2  3  1  0  0  0
  2 25  1  0  0  0
  2 90  1  0  0  0
  2 91  1  0  0  0
  3  4  1  0  0  0
  3 92  1  0  0  0
  3 93  1  0  0  0
  4  5  1  0  0  0
  4 94  1  0  0  0
  4 95  1  0  0  0
  5  6  1  0  0  0
  5 26  1  0  0  0
  5 96  1  0  0  0
  6 25  1  0  0  0
  6 97  1  0  0  0
  6 98  1  0  0  0
  7  8  2  0  0  0
  7 26  1  0  0  0
  7 29  1  0  0  0
  8  9  1  0  0  0
  8 22  1  0  0  0
  9 10  1  0  0  0
  9 27  2  0  0  0
 10 11  2  0  0  0
 10 15  1  0  0  0
 11 12  1  0  0  0
 11 99  1  0  0  0
 12 13  2  0  0  0
 12100  1  0  0  0
 13 14  1  0  0  0
 13 31  1  0  0  0
 14 15  2  0  0  0
 14101  1  0  0  0
 15102  1  0  0  0
 16 17  2  0  0  0
 16 21  1  0  0  0
 16 31  1  0  0  0
 17 18  1  0  0  0
 17103  1  0  0  0
 18 19  2  0  0  0
 18104  1  0  0  0
 19 20  1  0  0  0
 19 24  1  0  0  0
 20 21  2  0  0  0
 20105  1  0  0  0
 21 23  1  0  0  0
 22 28  1  0  0  0
 22 32  2  0  0  0
 26 27  1  0  0  0
 28106  1  0  0  0
 28107  1  0  0  0
 29108  1  0  0  0
 29109  1  0  0  0
 33 34  1  0  0  0
 33 66  1  0  0  0
 33 70  2  0  0  0
 34 36  1  0  0  0
 34 59  1  0  0  0
 34110  1  0  0  0
 35 44  2  0  0  0
 35 45  1  0  0  0
 35 68  1  0  0  0
 36 56  1  0  0  0
 36111  1  0  0  0
 37 39  1  0  0  0
 37 47  1  0  0  0
 37 66  1  0  0  0
 37112  1  0  0  0
 38 43  2  0  0  0
 38 46  1  0  0  0
 38 47  1  0  0  0
 39 64  1  0  0  0
 39 67  2  0  0  0
 40 52  1  0  0  0
 40 53  2  0  0  0
 40 58  1  0  0  0
 41113  1  0  0  0
 41114  1  0  0  0
 41115  1  0  0  0
 41 48  1  0  0  0
 42 43  1  0  0  0
 42 66  1  0  0  0
 42116  1  0  0  0
 42117  1  0  0  0
 43 44  1  0  0  0
 44118  1  0  0  0
 45 46  2  0  0  0
 45119  1  0  0  0
 46120  1  0  0  0
 47121  1  0  0  0
 47122  1  0  0  0
 48 56  1  0  0  0
 48 65  1  0  0  0
 48123  1  0  0  0
 49 50  1  0  0  0
 49 53  1  0  0  0
 49 64  1  0  0  0
 49124  1  0  0  0
 50 51  1  0  0  0
 50125  1  0  0  0
 50126  1  0  0  0
 51 52  1  0  0  0
 51127  1  0  0  0
 51128  1  0  0  0
 52129  1  0  0  0
 52130  1  0  0  0
 53 54  1  0  0  0
 54 55  2  0  0  0
 54131  1  0  0  0
 55 57  1  0  0  0
 55132  1  0  0  0
 56 69  2  0  0  0
 57 58  2  0  0  0
 57133  1  0  0  0
 58134  1  0  0  0
 59 60  1  0  0  0
 59 61  1  0  0  0
 59 62  1  0  0  0
 60135  1  0  0  0
 60136  1  0  0  0
 60137  1  0  0  0
 61138  1  0  0  0
 61139  1  0  0  0
 61140  1  0  0  0
 62141  1  0  0  0
 62142  1  0  0  0
 62143  1  0  0  0
 63 65  1  0  0  0
 63144  1  0  0  0
 63145  1  0  0  0
 63146  1  0  0  0
 64147  1  0  0  0
 65148  1  0  0  0
 68 86  1  0  0  0
 71 73  1  0  0  0
 71 74  2  0  0  0
 71149  1  0  0  0
 72 73  2  0  0  0
 72 87  1  0  0  0
 72150  1  0  0  0
 73 84  1  0  0  0
 74 87  1  0  0  0
 74 81  1  0  0  0
 75 78  1  0  0  0
 75151  1  0  0  0
 75152  1  0  0  0
 75 82  1  0  0  0
 76 79  1  0  0  0
 76 82  1  0  0  0
 76153  1  0  0  0
 76154  1  0  0  0
 77 80  1  0  0  0
 77 81  1  0  0  0
 77155  1  0  0  0
 77156  1  0  0  0
 78 88  1  0  0  0
 78157  1  0  0  0
 78158  1  0  0  0
 79 88  1  0  0  0
 79159  1  0  0  0
 79160  1  0  0  0
 80161  1  0  0  0
 80162  1  0  0  0
 80 89  1  0  0  0
 81 83  1  0  0  0
 81163  1  0  0  0
 82 89  1  0  0  0
 82164  1  0  0  0
 83 85  1  0  0  0
 83 89  1  0  0  0
 83165  1  0  0  0
 84166  1  0  0  0
 84167  1  0  0  0
 84168  1  0  0  0
 85169  1  0  0  0
 85170  1  0  0  0
 85171  1  0  0  0
 86 87  1  0  0  0
 86172  1  0  0  0
 86173  1  0  0  0
 89174  1  0  0  0
M  CHG  1  89   1
M  ISO  4   1 100  68 101  86 101  88 100
M  END
> <chiral flag>
0

> <version>
0

> <s_m_source_file>
/data/baiqing/PycharmProjects/Reinvent-master-3.2/result/LINK_invent/BTK/process_docking_weight1_custom_sum_contain_oxygen_bond_distance_aromatic_linkinvent_7_9_3/rearranged_h_0169.sdf

> <i_m_source_file_index>
22

> <r_mmod_Potential_Energy-OPLS-2005>
166.679290771484

> <r_mmod_Stretch_Energy-OPLS-2005>
52.3844718933105

> <r_mmod_Bend_Energy-OPLS-2005>
171.606689453125

> <r_mmod_Torsional_Energy-OPLS-2005>
373.4775390625

> <r_mmod_Improper_Torsional_Energy-OPLS-2005>
2.6383204460144

> <r_mmod_Van_der_Waal_Energy-OPLS-2005>
137.215667724609

> <r_mmod_Electrostatic_Energy-OPLS-2005>
-148.618927001953

> <r_mmod_Solvation_Energy-OPLS-2005>
-439.402252197266

> <b_mmod_Minimization_Converged-OPLS-2005>
0

> <r_mmod_RMS_Derivative-OPLS-2005>
1.26261472702026

$$$$
22
                    3D
 Structure written by MMmdl.
158167  0  0  1  0            999 V2000
  -30.7026  -14.6666   20.4582 C   0  0  0  0  0  0
  -30.3980  -12.4041   19.4619 C   0  0  0  0  0  0
  -29.4799  -12.4553   18.2247 C   0  0  0  0  0  0
  -28.0210  -12.2431   18.6624 C   0  0  0  0  0  0
  -27.6203  -13.1856   19.8200 C   0  0  2  0  0  0
  -28.6689  -13.1998   20.9595 C   0  0  0  0  0  0
  -25.2473  -13.8080   20.5697 C   0  0  0  0  0  0
  -24.1727  -13.0400   20.9239 C   0  0  0  0  0  0
  -24.6255  -11.6855   20.8793 C   0  0  0  0  0  0
  -23.8934  -10.4260   21.0440 C   0  0  0  0  0  0
  -24.3514   -9.4193   21.9213 C   0  0  0  0  0  0
  -23.6232   -8.2214   22.0772 C   0  0  0  0  0  0
  -22.4230   -8.0225   21.3545 C   0  0  0  0  0  0
  -21.9831   -9.0192   20.4658 C   0  0  0  0  0  0
  -22.7127  -10.2091   20.3068 C   0  0  0  0  0  0
  -21.6840   -6.0685   22.5282 C   0  0  0  0  0  0
  -21.4008   -6.5610   23.8210 C   0  0  0  0  0  0
  -21.3646   -5.6778   24.9180 C   0  0  0  0  0  0
  -21.6038   -4.3039   24.7247 C   0  0  0  0  0  0
  -21.8814   -3.8114   23.4377 C   0  0  0  0  0  0
  -21.9186   -4.6913   22.3421 C   0  0  0  0  0  0
  -22.7770  -13.5256   21.1865 C   0  0  0  0  0  0
  -22.1659   -4.2106   21.0997 F   0  0  0  0  0  0
  -21.5626   -3.4522   25.7760 F   0  0  0  0  0  0
  -29.9784  -13.5008   20.3676 N   0  0  0  0  0  0
  -26.2793  -12.9176   20.3173 N   0  0  0  0  0  0
  -25.9148  -11.6381   20.5754 N   0  0  0  0  0  0
  -22.0354  -12.8309   22.0411 N   0  0  0  0  0  0
  -25.4232  -15.1797   20.4137 N   0  0  0  0  0  0
  -31.8992  -14.6514   20.1565 O   0  0  0  0  0  0
  -21.6617   -6.8814   21.4237 O   0  0  0  0  0  0
  -22.3512  -14.5568   20.6677 O   0  0  0  0  0  0
  -24.6248  -31.8612   23.2090 C   0  0  0  0  0  0
  -25.9079  -32.4802   23.8422 C   0  0  1  0  0  0
  -27.2175  -27.3405   20.0994 C   0  0  0  0  0  0
  -25.5876  -33.8602   24.2323 N   0  0  0  0  0  0
  -23.4172  -30.4880   21.5540 C   0  0  2  0  0  0
  -24.8586  -28.9548   20.1192 C   0  0  0  0  0  0
  -22.7469  -29.4623   22.5010 C   0  0  0  0  0  0
  -18.0274  -28.1390   22.8529 C   0  0  0  0  0  0
  -24.1469  -36.7336   23.2642 C   0  0  0  0  0  0
  -25.9581  -30.8026   21.3712 C   0  0  0  0  0  0
  -26.0335  -29.4317   20.7150 C   0  0  0  0  0  0
  -27.2183  -28.6388   20.6934 C   0  0  0  0  0  0
  -26.0158  -26.9273   19.4686 C   0  0  0  0  0  0
  -24.8507  -27.7098   19.4861 C   0  0  0  0  0  0
  -23.6290  -29.8312   20.1678 C   0  0  0  0  0  0
  -25.4087  -36.3115   24.0341 C   0  0  1  0  0  0
  -20.5863  -28.3672   23.1319 C   0  0  2  0  0  0
  -20.6748  -26.9397   22.5423 C   0  0  0  0  0  0
  -19.5715  -26.6382   21.5224 C   0  0  0  0  0  0
  -18.1900  -26.7939   22.1645 C   0  0  0  0  0  0
  -19.1522  -28.8850   23.2912 C   0  0  0  0  0  0
  -18.9454  -30.1465   23.8925 C   0  0  0  0  0  0
  -17.6451  -30.6604   24.0575 C   0  0  0  0  0  0
  -25.9020  -34.9475   23.5140 C   0  0  0  0  0  0
  -16.5344  -29.9120   23.6336 C   0  0  0  0  0  0
  -16.7253  -28.6517   23.0383 C   0  0  0  0  0  0
  -26.4467  -31.6593   25.0785 C   0  0  0  0  0  0
  -25.3728  -31.3715   26.1534 C   0  0  0  0  0  0
  -27.0252  -30.3028   24.6143 C   0  0  0  0  0  0
  -27.6040  -32.4315   25.7551 C   0  0  0  0  0  0
  -27.5573  -37.1820   24.8461 C   0  0  0  0  0  0
  -21.4182  -29.3046   22.3757 N   0  0  0  0  0  0
  -26.4268  -37.3806   23.9423 N   0  0  0  0  0  0
  -24.6866  -31.0670   22.1024 N   0  0  0  0  0  0
  -23.4215  -28.8123   23.3036 O   0  0  0  0  0  0
  -28.3276  -26.4792   20.1460 O   0  0  0  0  0  0
  -26.5613  -34.8931   22.4723 O   0  0  0  0  0  0
  -23.5410  -32.1369   23.7444 O   0  0  0  0  0  0
  -31.3788  -23.1577   19.8430 C   0  0  0  0  0  0
  -30.4563  -24.2230   19.8952 C   0  0  0  0  0  0
  -30.9456  -21.8423   20.1184 C   0  0  0  0  0  0
  -29.1182  -23.9463   20.2235 C   0  0  0  0  0  0
  -29.6002  -21.6182   20.4560 C   0  0  0  0  0  0
  -28.5976  -17.9601   20.1304 C   0  0  0  0  0  0
  -30.4145  -18.3543   21.6535 C   0  0  0  0  0  0
  -29.0399  -16.4688   19.9222 C   0  0  0  0  0  0
  -31.0047  -16.9352   21.3588 C   0  0  0  0  0  0
  -29.6878  -18.9991   20.4611 C   0  0  0  0  0  0
  -28.0093  -25.0358   20.1246 C   0  0  0  0  0  0
  -28.7189  -22.6604   20.5036 N   0  0  0  0  0  0
  -30.1099  -15.8864   20.7824 N   0  0  0  0  0  0
  -29.0871  -20.3309   20.7688 N   0  0  0  0  0  0
  -31.4431  -12.4730   19.1574 H   0  0  0  0  0  0
  -30.3024  -11.4406   19.9668 H   0  0  0  0  0  0
  -29.7663  -11.6833   17.5092 H   0  0  0  0  0  0
  -29.5852  -13.4097   17.7076 H   0  0  0  0  0  0
  -27.9243  -11.2073   18.9894 H   0  0  0  0  0  0
  -27.3404  -12.3552   17.8167 H   0  0  0  0  0  0
  -27.5734  -14.1509   19.3353 H   0  0  0  0  0  0
  -28.6973  -12.2377   21.4722 H   0  0  0  0  0  0
  -28.4054  -13.9396   21.7149 H   0  0  0  0  0  0
  -25.2625   -9.5701   22.4828 H   0  0  0  0  0  0
  -23.9935   -7.4600   22.7483 H   0  0  0  0  0  0
  -21.0770   -8.8671   19.8977 H   0  0  0  0  0  0
  -22.3543  -10.9617   19.6192 H   0  0  0  0  0  0
  -21.2010   -7.6120   23.9707 H   0  0  0  0  0  0
  -21.1473   -6.0510   25.9083 H   0  0  0  0  0  0
  -22.0610   -2.7577   23.2893 H   0  0  0  0  0  0
  -22.3895  -11.9994   22.4895 H   0  0  0  0  0  0
  -21.0964  -13.1395   22.2506 H   0  0  0  0  0  0
  -24.6741  -15.8446   20.5715 H   0  0  0  0  0  0
  -26.2810  -15.6177   20.1062 H   0  0  0  0  0  0
  -26.7161  -32.5471   23.1186 H   0  0  0  0  0  0
  -24.9965  -33.9763   25.0436 H   0  0  0  0  0  0
  -22.7083  -31.3067   21.4173 H   0  0  0  0  0  0
  -23.3718  -35.9678   23.3286 H   0  0  0  0  0  0
  -24.3582  -36.8963   22.2062 H   0  0  0  0  0  0
  -23.7224  -37.6541   23.6667 H   0  0  0  0  0  0
  -26.0731  -31.5621   20.5968 H   0  0  0  0  0  0
  -26.8464  -30.8615   21.9878 H   0  0  0  0  0  0
  -28.1230  -29.0063   21.1594 H   0  0  0  0  0  0
  -25.9237  -25.9930   18.9389 H   0  0  0  0  0  0
  -23.9505  -27.3540   19.0044 H   0  0  0  0  0  0
  -23.7537  -30.6077   19.4119 H   0  0  0  0  0  0
  -22.7481  -29.2595   19.8665 H   0  0  0  0  0  0
  -25.1255  -36.1981   25.0829 H   0  0  0  0  0  0
  -20.9952  -28.3209   24.1432 H   0  0  0  0  0  0
  -20.5624  -26.2275   23.3618 H   0  0  0  0  0  0
  -21.6624  -26.7405   22.1220 H   0  0  0  0  0  0
  -19.6843  -25.6279   21.1273 H   0  0  0  0  0  0
  -19.6654  -27.3190   20.6750 H   0  0  0  0  0  0
  -17.4166  -26.6709   21.4048 H   0  0  0  0  0  0
  -18.0292  -26.0073   22.9026 H   0  0  0  0  0  0
  -19.7919  -30.7275   24.2316 H   0  0  0  0  0  0
  -17.5008  -31.6295   24.5167 H   0  0  0  0  0  0
  -15.5354  -30.3037   23.7639 H   0  0  0  0  0  0
  -15.8643  -28.0837   22.7113 H   0  0  0  0  0  0
  -24.5925  -30.6996   25.7923 H   0  0  0  0  0  0
  -24.8890  -32.2863   26.4970 H   0  0  0  0  0  0
  -25.8108  -30.8944   27.0312 H   0  0  0  0  0  0
  -26.2763  -29.6844   24.1165 H   0  0  0  0  0  0
  -27.3967  -29.7204   25.4584 H   0  0  0  0  0  0
  -27.8642  -30.4340   23.9311 H   0  0  0  0  0  0
  -27.2655  -33.3611   26.2138 H   0  0  0  0  0  0
  -28.3854  -32.6851   25.0385 H   0  0  0  0  0  0
  -28.0681  -31.8419   26.5464 H   0  0  0  0  0  0
  -28.2583  -38.0123   24.7529 H   0  0  0  0  0  0
  -28.1069  -36.2663   24.6245 H   0  0  0  0  0  0
  -27.2325  -37.1446   25.8872 H   0  0  0  0  0  0
  -20.9363  -29.8851   21.7038 H   0  0  0  0  0  0
  -26.0141  -38.2863   24.1465 H   0  0  0  0  0  0
  -32.4097  -23.3405   19.5773 H   0  0  0  0  0  0
  -30.7616  -25.2326   19.6543 H   0  0  0  0  0  0
  -31.6610  -21.0336   20.0744 H   0  0  0  0  0  0
  -27.8645  -17.9733   20.9392 H   0  0  0  0  0  0
  -28.0494  -18.2906   19.2475 H   0  0  0  0  0  0
  -31.2197  -19.0159   21.9734 H   0  0  0  0  0  0
  -29.7259  -18.2780   22.4973 H   0  0  0  0  0  0
  -29.3083  -16.3199   18.8748 H   0  0  0  0  0  0
  -28.1332  -15.9115   20.1064 H   0  0  0  0  0  0
  -31.4274  -16.5398   22.2825 H   0  0  0  0  0  0
  -31.8497  -17.0845   20.6862 H   0  0  0  0  0  0
  -30.3727  -19.0977   19.6164 H   0  0  0  0  0  0
  -27.2827  -24.8347   20.9155 H   0  0  0  0  0  0
  -27.5437  -24.7916   19.1715 H   0  0  0  0  0  0
  -28.1227  -20.3149   21.0760 H   0  0  0  0  0  0
  1 25  1  0  0  0
  1 30  2  0  0  0
  1 83  1  0  0  0
  2  3  1  0  0  0
  2 25  1  0  0  0
  2 85  1  0  0  0
  2 86  1  0  0  0
  3  4  1  0  0  0
  3 87  1  0  0  0
  3 88  1  0  0  0
  4  5  1  0  0  0
  4 89  1  0  0  0
  4 90  1  0  0  0
  5  6  1  0  0  0
  5 26  1  0  0  0
  5 91  1  0  0  0
  6 25  1  0  0  0
  6 92  1  0  0  0
  6 93  1  0  0  0
  7  8  2  0  0  0
  7 26  1  0  0  0
  7 29  1  0  0  0
  8  9  1  0  0  0
  8 22  1  0  0  0
  9 10  1  0  0  0
  9 27  2  0  0  0
 10 11  2  0  0  0
 10 15  1  0  0  0
 11 12  1  0  0  0
 11 94  1  0  0  0
 12 13  2  0  0  0
 12 95  1  0  0  0
 13 14  1  0  0  0
 13 31  1  0  0  0
 14 15  2  0  0  0
 14 96  1  0  0  0
 15 97  1  0  0  0
 16 17  2  0  0  0
 16 21  1  0  0  0
 16 31  1  0  0  0
 17 18  1  0  0  0
 17 98  1  0  0  0
 18 19  2  0  0  0
 18 99  1  0  0  0
 19 20  1  0  0  0
 19 24  1  0  0  0
 20 21  2  0  0  0
 20100  1  0  0  0
 21 23  1  0  0  0
 22 28  1  0  0  0
 22 32  2  0  0  0
 26 27  1  0  0  0
 28101  1  0  0  0
 28102  1  0  0  0
 29103  1  0  0  0
 29104  1  0  0  0
 33 34  1  0  0  0
 33 66  1  0  0  0
 33 70  2  0  0  0
 34 36  1  0  0  0
 34 59  1  0  0  0
 34105  1  0  0  0
 35 44  2  0  0  0
 35 45  1  0  0  0
 35 68  1  0  0  0
 36 56  1  0  0  0
 36106  1  0  0  0
 37 39  1  0  0  0
 37 47  1  0  0  0
 37 66  1  0  0  0
 37107  1  0  0  0
 38 43  2  0  0  0
 38 46  1  0  0  0
 38 47  1  0  0  0
 39 64  1  0  0  0
 39 67  2  0  0  0
 40 52  1  0  0  0
 40 53  2  0  0  0
 40 58  1  0  0  0
 41108  1  0  0  0
 41109  1  0  0  0
 41110  1  0  0  0
 41 48  1  0  0  0
 42 43  1  0  0  0
 42 66  1  0  0  0
 42111  1  0  0  0
 42112  1  0  0  0
 43 44  1  0  0  0
 44113  1  0  0  0
 45 46  2  0  0  0
 45114  1  0  0  0
 46115  1  0  0  0
 47116  1  0  0  0
 47117  1  0  0  0
 48 56  1  0  0  0
 48 65  1  0  0  0
 48118  1  0  0  0
 49 50  1  0  0  0
 49 53  1  0  0  0
 49 64  1  0  0  0
 49119  1  0  0  0
 50 51  1  0  0  0
 50120  1  0  0  0
 50121  1  0  0  0
 51 52  1  0  0  0
 51122  1  0  0  0
 51123  1  0  0  0
 52124  1  0  0  0
 52125  1  0  0  0
 53 54  1  0  0  0
 54 55  2  0  0  0
 54126  1  0  0  0
 55 57  1  0  0  0
 55127  1  0  0  0
 56 69  2  0  0  0
 57 58  2  0  0  0
 57128  1  0  0  0
 58129  1  0  0  0
 59 60  1  0  0  0
 59 61  1  0  0  0
 59 62  1  0  0  0
 60130  1  0  0  0
 60131  1  0  0  0
 60132  1  0  0  0
 61133  1  0  0  0
 61134  1  0  0  0
 61135  1  0  0  0
 62136  1  0  0  0
 62137  1  0  0  0
 62138  1  0  0  0
 63 65  1  0  0  0
 63139  1  0  0  0
 63140  1  0  0  0
 63141  1  0  0  0
 64142  1  0  0  0
 65143  1  0  0  0
 68 81  1  0  0  0
 71 72  2  0  0  0
 71 73  1  0  0  0
 71144  1  0  0  0
 72 74  1  0  0  0
 72145  1  0  0  0
 73 75  2  0  0  0
 73146  1  0  0  0
 74 81  1  0  0  0
 74 82  2  0  0  0
 75 82  1  0  0  0
 75 84  1  0  0  0
 76 78  1  0  0  0
 76 80  1  0  0  0
 76147  1  0  0  0
 76148  1  0  0  0
 77 79  1  0  0  0
 77 80  1  0  0  0
 77149  1  0  0  0
 77150  1  0  0  0
 78 83  1  0  0  0
 78151  1  0  0  0
 78152  1  0  0  0
 79 83  1  0  0  0
 79153  1  0  0  0
 79154  1  0  0  0
 80 84  1  0  0  0
 80155  1  0  0  0
 81156  1  0  0  0
 81157  1  0  0  0
 84158  1  0  0  0
M  ISO  4   1 100  68 101  81 101  83 100
M  END
> <chiral flag>
0

> <version>
0

> <s_m_source_file>
/data/baiqing/PycharmProjects/Reinvent-master-3.2/result/LINK_invent/BTK/process_docking_weight1_custom_sum_contain_oxygen_bond_distance_aromatic_linkinvent_7_9_3/rearranged_h_0169.sdf

> <i_m_source_file_index>
23

> <r_mmod_Potential_Energy-OPLS-2005>
92.7841796875

> <r_mmod_Stretch_Energy-OPLS-2005>
72.7952346801758

> <r_mmod_Bend_Energy-OPLS-2005>
176.059692382812

> <r_mmod_Torsional_Energy-OPLS-2005>
317.126251220703

> <r_mmod_Improper_Torsional_Energy-OPLS-2005>
6.01553726196289

> <r_mmod_Van_der_Waal_Energy-OPLS-2005>
161.334213256836

> <r_mmod_Electrostatic_Energy-OPLS-2005>
-483.150939941406

> <r_mmod_Solvation_Energy-OPLS-2005>
-220.066513061523

> <b_mmod_Minimization_Converged-OPLS-2005>
0

> <r_mmod_RMS_Derivative-OPLS-2005>
3.67256498336792

$$$$
23
                    3D
 Structure written by MMmdl.
163173  0  0  1  0            999 V2000
  -30.5495  -14.8394   20.3729 C   0  0  0  0  0  0
  -30.4354  -12.5092   19.4195 C   0  0  0  0  0  0
  -29.4907  -12.4862   18.1959 C   0  0  0  0  0  0
  -28.0197  -12.3049   18.6301 C   0  0  0  0  0  0
  -27.6219  -13.2347   19.8066 C   0  0  2  0  0  0
  -28.6829  -13.2211   20.9267 C   0  0  0  0  0  0
  -25.2491  -13.8155   20.5739 C   0  0  0  0  0  0
  -24.1803  -13.0415   20.9233 C   0  0  0  0  0  0
  -24.6375  -11.6905   20.8758 C   0  0  0  0  0  0
  -23.9047  -10.4298   21.0419 C   0  0  0  0  0  0
  -24.3602   -9.4212   21.9207 C   0  0  0  0  0  0
  -23.6283   -8.2243   22.0766 C   0  0  0  0  0  0
  -22.4271   -8.0254   21.3551 C   0  0  0  0  0  0
  -21.9904   -9.0242   20.4660 C   0  0  0  0  0  0
  -22.7215  -10.2126   20.3064 C   0  0  0  0  0  0
  -21.6848   -6.0738   22.5274 C   0  0  0  0  0  0
  -21.4012   -6.5642   23.8221 C   0  0  0  0  0  0
  -21.3665   -5.6783   24.9195 C   0  0  0  0  0  0
  -21.6060   -4.3048   24.7230 C   0  0  0  0  0  0
  -21.8816   -3.8141   23.4361 C   0  0  0  0  0  0
  -21.9200   -4.6967   22.3412 C   0  0  0  0  0  0
  -22.7808  -13.5220   21.1826 C   0  0  0  0  0  0
  -22.1656   -4.2145   21.0998 F   0  0  0  0  0  0
  -21.5648   -3.4533   25.7770 F   0  0  0  0  0  0
  -29.9629  -13.5860   20.3193 N   0  0  0  0  0  0
  -26.2854  -12.9380   20.3121 N   0  0  0  0  0  0
  -25.9280  -11.6531   20.5652 N   0  0  0  0  0  0
  -22.0401  -12.8301   22.0393 N   0  0  0  0  0  0
  -25.4130  -15.1907   20.4297 N   0  0  0  0  0  0
  -31.7723  -14.9372   20.2651 O   0  0  0  0  0  0
  -21.6624   -6.8859   21.4239 O   0  0  0  0  0  0
  -22.3531  -14.5494   20.6573 O   0  0  0  0  0  0
  -24.6339  -31.8518   23.1894 C   0  0  0  0  0  0
  -25.9182  -32.4719   23.8269 C   0  0  1  0  0  0
  -27.2484  -27.2253   20.1557 C   0  0  0  0  0  0
  -25.5988  -33.8510   24.2202 N   0  0  0  0  0  0
  -23.4327  -30.4683   21.5267 C   0  0  2  0  0  0
  -24.8840  -28.8944   20.1123 C   0  0  0  0  0  0
  -22.7541  -29.4600   22.4826 C   0  0  0  0  0  0
  -18.0330  -28.1403   22.8529 C   0  0  0  0  0  0
  -24.1493  -36.7241   23.2643 C   0  0  0  0  0  0
  -25.9763  -30.7517   21.3742 C   0  0  0  0  0  0
  -26.0505  -29.3669   20.7198 C   0  0  0  0  0  0
  -27.2274  -28.5465   20.7213 C   0  0  0  0  0  0
  -26.0549  -26.8076   19.5252 C   0  0  0  0  0  0
  -24.8949  -27.6189   19.5071 C   0  0  0  0  0  0
  -23.6545  -29.7889   20.1478 C   0  0  0  0  0  0
  -25.4123  -36.3011   24.0303 C   0  0  1  0  0  0
  -20.5933  -28.3684   23.1273 C   0  0  2  0  0  0
  -20.6797  -26.9390   22.5407 C   0  0  0  0  0  0
  -19.5763  -26.6398   21.5228 C   0  0  0  0  0  0
  -18.1948  -26.7966   22.1648 C   0  0  0  0  0  0
  -19.1586  -28.8874   23.2907 C   0  0  0  0  0  0
  -18.9492  -30.1487   23.8888 C   0  0  0  0  0  0
  -17.6478  -30.6596   24.0573 C   0  0  0  0  0  0
  -25.9073  -34.9418   23.5041 C   0  0  0  0  0  0
  -16.5373  -29.9079   23.6359 C   0  0  0  0  0  0
  -16.7324  -28.6510   23.0353 C   0  0  0  0  0  0
  -26.4521  -31.6574   25.0684 C   0  0  0  0  0  0
  -25.3743  -31.3740   26.1408 C   0  0  0  0  0  0
  -27.0405  -30.2992   24.6237 C   0  0  0  0  0  0
  -27.6058  -32.4345   25.7468 C   0  0  0  0  0  0
  -27.5552  -37.1764   24.8462 C   0  0  0  0  0  0
  -21.4218  -29.3022   22.3624 N   0  0  0  0  0  0
  -26.4265  -37.3726   23.9409 N   0  0  0  0  0  0
  -24.6975  -31.0452   22.0865 N   0  0  0  0  0  0
  -23.4221  -28.8190   23.2992 O   0  0  0  0  0  0
  -28.4156  -26.4169   20.2236 O   0  0  0  0  0  0
  -26.5638  -34.8890   22.4595 O   0  0  0  0  0  0
  -23.5484  -32.1381   23.7170 O   0  0  0  0  0  0
  -26.7856  -20.1364   23.0093 C   0  0  0  0  0  0
  -28.5323  -19.9856   21.2863 C   0  0  0  0  0  0
  -28.0223  -19.6309   22.5726 C   0  0  0  0  0  0
  -27.9650  -21.2802   20.8054 C   0  0  0  0  0  0
  -26.1178  -21.0680   22.2273 C   0  0  0  0  0  0
  -30.7172  -18.4495   20.5788 C   0  0  0  0  0  0
  -28.8779  -23.9114   21.1914 C   0  0  0  0  0  0
  -27.8263  -23.7507   19.4209 C   0  0  0  0  0  0
  -29.2433  -18.7837   20.4660 C   0  0  1  0  0  0
  -28.6209  -22.6442   20.2707 C   0  0  1  0  0  0
  -29.7821  -17.3243   20.9831 C   0  0  1  0  0  0
  -28.6835  -24.9258   20.0009 C   0  0  1  0  0  0
  -28.7310  -18.7764   23.6079 C   0  0  0  0  0  0
  -24.7485  -21.6052   22.5834 C   0  0  0  0  0  0
  -26.7319  -21.6602   21.1975 N   0  0  0  0  0  0
  -29.7024  -15.9606   20.3341 N   0  0  0  0  0  0
  -31.4594  -12.6643   19.0901 H   0  0  0  0  0  0
  -30.4242  -11.5546   19.9400 H   0  0  0  0  0  0
  -29.7671  -11.6843   17.5098 H   0  0  0  0  0  0
  -29.5938  -13.4047   17.6208 H   0  0  0  0  0  0
  -27.9024  -11.2620   18.9289 H   0  0  0  0  0  0
  -27.3452  -12.4536   17.7836 H   0  0  0  0  0  0
  -27.5777  -14.2381   19.3823 H   0  0  0  0  0  0
  -28.7466  -12.2457   21.4039 H   0  0  0  0  0  0
  -28.4170  -13.9483   21.6964 H   0  0  0  0  0  0
  -25.2726   -9.5737   22.4816 H   0  0  0  0  0  0
  -24.0009   -7.4651   22.7514 H   0  0  0  0  0  0
  -21.0821   -8.8742   19.8980 H   0  0  0  0  0  0
  -22.3625  -10.9683   19.6187 H   0  0  0  0  0  0
  -21.1967   -7.6130   23.9720 H   0  0  0  0  0  0
  -21.1486   -6.0521   25.9100 H   0  0  0  0  0  0
  -22.0582   -2.7590   23.2855 H   0  0  0  0  0  0
  -22.3945  -12.0019   22.4981 H   0  0  0  0  0  0
  -21.0987  -13.1367   22.2449 H   0  0  0  0  0  0
  -24.6415  -15.8348   20.5713 H   0  0  0  0  0  0
  -26.2640  -15.6549   20.1427 H   0  0  0  0  0  0
  -26.7270  -32.5354   23.1018 H   0  0  0  0  0  0
  -25.0181  -33.9653   25.0383 H   0  0  0  0  0  0
  -22.7300  -31.2883   21.3729 H   0  0  0  0  0  0
  -23.3743  -35.9578   23.3296 H   0  0  0  0  0  0
  -24.3570  -36.8883   22.2058 H   0  0  0  0  0  0
  -23.7288  -37.6437   23.6704 H   0  0  0  0  0  0
  -26.1271  -31.5159   20.6071 H   0  0  0  0  0  0
  -26.8506  -30.7996   22.0125 H   0  0  0  0  0  0
  -28.1222  -28.9200   21.1990 H   0  0  0  0  0  0
  -26.0066  -25.8359   19.0560 H   0  0  0  0  0  0
  -23.9980  -27.2402   19.0344 H   0  0  0  0  0  0
  -23.7805  -30.5610   19.3879 H   0  0  0  0  0  0
  -22.7741  -29.2220   19.8464 H   0  0  0  0  0  0
  -25.1310  -36.1790   25.0786 H   0  0  0  0  0  0
  -21.0082  -28.3265   24.1382 H   0  0  0  0  0  0
  -20.5677  -26.2293   23.3598 H   0  0  0  0  0  0
  -21.6650  -26.7405   22.1180 H   0  0  0  0  0  0
  -19.6854  -25.6305   21.1263 H   0  0  0  0  0  0
  -19.6683  -27.3209   20.6749 H   0  0  0  0  0  0
  -17.4196  -26.6796   21.4039 H   0  0  0  0  0  0
  -18.0300  -26.0064   22.9002 H   0  0  0  0  0  0
  -19.7931  -30.7360   24.2187 H   0  0  0  0  0  0
  -17.5002  -31.6262   24.5185 H   0  0  0  0  0  0
  -15.5363  -30.2948   23.7662 H   0  0  0  0  0  0
  -15.8746  -28.0828   22.7004 H   0  0  0  0  0  0
  -24.5946  -30.7051   25.7754 H   0  0  0  0  0  0
  -24.8894  -32.2909   26.4785 H   0  0  0  0  0  0
  -25.8061  -30.8978   27.0235 H   0  0  0  0  0  0
  -26.3009  -29.6672   24.1308 H   0  0  0  0  0  0
  -27.4130  -29.7314   25.4784 H   0  0  0  0  0  0
  -27.8857  -30.4240   23.9465 H   0  0  0  0  0  0
  -27.2681  -33.3691   26.1963 H   0  0  0  0  0  0
  -28.3919  -32.6850   25.0333 H   0  0  0  0  0  0
  -28.0686  -31.8535   26.5462 H   0  0  0  0  0  0
  -28.2553  -38.0068   24.7491 H   0  0  0  0  0  0
  -28.1065  -36.2600   24.6309 H   0  0  0  0  0  0
  -27.2269  -37.1414   25.8862 H   0  0  0  0  0  0
  -20.9387  -29.8694   21.6786 H   0  0  0  0  0  0
  -26.0112  -38.2762   24.1442 H   0  0  0  0  0  0
  -26.3632  -19.8011   23.9487 H   0  0  0  0  0  0
  -31.2688  -18.8922   21.4010 H   0  0  0  0  0  0
  -31.2749  -18.4281   19.6461 H   0  0  0  0  0  0
  -29.8665  -23.9155   21.6541 H   0  0  0  0  0  0
  -28.1033  -24.0466   21.9495 H   0  0  0  0  0  0
  -26.7806  -23.8306   19.7141 H   0  0  0  0  0  0
  -27.9129  -23.6004   18.3451 H   0  0  0  0  0  0
  -28.8582  -18.8295   19.4419 H   0  0  0  0  0  0
  -29.5464  -22.3798   19.7600 H   0  0  0  0  0  0
  -29.7808  -17.1657   22.0504 H   0  0  0  0  0  0
  -29.6266  -24.9262   19.4474 H   0  0  0  0  0  0
  -28.2113  -17.8316   23.7821 H   0  0  0  0  0  0
  -28.7038  -19.3394   24.5374 H   0  0  0  0  0  0
  -29.7989  -18.6334   23.4535 H   0  0  0  0  0  0
  -24.8341  -22.3175   23.4019 H   0  0  0  0  0  0
  -24.0613  -20.8118   22.8793 H   0  0  0  0  0  0
  -24.3055  -22.1250   21.7353 H   0  0  0  0  0  0
  -28.7507  -15.6858   20.1452 H   0  0  0  0  0  0
  1 25  1  0  0  0
  1 30  2  0  0  0
  1 86  1  0  0  0
  2  3  1  0  0  0
  2 25  1  0  0  0
  2 87  1  0  0  0
  2 88  1  0  0  0
  3  4  1  0  0  0
  3 89  1  0  0  0
  3 90  1  0  0  0
  4  5  1  0  0  0
  4 91  1  0  0  0
  4 92  1  0  0  0
  5  6  1  0  0  0
  5 26  1  0  0  0
  5 93  1  0  0  0
  6 25  1  0  0  0
  6 94  1  0  0  0
  6 95  1  0  0  0
  7  8  2  0  0  0
  7 26  1  0  0  0
  7 29  1  0  0  0
  8  9  1  0  0  0
  8 22  1  0  0  0
  9 10  1  0  0  0
  9 27  2  0  0  0
 10 11  2  0  0  0
 10 15  1  0  0  0
 11 12  1  0  0  0
 11 96  1  0  0  0
 12 13  2  0  0  0
 12 97  1  0  0  0
 13 14  1  0  0  0
 13 31  1  0  0  0
 14 15  2  0  0  0
 14 98  1  0  0  0
 15 99  1  0  0  0
 16 17  2  0  0  0
 16 21  1  0  0  0
 16 31  1  0  0  0
 17 18  1  0  0  0
 17100  1  0  0  0
 18 19  2  0  0  0
 18101  1  0  0  0
 19 20  1  0  0  0
 19 24  1  0  0  0
 20 21  2  0  0  0
 20102  1  0  0  0
 21 23  1  0  0  0
 22 28  1  0  0  0
 22 32  2  0  0  0
 26 27  1  0  0  0
 28103  1  0  0  0
 28104  1  0  0  0
 29105  1  0  0  0
 29106  1  0  0  0
 33 34  1  0  0  0
 33 66  1  0  0  0
 33 70  2  0  0  0
 34 36  1  0  0  0
 34 59  1  0  0  0
 34107  1  0  0  0
 35 44  2  0  0  0
 35 45  1  0  0  0
 35 68  1  0  0  0
 36 56  1  0  0  0
 36108  1  0  0  0
 37 39  1  0  0  0
 37 47  1  0  0  0
 37 66  1  0  0  0
 37109  1  0  0  0
 38 43  2  0  0  0
 38 46  1  0  0  0
 38 47  1  0  0  0
 39 64  1  0  0  0
 39 67  2  0  0  0
 40 52  1  0  0  0
 40 53  2  0  0  0
 40 58  1  0  0  0
 41110  1  0  0  0
 41111  1  0  0  0
 41112  1  0  0  0
 41 48  1  0  0  0
 42 43  1  0  0  0
 42 66  1  0  0  0
 42113  1  0  0  0
 42114  1  0  0  0
 43 44  1  0  0  0
 44115  1  0  0  0
 45 46  2  0  0  0
 45116  1  0  0  0
 46117  1  0  0  0
 47118  1  0  0  0
 47119  1  0  0  0
 48 56  1  0  0  0
 48 65  1  0  0  0
 48120  1  0  0  0
 49 50  1  0  0  0
 49 53  1  0  0  0
 49 64  1  0  0  0
 49121  1  0  0  0
 50 51  1  0  0  0
 50122  1  0  0  0
 50123  1  0  0  0
 51 52  1  0  0  0
 51124  1  0  0  0
 51125  1  0  0  0
 52126  1  0  0  0
 52127  1  0  0  0
 53 54  1  0  0  0
 54 55  2  0  0  0
 54128  1  0  0  0
 55 57  1  0  0  0
 55129  1  0  0  0
 56 69  2  0  0  0
 57 58  2  0  0  0
 57130  1  0  0  0
 58131  1  0  0  0
 59 60  1  0  0  0
 59 61  1  0  0  0
 59 62  1  0  0  0
 60132  1  0  0  0
 60133  1  0  0  0
 60134  1  0  0  0
 61135  1  0  0  0
 61136  1  0  0  0
 61137  1  0  0  0
 62138  1  0  0  0
 62139  1  0  0  0
 62140  1  0  0  0
 63 65  1  0  0  0
 63141  1  0  0  0
 63142  1  0  0  0
 63143  1  0  0  0
 64144  1  0  0  0
 65145  1  0  0  0
 68 82  1  0  0  0
 71 73  2  0  0  0
 71 75  1  0  0  0
 71146  1  0  0  0
 72 73  1  0  0  0
 72 74  2  0  0  0
 72 79  1  0  0  0
 73 83  1  0  0  0
 74 85  1  0  0  0
 74 80  1  0  0  0
 75 84  1  0  0  0
 75 85  2  0  0  0
 76 79  1  0  0  0
 76 81  1  0  0  0
 76147  1  0  0  0
 76148  1  0  0  0
 77 80  1  0  0  0
 77 82  1  0  0  0
 77149  1  0  0  0
 77150  1  0  0  0
 78 80  1  0  0  0
 78 82  1  0  0  0
 78151  1  0  0  0
 78152  1  0  0  0
 79 81  1  0  0  0
 79153  1  0  0  0
 80154  1  0  0  0
 81 86  1  0  0  0
 81155  1  0  0  0
 82156  1  0  0  0
 83157  1  0  0  0
 83158  1  0  0  0
 83159  1  0  0  0
 84160  1  0  0  0
 84161  1  0  0  0
 84162  1  0  0  0
 86163  1  0  0  0
M  ISO  4   1 100  68 101  82 101  86 100
M  END
> <chiral flag>
0

> <version>
0

> <s_m_source_file>
/data/baiqing/PycharmProjects/Reinvent-master-3.2/result/LINK_invent/BTK/process_docking_weight1_custom_sum_contain_oxygen_bond_distance_aromatic_linkinvent_7_9_3/rearranged_h_0169.sdf

> <i_m_source_file_index>
24

> <r_mmod_Potential_Energy-OPLS-2005>
401.498748779297

> <r_mmod_Stretch_Energy-OPLS-2005>
173.591598510742

> <r_mmod_Bend_Energy-OPLS-2005>
324.930267333984

> <r_mmod_Torsional_Energy-OPLS-2005>
425.970123291016

> <r_mmod_Improper_Torsional_Energy-OPLS-2005>
15.061863899231

> <r_mmod_Van_der_Waal_Energy-OPLS-2005>
135.978408813477

> <r_mmod_Electrostatic_Energy-OPLS-2005>
-576.089050292969

> <r_mmod_Solvation_Energy-OPLS-2005>
-222.924926757812

> <b_mmod_Minimization_Converged-OPLS-2005>
0

> <r_mmod_RMS_Derivative-OPLS-2005>
10.011360168457

$$$$
24
                    3D
 Structure written by MMmdl.
178190  0  0  1  0            999 V2000
  -30.6363  -14.6452   20.5470 C   0  0  0  0  0  0
  -30.4190  -12.4050   19.4768 C   0  0  0  0  0  0
  -29.5034  -12.5047   18.2341 C   0  0  0  0  0  0
  -28.0298  -12.3285   18.6412 C   0  0  0  0  0  0
  -27.6433  -13.2130   19.8557 C   0  0  2  0  0  0
  -28.6746  -13.0882   20.9951 C   0  0  0  0  0  0
  -25.2465  -13.8014   20.5422 C   0  0  0  0  0  0
  -24.1793  -13.0316   20.9148 C   0  0  0  0  0  0
  -24.6381  -11.6840   20.8723 C   0  0  0  0  0  0
  -23.9040  -10.4246   21.0425 C   0  0  0  0  0  0
  -24.3593   -9.4176   21.9210 C   0  0  0  0  0  0
  -23.6230   -8.2221   22.0801 C   0  0  0  0  0  0
  -22.4231   -8.0257   21.3552 C   0  0  0  0  0  0
  -21.9861   -9.0255   20.4673 C   0  0  0  0  0  0
  -22.7218  -10.2125   20.3069 C   0  0  0  0  0  0
  -21.6849   -6.0709   22.5268 C   0  0  0  0  0  0
  -21.4018   -6.5627   23.8208 C   0  0  0  0  0  0
  -21.3672   -5.6791   24.9179 C   0  0  0  0  0  0
  -21.6036   -4.3036   24.7237 C   0  0  0  0  0  0
  -21.8825   -3.8141   23.4361 C   0  0  0  0  0  0
  -21.9191   -4.6923   22.3413 C   0  0  0  0  0  0
  -22.7845  -13.5168   21.1820 C   0  0  0  0  0  0
  -22.1655   -4.2117   21.0973 F   0  0  0  0  0  0
  -21.5637   -3.4538   25.7752 F   0  0  0  0  0  0
  -29.9830  -13.4413   20.4393 N   0  0  0  0  0  0
  -26.2921  -12.9237   20.3219 N   0  0  0  0  0  0
  -25.9318  -11.6423   20.5820 N   0  0  0  0  0  0
  -22.0486  -12.8221   22.0414 N   0  0  0  0  0  0
  -25.3943  -15.1610   20.3360 N   0  0  0  0  0  0
  -31.8005  -14.7511   20.1531 O   0  0  0  0  0  0
  -21.6599   -6.8831   21.4230 O   0  0  0  0  0  0
  -22.3570  -14.5489   20.6704 O   0  0  0  0  0  0
  -24.6214  -31.8622   23.1995 C   0  0  0  0  0  0
  -25.9067  -32.4747   23.8369 C   0  0  1  0  0  0
  -27.2619  -27.3850   20.1379 C   0  0  0  0  0  0
  -25.5953  -33.8535   24.2346 N   0  0  0  0  0  0
  -23.4081  -30.4813   21.5356 C   0  0  2  0  0  0
  -24.8595  -28.9206   20.1143 C   0  0  0  0  0  0
  -22.7370  -29.4668   22.4895 C   0  0  0  0  0  0
  -18.0160  -28.1463   22.8458 C   0  0  0  0  0  0
  -24.1488  -36.7225   23.2684 C   0  0  0  0  0  0
  -25.9368  -30.8159   21.3455 C   0  0  0  0  0  0
  -26.0135  -29.4367   20.7093 C   0  0  0  0  0  0
  -27.2070  -28.6782   20.7147 C   0  0  0  0  0  0
  -26.0945  -26.8901   19.5099 C   0  0  0  0  0  0
  -24.8986  -27.6485   19.5053 C   0  0  0  0  0  0
  -23.6163  -29.7898   20.1601 C   0  0  0  0  0  0
  -25.4114  -36.3056   24.0383 C   0  0  1  0  0  0
  -20.5792  -28.3699   23.1167 C   0  0  2  0  0  0
  -20.6738  -26.9475   22.5126 C   0  0  0  0  0  0
  -19.5563  -26.6289   21.5137 C   0  0  0  0  0  0
  -18.1754  -26.8045   22.1529 C   0  0  0  0  0  0
  -19.1440  -28.8877   23.2816 C   0  0  0  0  0  0
  -18.9424  -30.1478   23.8828 C   0  0  0  0  0  0
  -17.6431  -30.6643   24.0637 C   0  0  0  0  0  0
  -25.9044  -34.9420   23.5167 C   0  0  0  0  0  0
  -16.5304  -29.9207   23.6396 C   0  0  0  0  0  0
  -16.7174  -28.6651   23.0370 C   0  0  0  0  0  0
  -26.4495  -31.6575   25.0731 C   0  0  0  0  0  0
  -25.3816  -31.3695   26.1534 C   0  0  0  0  0  0
  -27.0382  -30.3064   24.6074 C   0  0  0  0  0  0
  -27.6082  -32.4292   25.7474 C   0  0  0  0  0  0
  -27.5583  -37.1743   24.8496 C   0  0  0  0  0  0
  -21.4092  -29.3143   22.3663 N   0  0  0  0  0  0
  -26.4316  -37.3725   23.9426 N   0  0  0  0  0  0
  -24.6739  -31.0751   22.0835 N   0  0  0  0  0  0
  -23.4106  -28.8159   23.2956 O   0  0  0  0  0  0
  -28.4709  -26.7080   20.2527 O   0  0  0  0  0  0
  -26.5551  -34.8893   22.4685 O   0  0  0  0  0  0
  -23.5411  -32.1308   23.7446 O   0  0  0  0  0  0
  -26.2608  -19.9718   20.4247 C   0  0  0  0  0  0
  -28.9890  -20.3394   20.5369 C   0  0  0  0  0  0
  -26.8299  -21.0313   19.7012 C   0  0  0  0  0  0
  -27.0323  -19.0640   21.1668 C   0  0  0  0  0  0
  -28.1720  -21.4044   20.0001 C   0  0  0  0  0  0
  -28.4432  -19.0812   20.9892 C   0  0  0  0  0  0
  -25.2715  -20.6515   17.6693 C   0  0  0  0  0  0
  -26.3009  -21.5981   17.1400 C   0  0  0  0  0  0
  -26.4358  -18.1708   23.5788 C   0  0  0  0  0  0
  -25.1676  -18.6754   22.9481 C   0  0  0  0  0  0
  -28.4591  -23.4903   18.3349 C   0  0  0  0  0  0
  -28.7655  -24.9954   18.3898 C   0  0  0  0  0  0
  -28.8211  -16.3342   21.5366 C   0  0  0  0  0  0
  -30.1281  -17.1511   20.1035 C   0  0  0  0  0  0
  -25.9493  -21.6138   18.6274 C   0  0  0  0  0  0
  -26.2819  -18.1331   22.0709 C   0  0  0  0  0  0
  -28.7341  -22.8591   19.7207 C   0  0  1  0  0  0
  -29.3209  -17.7938   21.2562 C   0  0  0  0  0  0
  -28.3524  -24.0573   20.6775 C   0  0  2  0  0  0
  -28.7862  -25.3383   19.8764 C   0  0  2  0  0  0
  -29.8898  -15.8024   20.6670 N   0  0  0  0  0  0
  -26.9231  -24.0949   21.0555 N   0  3  0  0  0  0
  -31.4675  -12.5164   19.1936 H   0  0  0  0  0  0
  -30.3330  -11.4099   19.9225 H   0  0  0  0  0  0
  -29.7843  -11.7546   17.4942 H   0  0  0  0  0  0
  -29.6314  -13.4764   17.7571 H   0  0  0  0  0  0
  -27.8933  -11.2787   18.8983 H   0  0  0  0  0  0
  -27.3661  -12.5138   17.7962 H   0  0  0  0  0  0
  -27.6564  -14.2456   19.5031 H   0  0  0  0  0  0
  -28.6847  -12.0723   21.3928 H   0  0  0  0  0  0
  -28.4023  -13.7237   21.8362 H   0  0  0  0  0  0
  -25.2762   -9.5664   22.4755 H   0  0  0  0  0  0
  -23.9967   -7.4632   22.7531 H   0  0  0  0  0  0
  -21.0810   -8.8774   19.8956 H   0  0  0  0  0  0
  -22.3686  -10.9663   19.6166 H   0  0  0  0  0  0
  -21.2002   -7.6156   23.9696 H   0  0  0  0  0  0
  -21.1481   -6.0528   25.9070 H   0  0  0  0  0  0
  -22.0570   -2.7592   23.2885 H   0  0  0  0  0  0
  -22.4113  -11.9876   22.4774 H   0  0  0  0  0  0
  -21.1130  -13.1322   22.2663 H   0  0  0  0  0  0
  -24.5770  -15.7622   20.3339 H   0  0  0  0  0  0
  -26.1970  -15.5629   19.8692 H   0  0  0  0  0  0
  -26.7188  -32.5406   23.1164 H   0  0  0  0  0  0
  -25.0209  -33.9675   25.0574 H   0  0  0  0  0  0
  -22.7012  -31.2992   21.3790 H   0  0  0  0  0  0
  -23.3791  -35.9499   23.3295 H   0  0  0  0  0  0
  -24.3686  -36.8880   22.2131 H   0  0  0  0  0  0
  -23.7155  -37.6405   23.6680 H   0  0  0  0  0  0
  -26.0684  -31.5767   20.5765 H   0  0  0  0  0  0
  -26.8208  -30.8759   21.9621 H   0  0  0  0  0  0
  -28.0923  -29.0756   21.1963 H   0  0  0  0  0  0
  -26.0840  -25.9256   19.0291 H   0  0  0  0  0  0
  -24.0093  -27.2426   19.0418 H   0  0  0  0  0  0
  -23.7109  -30.5481   19.3824 H   0  0  0  0  0  0
  -22.7386  -29.2067   19.8773 H   0  0  0  0  0  0
  -25.1274  -36.1958   25.0870 H   0  0  0  0  0  0
  -20.9803  -28.3176   24.1306 H   0  0  0  0  0  0
  -20.5966  -26.2242   23.3246 H   0  0  0  0  0  0
  -21.6550  -26.7733   22.0639 H   0  0  0  0  0  0
  -19.6495  -27.2710   20.6367 H   0  0  0  0  0  0
  -19.6545  -25.6055   21.1580 H   0  0  0  0  0  0
  -17.9988  -26.0117   22.8818 H   0  0  0  0  0  0
  -17.4082  -26.6969   21.3814 H   0  0  0  0  0  0
  -19.7940  -30.7266   24.2148 H   0  0  0  0  0  0
  -17.5023  -31.6262   24.5345 H   0  0  0  0  0  0
  -15.5294  -30.3126   23.7826 H   0  0  0  0  0  0
  -15.8502  -28.1034   22.7211 H   0  0  0  0  0  0
  -24.5899  -30.7137   25.7893 H   0  0  0  0  0  0
  -24.9076  -32.2864   26.5081 H   0  0  0  0  0  0
  -25.8258  -30.8787   27.0212 H   0  0  0  0  0  0
  -26.2903  -29.6700   24.1318 H   0  0  0  0  0  0
  -27.4480  -29.7477   25.4505 H   0  0  0  0  0  0
  -27.8574  -30.4482   23.9010 H   0  0  0  0  0  0
  -27.2710  -33.3586   26.2069 H   0  0  0  0  0  0
  -28.3818  -32.6896   25.0234 H   0  0  0  0  0  0
  -28.0775  -31.8393   26.5374 H   0  0  0  0  0  0
  -28.2579  -38.0053   24.7559 H   0  0  0  0  0  0
  -28.1121  -36.2608   24.6292 H   0  0  0  0  0  0
  -27.2342  -37.1304   25.8912 H   0  0  0  0  0  0
  -20.9335  -29.9167   21.7092 H   0  0  0  0  0  0
  -26.0263  -38.2836   24.1402 H   0  0  0  0  0  0
  -25.1923  -19.8220   20.3720 H   0  0  0  0  0  0
  -30.0602  -20.4654   20.5681 H   0  0  0  0  0  0
  -25.5702  -19.6022   17.6807 H   0  0  0  0  0  0
  -24.2494  -20.8442   17.3550 H   0  0  0  0  0  0
  -25.9179  -22.4038   16.5104 H   0  0  0  0  0  0
  -27.2622  -21.1891   16.8249 H   0  0  0  0  0  0
  -26.3487  -17.2354   24.1363 H   0  0  0  0  0  0
  -27.0822  -18.9230   24.0297 H   0  0  0  0  0  0
  -24.9942  -19.7503   22.9620 H   0  0  0  0  0  0
  -24.2759  -18.0648   23.0829 H   0  0  0  0  0  0
  -28.9480  -22.9617   17.5192 H   0  0  0  0  0  0
  -27.4020  -23.5023   18.1460 H   0  0  0  0  0  0
  -28.0145  -25.5837   17.8581 H   0  0  0  0  0  0
  -29.7290  -25.2209   17.9267 H   0  0  0  0  0  0
  -27.8328  -16.1286   21.1374 H   0  0  0  0  0  0
  -28.8766  -16.0365   22.5847 H   0  0  0  0  0  0
  -31.1650  -17.4826   20.0691 H   0  0  0  0  0  0
  -29.6499  -17.2762   19.1289 H   0  0  0  0  0  0
  -25.3610  -22.4416   19.0050 H   0  0  0  0  0  0
  -26.0407  -17.2079   21.5733 H   0  0  0  0  0  0
  -29.8202  -22.7594   19.7912 H   0  0  0  0  0  0
  -30.0057  -18.0511   22.0660 H   0  0  0  0  0  0
  -28.9258  -23.9915   21.6062 H   0  0  0  0  0  0
  -29.8530  -25.3697   20.0941 H   0  0  0  0  0  0
  -26.6943  -24.9799   21.4820 H   0  0  0  0  0  0
  -26.7522  -23.3887   21.7502 H   0  0  0  0  0  0
  -26.3153  -23.9282   20.2750 H   0  0  0  0  0  0
  1 25  1  0  0  0
  1 30  2  0  0  0
  1 91  1  0  0  0
  2  3  1  0  0  0
  2 25  1  0  0  0
  2 93  1  0  0  0
  2 94  1  0  0  0
  3  4  1  0  0  0
  3 95  1  0  0  0
  3 96  1  0  0  0
  4  5  1  0  0  0
  4 97  1  0  0  0
  4 98  1  0  0  0
  5  6  1  0  0  0
  5 26  1  0  0  0
  5 99  1  0  0  0
  6 25  1  0  0  0
  6100  1  0  0  0
  6101  1  0  0  0
  7  8  2  0  0  0
  7 26  1  0  0  0
  7 29  1  0  0  0
  8  9  1  0  0  0
  8 22  1  0  0  0
  9 10  1  0  0  0
  9 27  2  0  0  0
 10 11  2  0  0  0
 10 15  1  0  0  0
 11 12  1  0  0  0
 11102  1  0  0  0
 12 13  2  0  0  0
 12103  1  0  0  0
 13 14  1  0  0  0
 13 31  1  0  0  0
 14 15  2  0  0  0
 14104  1  0  0  0
 15105  1  0  0  0
 16 17  2  0  0  0
 16 21  1  0  0  0
 16 31  1  0  0  0
 17 18  1  0  0  0
 17106  1  0  0  0
 18 19  2  0  0  0
 18107  1  0  0  0
 19 20  1  0  0  0
 19 24  1  0  0  0
 20 21  2  0  0  0
 20108  1  0  0  0
 21 23  1  0  0  0
 22 28  1  0  0  0
 22 32  2  0  0  0
 26 27  1  0  0  0
 28109  1  0  0  0
 28110  1  0  0  0
 29111  1  0  0  0
 29112  1  0  0  0
 33 34  1  0  0  0
 33 66  1  0  0  0
 33 70  2  0  0  0
 34 36  1  0  0  0
 34 59  1  0  0  0
 34113  1  0  0  0
 35 44  2  0  0  0
 35 45  1  0  0  0
 35 68  1  0  0  0
 36 56  1  0  0  0
 36114  1  0  0  0
 37 39  1  0  0  0
 37 47  1  0  0  0
 37 66  1  0  0  0
 37115  1  0  0  0
 38 43  2  0  0  0
 38 46  1  0  0  0
 38 47  1  0  0  0
 39 64  1  0  0  0
 39 67  2  0  0  0
 40 52  1  0  0  0
 40 53  2  0  0  0
 40 58  1  0  0  0
 41116  1  0  0  0
 41117  1  0  0  0
 41118  1  0  0  0
 41 48  1  0  0  0
 42 43  1  0  0  0
 42 66  1  0  0  0
 42119  1  0  0  0
 42120  1  0  0  0
 43 44  1  0  0  0
 44121  1  0  0  0
 45 46  2  0  0  0
 45122  1  0  0  0
 46123  1  0  0  0
 47124  1  0  0  0
 47125  1  0  0  0
 48 56  1  0  0  0
 48 65  1  0  0  0
 48126  1  0  0  0
 49 50  1  0  0  0
 49 53  1  0  0  0
 49 64  1  0  0  0
 49127  1  0  0  0
 50 51  1  0  0  0
 50128  1  0  0  0
 50129  1  0  0  0
 51 52  1  0  0  0
 51130  1  0  0  0
 51131  1  0  0  0
 52132  1  0  0  0
 52133  1  0  0  0
 53 54  1  0  0  0
 54 55  2  0  0  0
 54134  1  0  0  0
 55 57  1  0  0  0
 55135  1  0  0  0
 56 69  2  0  0  0
 57 58  2  0  0  0
 57136  1  0  0  0
 58137  1  0  0  0
 59 60  1  0  0  0
 59 61  1  0  0  0
 59 62  1  0  0  0
 60138  1  0  0  0
 60139  1  0  0  0
 60140  1  0  0  0
 61141  1  0  0  0
 61142  1  0  0  0
 61143  1  0  0  0
 62144  1  0  0  0
 62145  1  0  0  0
 62146  1  0  0  0
 63 65  1  0  0  0
 63147  1  0  0  0
 63148  1  0  0  0
 63149  1  0  0  0
 64150  1  0  0  0
 65151  1  0  0  0
 68 90  1  0  0  0
 71 73  2  0  0  0
 71 74  1  0  0  0
 71152  1  0  0  0
 72 75  2  0  0  0
 72 76  1  0  0  0
 72153  1  0  0  0
 73 75  1  0  0  0
 73 85  1  0  0  0
 74 76  2  0  0  0
 74 86  1  0  0  0
 75 87  1  0  0  0
 76 88  1  0  0  0
 77 78  1  0  0  0
 77 85  1  0  0  0
 77154  1  0  0  0
 77155  1  0  0  0
 78 85  1  0  0  0
 78156  1  0  0  0
 78157  1  0  0  0
 79 80  1  0  0  0
 79 86  1  0  0  0
 79158  1  0  0  0
 79159  1  0  0  0
 80 86  1  0  0  0
 80160  1  0  0  0
 80161  1  0  0  0
 81 82  1  0  0  0
 81 87  1  0  0  0
 81162  1  0  0  0
 81163  1  0  0  0
 82 90  1  0  0  0
 82164  1  0  0  0
 82165  1  0  0  0
 83 88  1  0  0  0
 83 91  1  0  0  0
 83166  1  0  0  0
 83167  1  0  0  0
 84 88  1  0  0  0
 84 91  1  0  0  0
 84168  1  0  0  0
 84169  1  0  0  0
 85170  1  0  0  0
 86171  1  0  0  0
 87 89  1  0  0  0
 87172  1  0  0  0
 88173  1  0  0  0
 89 90  1  0  0  0
 89 92  1  0  0  0
 89174  1  0  0  0
 90175  1  0  0  0
 92176  1  0  0  0
 92177  1  0  0  0
 92178  1  0  0  0
M  CHG  1  92   1
M  ISO  4   1 100  68 101  90 101  91 100
M  END
> <chiral flag>
0

> <version>
0

> <s_m_source_file>
/data/baiqing/PycharmProjects/Reinvent-master-3.2/result/LINK_invent/BTK/process_docking_weight1_custom_sum_contain_oxygen_bond_distance_aromatic_linkinvent_7_9_3/rearranged_h_0169.sdf

> <i_m_source_file_index>
25

> <r_mmod_Potential_Energy-OPLS-2005>
204.840759277344

> <r_mmod_Stretch_Energy-OPLS-2005>
78.2465972900391

> <r_mmod_Bend_Energy-OPLS-2005>
256.97021484375

> <r_mmod_Torsional_Energy-OPLS-2005>
469.731079101562

> <r_mmod_Improper_Torsional_Energy-OPLS-2005>
14.9771661758423

> <r_mmod_Van_der_Waal_Energy-OPLS-2005>
132.805999755859

> <r_mmod_Electrostatic_Energy-OPLS-2005>
-362.363250732422

> <r_mmod_Solvation_Energy-OPLS-2005>
-427.847351074219

> <b_mmod_Minimization_Converged-OPLS-2005>
0

> <r_mmod_RMS_Derivative-OPLS-2005>
8.40561866760254

$$$$
25
                    3D
 Structure written by MMmdl.
173182  0  0  1  0            999 V2000
  -30.6762  -14.5758   20.5079 C   0  0  0  0  0  0
  -30.4232  -12.3529   19.4491 C   0  0  0  0  0  0
  -29.4997  -12.4972   18.2210 C   0  0  0  0  0  0
  -28.0217  -12.3509   18.6329 C   0  0  0  0  0  0
  -27.6531  -13.2180   19.8669 C   0  0  2  0  0  0
  -28.6982  -13.0674   20.9952 C   0  0  0  0  0  0
  -25.2554  -13.8180   20.5693 C   0  0  0  0  0  0
  -24.1824  -13.0440   20.9194 C   0  0  0  0  0  0
  -24.6399  -11.6915   20.8753 C   0  0  0  0  0  0
  -23.9071  -10.4293   21.0417 C   0  0  0  0  0  0
  -24.3623   -9.4206   21.9193 C   0  0  0  0  0  0
  -23.6299   -8.2241   22.0753 C   0  0  0  0  0  0
  -22.4281   -8.0281   21.3543 C   0  0  0  0  0  0
  -21.9919   -9.0258   20.4646 C   0  0  0  0  0  0
  -22.7247  -10.2139   20.3061 C   0  0  0  0  0  0
  -21.6850   -6.0748   22.5285 C   0  0  0  0  0  0
  -21.4013   -6.5649   23.8220 C   0  0  0  0  0  0
  -21.3660   -5.6800   24.9180 C   0  0  0  0  0  0
  -21.6044   -4.3065   24.7228 C   0  0  0  0  0  0
  -21.8817   -3.8160   23.4349 C   0  0  0  0  0  0
  -21.9190   -4.6977   22.3407 C   0  0  0  0  0  0
  -22.7847  -13.5229   21.1858 C   0  0  0  0  0  0
  -22.1653   -4.2166   21.0982 F   0  0  0  0  0  0
  -21.5626   -3.4546   25.7739 F   0  0  0  0  0  0
  -30.0153  -13.3810   20.4247 N   0  0  0  0  0  0
  -26.2994  -12.9366   20.3362 N   0  0  0  0  0  0
  -25.9331  -11.6519   20.5791 N   0  0  0  0  0  0
  -22.0494  -12.8216   22.0414 N   0  0  0  0  0  0
  -25.4268  -15.1897   20.4096 N   0  0  0  0  0  0
  -31.8485  -14.6837   20.1340 O   0  0  0  0  0  0
  -21.6633   -6.8890   21.4248 O   0  0  0  0  0  0
  -22.3530  -14.5535   20.6708 O   0  0  0  0  0  0
  -24.6227  -31.8639   23.2076 C   0  0  0  0  0  0
  -25.9089  -32.4802   23.8388 C   0  0  1  0  0  0
  -27.2199  -27.3669   20.1092 C   0  0  0  0  0  0
  -25.5924  -33.8601   24.2313 N   0  0  0  0  0  0
  -23.4143  -30.4894   21.5491 C   0  0  2  0  0  0
  -24.8617  -28.9577   20.1064 C   0  0  0  0  0  0
  -22.7457  -29.4643   22.4957 C   0  0  0  0  0  0
  -18.0281  -28.1383   22.8490 C   0  0  0  0  0  0
  -24.1486  -36.7301   23.2637 C   0  0  0  0  0  0
  -25.9520  -30.8088   21.3738 C   0  0  0  0  0  0
  -26.0288  -29.4420   20.7137 C   0  0  0  0  0  0
  -27.2152  -28.6556   20.7117 C   0  0  0  0  0  0
  -26.0424  -26.9375   19.4587 C   0  0  0  0  0  0
  -24.8681  -27.7080   19.4697 C   0  0  0  0  0  0
  -23.6262  -29.8294   20.1619 C   0  0  0  0  0  0
  -25.4108  -36.3097   24.0332 C   0  0  1  0  0  0
  -20.5879  -28.3681   23.1294 C   0  0  2  0  0  0
  -20.6775  -26.9409   22.5410 C   0  0  0  0  0  0
  -19.5749  -26.6383   21.5215 C   0  0  0  0  0  0
  -18.1925  -26.7931   22.1618 C   0  0  0  0  0  0
  -19.1533  -28.8849   23.2891 C   0  0  0  0  0  0
  -18.9458  -30.1452   23.8906 C   0  0  0  0  0  0
  -17.6460  -30.6588   24.0563 C   0  0  0  0  0  0
  -25.9042  -34.9463   23.5117 C   0  0  0  0  0  0
  -16.5349  -29.9087   23.6334 C   0  0  0  0  0  0
  -16.7267  -28.6502   23.0358 C   0  0  0  0  0  0
  -26.4488  -31.6595   25.0738 C   0  0  0  0  0  0
  -25.3740  -31.3718   26.1478 C   0  0  0  0  0  0
  -27.0321  -30.3023   24.6158 C   0  0  0  0  0  0
  -27.6062  -32.4315   25.7497 C   0  0  0  0  0  0
  -27.5580  -37.1802   24.8462 C   0  0  0  0  0  0
  -21.4176  -29.3045   22.3697 N   0  0  0  0  0  0
  -26.4290  -37.3787   23.9410 N   0  0  0  0  0  0
  -24.6814  -31.0685   22.1011 N   0  0  0  0  0  0
  -23.4196  -28.8179   23.3020 O   0  0  0  0  0  0
  -28.2972  -26.4854   20.1773 O   0  0  0  0  0  0
  -26.5604  -34.8921   22.4680 O   0  0  0  0  0  0
  -23.5400  -32.1418   23.7426 O   0  0  0  0  0  0
  -29.9135  -23.7290   21.6615 C   0  0  0  0  0  0
  -28.8160  -23.9641   20.7931 C   0  0  0  0  0  0
  -30.4485  -22.4098   21.7825 C   0  0  0  0  0  0
  -28.3965  -22.8517   20.0024 C   0  0  0  0  0  0
  -29.9039  -21.3528   21.0083 C   0  0  0  0  0  0
  -29.8990  -17.7654   22.0337 C   0  0  0  0  0  0
  -30.3724  -18.0296   19.6196 C   0  0  0  0  0  0
  -29.3593  -16.3206   21.7756 C   0  0  0  0  0  0
  -29.7831  -16.6090   19.3829 C   0  0  0  0  0  0
  -29.7563  -18.7518   20.8389 C   0  0  0  0  0  0
  -30.4789  -24.8723   22.4979 C   0  0  0  0  0  0
  -31.5800  -22.1360   22.7751 C   0  0  0  0  0  0
  -25.9857  -22.2839   19.4549 C   0  0  0  0  0  0
  -27.7109  -22.4579   17.5826 C   0  0  0  0  0  0
  -27.9600  -25.2688   20.9227 C   0  0  0  0  0  0
  -27.2746  -22.9635   18.9686 C   0  0  0  0  0  0
  -28.9130  -21.5934   20.1302 N   0  0  0  0  0  0
  -29.8895  -15.6991   20.5461 N   0  0  0  0  0  0
  -30.4326  -20.0400   21.1203 N   0  0  0  0  0  0
  -31.4678  -12.4495   19.1495 H   0  0  0  0  0  0
  -30.3302  -11.3581   19.8872 H   0  0  0  0  0  0
  -29.7532  -11.7503   17.4673 H   0  0  0  0  0  0
  -29.6559  -13.4701   17.7520 H   0  0  0  0  0  0
  -27.8475  -11.2979   18.8574 H   0  0  0  0  0  0
  -27.3691  -12.5935   17.7935 H   0  0  0  0  0  0
  -27.6732  -14.2551   19.5324 H   0  0  0  0  0  0
  -28.6942  -12.0510   21.3914 H   0  0  0  0  0  0
  -28.4578  -13.7182   21.8355 H   0  0  0  0  0  0
  -25.2771   -9.5672   22.4767 H   0  0  0  0  0  0
  -24.0009   -7.4629   22.7470 H   0  0  0  0  0  0
  -21.0854   -8.8782   19.8950 H   0  0  0  0  0  0
  -22.3717  -10.9680   19.6167 H   0  0  0  0  0  0
  -21.2002   -7.6157   23.9728 H   0  0  0  0  0  0
  -21.1480   -6.0531   25.9084 H   0  0  0  0  0  0
  -22.0595   -2.7623   23.2842 H   0  0  0  0  0  0
  -22.4106  -11.9869   22.4794 H   0  0  0  0  0  0
  -21.1113  -13.1234   22.2621 H   0  0  0  0  0  0
  -24.6630  -15.8480   20.5182 H   0  0  0  0  0  0
  -26.2871  -15.6264   20.1048 H   0  0  0  0  0  0
  -26.7164  -32.5485   23.1149 H   0  0  0  0  0  0
  -25.0090  -33.9760   25.0470 H   0  0  0  0  0  0
  -22.7059  -31.3087   21.4102 H   0  0  0  0  0  0
  -23.3751  -35.9629   23.3293 H   0  0  0  0  0  0
  -24.3583  -36.8931   22.2053 H   0  0  0  0  0  0
  -23.7230  -37.6499   23.6660 H   0  0  0  0  0  0
  -26.0770  -31.5751   20.6077 H   0  0  0  0  0  0
  -26.8350  -30.8575   21.9993 H   0  0  0  0  0  0
  -28.1070  -29.0136   21.2069 H   0  0  0  0  0  0
  -26.0125  -25.9811   18.9595 H   0  0  0  0  0  0
  -23.9761  -27.3344   18.9855 H   0  0  0  0  0  0
  -23.7381  -30.6085   19.4071 H   0  0  0  0  0  0
  -22.7479  -29.2546   19.8620 H   0  0  0  0  0  0
  -25.1287  -36.1957   25.0826 H   0  0  0  0  0  0
  -20.9964  -28.3250   24.1417 H   0  0  0  0  0  0
  -20.5680  -26.2291   23.3607 H   0  0  0  0  0  0
  -21.6644  -26.7449   22.1199 H   0  0  0  0  0  0
  -19.6912  -25.6294   21.1245 H   0  0  0  0  0  0
  -19.6692  -27.3198   20.6748 H   0  0  0  0  0  0
  -17.4198  -26.6690   21.4016 H   0  0  0  0  0  0
  -18.0317  -26.0067   22.9006 H   0  0  0  0  0  0
  -19.7933  -30.7272   24.2277 H   0  0  0  0  0  0
  -17.5011  -31.6275   24.5154 H   0  0  0  0  0  0
  -15.5351  -30.2993   23.7658 H   0  0  0  0  0  0
  -15.8665  -28.0825   22.7076 H   0  0  0  0  0  0
  -24.5914  -30.7067   25.7809 H   0  0  0  0  0  0
  -24.8938  -32.2883   26.4922 H   0  0  0  0  0  0
  -25.8086  -30.8884   27.0239 H   0  0  0  0  0  0
  -26.2882  -29.6783   24.1192 H   0  0  0  0  0  0
  -27.4046  -29.7268   25.4643 H   0  0  0  0  0  0
  -27.8743  -30.4318   23.9356 H   0  0  0  0  0  0
  -27.2690  -33.3621   26.2077 H   0  0  0  0  0  0
  -28.3875  -32.6866   25.0324 H   0  0  0  0  0  0
  -28.0728  -31.8438   26.5415 H   0  0  0  0  0  0
  -28.2592  -38.0105   24.7522 H   0  0  0  0  0  0
  -28.1087  -36.2641   24.6269 H   0  0  0  0  0  0
  -27.2305  -37.1429   25.8868 H   0  0  0  0  0  0
  -20.9343  -29.8773   21.6921 H   0  0  0  0  0  0
  -26.0176  -38.2863   24.1423 H   0  0  0  0  0  0
  -30.9527  -17.6845   22.3060 H   0  0  0  0  0  0
  -29.3977  -18.1808   22.9096 H   0  0  0  0  0  0
  -30.2260  -18.6365   18.7248 H   0  0  0  0  0  0
  -31.4524  -17.9414   19.7501 H   0  0  0  0  0  0
  -28.2717  -16.3478   21.6996 H   0  0  0  0  0  0
  -29.5856  -15.6944   22.6405 H   0  0  0  0  0  0
  -30.2580  -16.1637   18.5066 H   0  0  0  0  0  0
  -28.7269  -16.6981   19.1260 H   0  0  0  0  0  0
  -28.6968  -18.9365   20.6529 H   0  0  0  0  0  0
  -30.3127  -25.8406   22.0263 H   0  0  0  0  0  0
  -31.5573  -24.7857   22.6275 H   0  0  0  0  0  0
  -30.0137  -24.8867   23.4837 H   0  0  0  0  0  0
  -31.4666  -22.7279   23.6827 H   0  0  0  0  0  0
  -32.5431  -22.3787   22.3261 H   0  0  0  0  0  0
  -31.6126  -21.1000   23.1095 H   0  0  0  0  0  0
  -25.6449  -22.7221   20.3928 H   0  0  0  0  0  0
  -26.1412  -21.2182   19.6247 H   0  0  0  0  0  0
  -25.1830  -22.3925   18.7259 H   0  0  0  0  0  0
  -28.5939  -22.9942   17.2344 H   0  0  0  0  0  0
  -26.9222  -22.6058   16.8450 H   0  0  0  0  0  0
  -27.9536  -21.3950   17.5989 H   0  0  0  0  0  0
  -27.9673  -25.5553   21.9747 H   0  0  0  0  0  0
  -26.9227  -24.9704   20.7819 H   0  0  0  0  0  0
  -27.0518  -24.0157   18.8138 H   0  0  0  0  0  0
  -31.2398  -19.9655   21.7257 H   0  0  0  0  0  0
  1 25  1  0  0  0
  1 30  2  0  0  0
  1 88  1  0  0  0
  2  3  1  0  0  0
  2 25  1  0  0  0
  2 90  1  0  0  0
  2 91  1  0  0  0
  3  4  1  0  0  0
  3 92  1  0  0  0
  3 93  1  0  0  0
  4  5  1  0  0  0
  4 94  1  0  0  0
  4 95  1  0  0  0
  5  6  1  0  0  0
  5 26  1  0  0  0
  5 96  1  0  0  0
  6 25  1  0  0  0
  6 97  1  0  0  0
  6 98  1  0  0  0
  7  8  2  0  0  0
  7 26  1  0  0  0
  7 29  1  0  0  0
  8  9  1  0  0  0
  8 22  1  0  0  0
  9 10  1  0  0  0
  9 27  2  0  0  0
 10 11  2  0  0  0
 10 15  1  0  0  0
 11 12  1  0  0  0
 11 99  1  0  0  0
 12 13  2  0  0  0
 12100  1  0  0  0
 13 14  1  0  0  0
 13 31  1  0  0  0
 14 15  2  0  0  0
 14101  1  0  0  0
 15102  1  0  0  0
 16 17  2  0  0  0
 16 21  1  0  0  0
 16 31  1  0  0  0
 17 18  1  0  0  0
 17103  1  0  0  0
 18 19  2  0  0  0
 18104  1  0  0  0
 19 20  1  0  0  0
 19 24  1  0  0  0
 20 21  2  0  0  0
 20105  1  0  0  0
 21 23  1  0  0  0
 22 28  1  0  0  0
 22 32  2  0  0  0
 26 27  1  0  0  0
 28106  1  0  0  0
 28107  1  0  0  0
 29108  1  0  0  0
 29109  1  0  0  0
 33 34  1  0  0  0
 33 66  1  0  0  0
 33 70  2  0  0  0
 34 36  1  0  0  0
 34 59  1  0  0  0
 34110  1  0  0  0
 35 44  2  0  0  0
 35 45  1  0  0  0
 35 68  1  0  0  0
 36 56  1  0  0  0
 36111  1  0  0  0
 37 39  1  0  0  0
 37 47  1  0  0  0
 37 66  1  0  0  0
 37112  1  0  0  0
 38 43  2  0  0  0
 38 46  1  0  0  0
 38 47  1  0  0  0
 39 64  1  0  0  0
 39 67  2  0  0  0
 40 52  1  0  0  0
 40 53  2  0  0  0
 40 58  1  0  0  0
 41113  1  0  0  0
 41114  1  0  0  0
 41115  1  0  0  0
 41 48  1  0  0  0
 42 43  1  0  0  0
 42 66  1  0  0  0
 42116  1  0  0  0
 42117  1  0  0  0
 43 44  1  0  0  0
 44118  1  0  0  0
 45 46  2  0  0  0
 45119  1  0  0  0
 46120  1  0  0  0
 47121  1  0  0  0
 47122  1  0  0  0
 48 56  1  0  0  0
 48 65  1  0  0  0
 48123  1  0  0  0
 49 50  1  0  0  0
 49 53  1  0  0  0
 49 64  1  0  0  0
 49124  1  0  0  0
 50 51  1  0  0  0
 50125  1  0  0  0
 50126  1  0  0  0
 51 52  1  0  0  0
 51127  1  0  0  0
 51128  1  0  0  0
 52129  1  0  0  0
 52130  1  0  0  0
 53 54  1  0  0  0
 54 55  2  0  0  0
 54131  1  0  0  0
 55 57  1  0  0  0
 55132  1  0  0  0
 56 69  2  0  0  0
 57 58  2  0  0  0
 57133  1  0  0  0
 58134  1  0  0  0
 59 60  1  0  0  0
 59 61  1  0  0  0
 59 62  1  0  0  0
 60135  1  0  0  0
 60136  1  0  0  0
 60137  1  0  0  0
 61138  1  0  0  0
 61139  1  0  0  0
 61140  1  0  0  0
 62141  1  0  0  0
 62142  1  0  0  0
 62143  1  0  0  0
 63 65  1  0  0  0
 63144  1  0  0  0
 63145  1  0  0  0
 63146  1  0  0  0
 64147  1  0  0  0
 65148  1  0  0  0
 68 85  1  0  0  0
 71 72  2  0  0  0
 71 73  1  0  0  0
 71 81  1  0  0  0
 72 74  1  0  0  0
 72 85  1  0  0  0
 73 75  2  0  0  0
 73 82  1  0  0  0
 74 86  1  0  0  0
 74 87  2  0  0  0
 75 87  1  0  0  0
 75 89  1  0  0  0
 76 78  1  0  0  0
 76 80  1  0  0  0
 76149  1  0  0  0
 76150  1  0  0  0
 77 79  1  0  0  0
 77 80  1  0  0  0
 77151  1  0  0  0
 77152  1  0  0  0
 78 88  1  0  0  0
 78153  1  0  0  0
 78154  1  0  0  0
 79 88  1  0  0  0
 79155  1  0  0  0
 79156  1  0  0  0
 80 89  1  0  0  0
 80157  1  0  0  0
 81158  1  0  0  0
 81159  1  0  0  0
 81160  1  0  0  0
 82161  1  0  0  0
 82162  1  0  0  0
 82163  1  0  0  0
 83164  1  0  0  0
 83165  1  0  0  0
 83166  1  0  0  0
 83 86  1  0  0  0
 84 86  1  0  0  0
 84167  1  0  0  0
 84168  1  0  0  0
 84169  1  0  0  0
 85170  1  0  0  0
 85171  1  0  0  0
 86172  1  0  0  0
 89173  1  0  0  0
M  ISO  4   1 100  68 101  85 101  88 100
M  END
> <chiral flag>
0

> <version>
0

> <s_m_source_file>
/data/baiqing/PycharmProjects/Reinvent-master-3.2/result/LINK_invent/BTK/process_docking_weight1_custom_sum_contain_oxygen_bond_distance_aromatic_linkinvent_7_9_3/rearranged_h_0169.sdf

> <i_m_source_file_index>
26

> <r_mmod_Potential_Energy-OPLS-2005>
19.0087356567383

> <r_mmod_Stretch_Energy-OPLS-2005>
61.2004013061523

> <r_mmod_Bend_Energy-OPLS-2005>
137.758560180664

> <r_mmod_Torsional_Energy-OPLS-2005>
350.457977294922

> <r_mmod_Improper_Torsional_Energy-OPLS-2005>
18.0710048675537

> <r_mmod_Van_der_Waal_Energy-OPLS-2005>
154.564834594727

> <r_mmod_Electrostatic_Energy-OPLS-2005>
-526.165283203125

> <r_mmod_Solvation_Energy-OPLS-2005>
-213.705688476562

> <b_mmod_Minimization_Converged-OPLS-2005>
0

> <r_mmod_RMS_Derivative-OPLS-2005>
0.794950306415558

$$$$
26
                    3D
 Structure written by MMmdl.
179189  0  0  1  0            999 V2000
  -30.7543  -14.4662   20.5123 C   0  0  0  0  0  0
  -30.4043  -12.2932   19.4220 C   0  0  0  0  0  0
  -29.4843  -12.4837   18.2000 C   0  0  0  0  0  0
  -28.0020  -12.3716   18.6108 C   0  0  0  0  0  0
  -27.6508  -13.2186   19.8663 C   0  0  2  0  0  0
  -28.7027  -13.0353   20.9806 C   0  0  0  0  0  0
  -25.2459  -13.8085   20.5723 C   0  0  0  0  0  0
  -24.1740  -13.0350   20.9194 C   0  0  0  0  0  0
  -24.6360  -11.6846   20.8740 C   0  0  0  0  0  0
  -23.9040  -10.4241   21.0398 C   0  0  0  0  0  0
  -24.3597   -9.4160   21.9178 C   0  0  0  0  0  0
  -23.6271   -8.2207   22.0766 C   0  0  0  0  0  0
  -22.4254   -8.0255   21.3554 C   0  0  0  0  0  0
  -21.9884   -9.0211   20.4646 C   0  0  0  0  0  0
  -22.7219  -10.2077   20.3042 C   0  0  0  0  0  0
  -21.6832   -6.0711   22.5268 C   0  0  0  0  0  0
  -21.3999   -6.5629   23.8193 C   0  0  0  0  0  0
  -21.3655   -5.6796   24.9156 C   0  0  0  0  0  0
  -21.6051   -4.3058   24.7229 C   0  0  0  0  0  0
  -21.8812   -3.8135   23.4352 C   0  0  0  0  0  0
  -21.9180   -4.6937   22.3401 C   0  0  0  0  0  0
  -22.7773  -13.5159   21.1841 C   0  0  0  0  0  0
  -22.1663   -4.2128   21.0978 F   0  0  0  0  0  0
  -21.5624   -3.4545   25.7745 F   0  0  0  0  0  0
  -30.0221  -13.3229   20.3996 N   0  0  0  0  0  0
  -26.2963  -12.9349   20.3396 N   0  0  0  0  0  0
  -25.9307  -11.6481   20.5793 N   0  0  0  0  0  0
  -22.0428  -12.8194   22.0438 N   0  0  0  0  0  0
  -25.3928  -15.1786   20.4207 N   0  0  0  0  0  0
  -31.9611  -14.4816   20.2566 O   0  0  0  0  0  0
  -21.6597   -6.8859   21.4246 O   0  0  0  0  0  0
  -22.3462  -14.5463   20.6666 O   0  0  0  0  0  0
  -24.6129  -31.8706   23.2109 C   0  0  0  0  0  0
  -25.9040  -32.4833   23.8398 C   0  0  1  0  0  0
  -27.2290  -27.4599   20.0834 C   0  0  0  0  0  0
  -25.5908  -33.8630   24.2328 N   0  0  0  0  0  0
  -23.3986  -30.4950   21.5523 C   0  0  2  0  0  0
  -24.8430  -28.9613   20.1170 C   0  0  0  0  0  0
  -22.7404  -29.4670   22.4995 C   0  0  0  0  0  0
  -18.0283  -28.1372   22.8497 C   0  0  0  0  0  0
  -24.1484  -36.7317   23.2634 C   0  0  0  0  0  0
  -25.9259  -30.8428   21.3600 C   0  0  0  0  0  0
  -26.0038  -29.4783   20.7073 C   0  0  0  0  0  0
  -27.2048  -28.7363   20.6850 C   0  0  0  0  0  0
  -26.0536  -26.9489   19.4973 C   0  0  0  0  0  0
  -24.8601  -27.6931   19.5112 C   0  0  0  0  0  0
  -23.6049  -29.8280   20.1664 C   0  0  0  0  0  0
  -25.4107  -36.3116   24.0333 C   0  0  1  0  0  0
  -20.5872  -28.3656   23.1322 C   0  0  2  0  0  0
  -20.6764  -26.9381   22.5457 C   0  0  0  0  0  0
  -19.5770  -26.6362   21.5240 C   0  0  0  0  0  0
  -18.1943  -26.7899   22.1639 C   0  0  0  0  0  0
  -19.1531  -28.8838   23.2896 C   0  0  0  0  0  0
  -18.9453  -30.1457   23.8886 C   0  0  0  0  0  0
  -17.6456  -30.6594   24.0551 C   0  0  0  0  0  0
  -25.9033  -34.9485   23.5122 C   0  0  0  0  0  0
  -16.5353  -29.9078   23.6344 C   0  0  0  0  0  0
  -16.7273  -28.6497   23.0360 C   0  0  0  0  0  0
  -26.4482  -31.6596   25.0713 C   0  0  0  0  0  0
  -25.3765  -31.3696   26.1475 C   0  0  0  0  0  0
  -27.0294  -30.3037   24.6061 C   0  0  0  0  0  0
  -27.6053  -32.4314   25.7476 C   0  0  0  0  0  0
  -27.5582  -37.1820   24.8466 C   0  0  0  0  0  0
  -21.4143  -29.3008   22.3720 N   0  0  0  0  0  0
  -26.4297  -37.3798   23.9403 N   0  0  0  0  0  0
  -24.6643  -31.0828   22.0993 N   0  0  0  0  0  0
  -23.4194  -28.8226   23.3031 O   0  0  0  0  0  0
  -28.3925  -26.7320   20.0391 O   0  0  0  0  0  0
  -26.5590  -34.8936   22.4682 O   0  0  0  0  0  0
  -23.5330  -32.1427   23.7532 O   0  0  0  0  0  0
  -27.6117  -20.4855   19.8018 C   0  0  0  0  0  0
  -25.5918  -19.6071   18.0928 C   0  0  0  0  0  0
  -27.6111  -19.1292   19.3905 C   0  0  0  0  0  0
  -26.6125  -21.4031   19.3931 C   0  0  0  0  0  0
  -26.5731  -18.6925   18.5188 C   0  0  0  0  0  0
  -25.5931  -20.9488   18.5162 C   0  0  0  0  0  0
  -25.7236  -23.7061   22.2898 C   0  0  0  0  0  0
  -25.5128  -22.2173   22.2344 C   0  0  0  0  0  0
  -28.2979  -17.2495   21.0335 C   0  0  0  0  0  0
  -29.5600  -17.5218   18.8229 C   0  0  0  0  0  0
  -29.4486  -16.3273   21.5038 C   0  0  0  0  0  0
  -30.6470  -16.6327   19.4356 C   0  0  0  0  0  0
  -28.7395  -18.2257   19.9194 C   0  0  0  0  0  0
  -26.6658  -22.8405   21.4739 C   0  0  0  0  0  0
  -26.4427  -17.2772   17.9770 C   0  0  0  0  0  0
  -24.4695  -21.8491   18.0216 C   0  0  0  0  0  0
  -28.7812  -24.2859   20.0335 C   0  0  0  0  0  0
  -28.3899  -25.5477   20.8407 C   0  0  0  0  0  0
  -26.6353  -22.8387   19.9443 C   0  0  1  0  0  0
  -30.0717  -15.6335   20.3645 N   0  0  0  0  0  0
  -27.6744  -23.6567   19.2576 N   0  3  0  0  0  0
  -31.4506  -12.3551   19.1165 H   0  0  0  0  0  0
  -30.2789  -11.2963   19.8491 H   0  0  0  0  0  0
  -29.7194  -11.7440   17.4330 H   0  0  0  0  0  0
  -29.6684  -13.4594   17.7466 H   0  0  0  0  0  0
  -27.7969  -11.3192   18.8043 H   0  0  0  0  0  0
  -27.3584  -12.6558   17.7767 H   0  0  0  0  0  0
  -27.6798  -14.2630   19.5589 H   0  0  0  0  0  0
  -28.6836  -12.0122   21.3592 H   0  0  0  0  0  0
  -28.4772  -13.6648   21.8376 H   0  0  0  0  0  0
  -25.2725   -9.5649   22.4757 H   0  0  0  0  0  0
  -23.9965   -7.4617   22.7505 H   0  0  0  0  0  0
  -21.0801   -8.8701   19.8985 H   0  0  0  0  0  0
  -22.3656  -10.9598   19.6150 H   0  0  0  0  0  0
  -21.1993   -7.6142   23.9697 H   0  0  0  0  0  0
  -21.1504   -6.0523   25.9065 H   0  0  0  0  0  0
  -22.0607   -2.7602   23.2842 H   0  0  0  0  0  0
  -22.4023  -11.9829   22.4809 H   0  0  0  0  0  0
  -21.1052  -13.1226   22.2637 H   0  0  0  0  0  0
  -24.6132  -15.8181   20.5270 H   0  0  0  0  0  0
  -26.2514  -15.6373   20.1524 H   0  0  0  0  0  0
  -26.7115  -32.5548   23.1177 H   0  0  0  0  0  0
  -25.0101  -33.9793   25.0501 H   0  0  0  0  0  0
  -22.6872  -31.3121   21.4165 H   0  0  0  0  0  0
  -23.3745  -35.9655   23.3306 H   0  0  0  0  0  0
  -24.3583  -36.8911   22.2047 H   0  0  0  0  0  0
  -23.7244  -37.6529   23.6635 H   0  0  0  0  0  0
  -26.0363  -31.6097   20.5924 H   0  0  0  0  0  0
  -26.8153  -30.8946   21.9753 H   0  0  0  0  0  0
  -28.1070  -29.1398   21.1242 H   0  0  0  0  0  0
  -26.0539  -25.9854   19.0143 H   0  0  0  0  0  0
  -23.9678  -27.2905   19.0521 H   0  0  0  0  0  0
  -23.7136  -30.6025   19.4058 H   0  0  0  0  0  0
  -22.7292  -29.2475   19.8694 H   0  0  0  0  0  0
  -25.1292  -36.1987   25.0827 H   0  0  0  0  0  0
  -20.9970  -28.3280   24.1435 H   0  0  0  0  0  0
  -20.5602  -26.2281   23.3653 H   0  0  0  0  0  0
  -21.6649  -26.7373   22.1304 H   0  0  0  0  0  0
  -19.6940  -25.6277   21.1278 H   0  0  0  0  0  0
  -19.6711  -27.3185   20.6782 H   0  0  0  0  0  0
  -17.4210  -26.6626   21.4036 H   0  0  0  0  0  0
  -18.0346  -26.0044   22.9041 H   0  0  0  0  0  0
  -19.7927  -30.7294   24.2240 H   0  0  0  0  0  0
  -17.5020  -31.6276   24.5139 H   0  0  0  0  0  0
  -15.5355  -30.2980   23.7657 H   0  0  0  0  0  0
  -15.8683  -28.0810   22.7069 H   0  0  0  0  0  0
  -24.5962  -30.7005   25.7843 H   0  0  0  0  0  0
  -24.8938  -32.2840   26.4919 H   0  0  0  0  0  0
  -25.8152  -30.8898   27.0226 H   0  0  0  0  0  0
  -26.2808  -29.6819   24.1131 H   0  0  0  0  0  0
  -27.4082  -29.7261   25.4501 H   0  0  0  0  0  0
  -27.8640  -30.4353   23.9176 H   0  0  0  0  0  0
  -27.2667  -33.3607   26.2074 H   0  0  0  0  0  0
  -28.3859  -32.6882   25.0302 H   0  0  0  0  0  0
  -28.0727  -31.8423   26.5377 H   0  0  0  0  0  0
  -28.2621  -38.0100   24.7515 H   0  0  0  0  0  0
  -28.1057  -36.2634   24.6293 H   0  0  0  0  0  0
  -27.2299  -37.1484   25.8870 H   0  0  0  0  0  0
  -20.9278  -29.8731   21.6961 H   0  0  0  0  0  0
  -26.0182  -38.2873   24.1405 H   0  0  0  0  0  0
  -28.3928  -20.8290   20.4656 H   0  0  0  0  0  0
  -24.8100  -19.2622   17.4292 H   0  0  0  0  0  0
  -26.1051  -24.1288   23.2166 H   0  0  0  0  0  0
  -25.0189  -24.3366   21.7501 H   0  0  0  0  0  0
  -24.6654  -21.8500   21.6584 H   0  0  0  0  0  0
  -25.7552  -21.6369   23.1224 H   0  0  0  0  0  0
  -27.9146  -17.8201   21.8810 H   0  0  0  0  0  0
  -27.4742  -16.6377   20.6922 H   0  0  0  0  0  0
  -28.9571  -16.8944   18.1749 H   0  0  0  0  0  0
  -30.0187  -18.2697   18.1745 H   0  0  0  0  0  0
  -29.0849  -15.6370   22.2608 H   0  0  0  0  0  0
  -30.2073  -16.9285   22.0088 H   0  0  0  0  0  0
  -31.3847  -17.2414   19.9618 H   0  0  0  0  0  0
  -31.1812  -16.1533   18.6120 H   0  0  0  0  0  0
  -29.4582  -18.8920   20.4009 H   0  0  0  0  0  0
  -27.6300  -22.5930   21.9106 H   0  0  0  0  0  0
  -25.3919  -17.0022   17.8774 H   0  0  0  0  0  0
  -26.9018  -16.5194   18.6025 H   0  0  0  0  0  0
  -26.8941  -17.2158   16.9864 H   0  0  0  0  0  0
  -24.8526  -22.7787   17.6010 H   0  0  0  0  0  0
  -23.7826  -22.0830   18.8356 H   0  0  0  0  0  0
  -23.8903  -21.3635   17.2357 H   0  0  0  0  0  0
  -29.2338  -23.5426   20.6896 H   0  0  0  0  0  0
  -29.5684  -24.5620   19.3317 H   0  0  0  0  0  0
  -29.1458  -25.7090   21.6106 H   0  0  0  0  0  0
  -27.4567  -25.4169   21.3844 H   0  0  0  0  0  0
  -25.6993  -23.3217   19.6754 H   0  0  0  0  0  0
  -28.0937  -23.0370   18.5827 H   0  0  0  0  0  0
  -27.2105  -24.3669   18.7164 H   0  0  0  0  0  0
  1 25  1  0  0  0
  1 30  2  0  0  0
  1 90  1  0  0  0
  2  3  1  0  0  0
  2 25  1  0  0  0
  2 92  1  0  0  0
  2 93  1  0  0  0
  3  4  1  0  0  0
  3 94  1  0  0  0
  3 95  1  0  0  0
  4  5  1  0  0  0
  4 96  1  0  0  0
  4 97  1  0  0  0
  5  6  1  0  0  0
  5 26  1  0  0  0
  5 98  1  0  0  0
  6 25  1  0  0  0
  6 99  1  0  0  0
  6100  1  0  0  0
  7  8  2  0  0  0
  7 26  1  0  0  0
  7 29  1  0  0  0
  8  9  1  0  0  0
  8 22  1  0  0  0
  9 10  1  0  0  0
  9 27  2  0  0  0
 10 11  2  0  0  0
 10 15  1  0  0  0
 11 12  1  0  0  0
 11101  1  0  0  0
 12 13  2  0  0  0
 12102  1  0  0  0
 13 14  1  0  0  0
 13 31  1  0  0  0
 14 15  2  0  0  0
 14103  1  0  0  0
 15104  1  0  0  0
 16 17  2  0  0  0
 16 21  1  0  0  0
 16 31  1  0  0  0
 17 18  1  0  0  0
 17105  1  0  0  0
 18 19  2  0  0  0
 18106  1  0  0  0
 19 20  1  0  0  0
 19 24  1  0  0  0
 20 21  2  0  0  0
 20107  1  0  0  0
 21 23  1  0  0  0
 22 28  1  0  0  0
 22 32  2  0  0  0
 26 27  1  0  0  0
 28108  1  0  0  0
 28109  1  0  0  0
 29110  1  0  0  0
 29111  1  0  0  0
 33 34  1  0  0  0
 33 66  1  0  0  0
 33 70  2  0  0  0
 34 36  1  0  0  0
 34 59  1  0  0  0
 34112  1  0  0  0
 35 44  2  0  0  0
 35 45  1  0  0  0
 35 68  1  0  0  0
 36 56  1  0  0  0
 36113  1  0  0  0
 37 39  1  0  0  0
 37 47  1  0  0  0
 37 66  1  0  0  0
 37114  1  0  0  0
 38 43  2  0  0  0
 38 46  1  0  0  0
 38 47  1  0  0  0
 39 64  1  0  0  0
 39 67  2  0  0  0
 40 52  1  0  0  0
 40 53  2  0  0  0
 40 58  1  0  0  0
 41115  1  0  0  0
 41116  1  0  0  0
 41117  1  0  0  0
 41 48  1  0  0  0
 42 43  1  0  0  0
 42 66  1  0  0  0
 42118  1  0  0  0
 42119  1  0  0  0
 43 44  1  0  0  0
 44120  1  0  0  0
 45 46  2  0  0  0
 45121  1  0  0  0
 46122  1  0  0  0
 47123  1  0  0  0
 47124  1  0  0  0
 48 56  1  0  0  0
 48 65  1  0  0  0
 48125  1  0  0  0
 49 50  1  0  0  0
 49 53  1  0  0  0
 49 64  1  0  0  0
 49126  1  0  0  0
 50 51  1  0  0  0
 50127  1  0  0  0
 50128  1  0  0  0
 51 52  1  0  0  0
 51129  1  0  0  0
 51130  1  0  0  0
 52131  1  0  0  0
 52132  1  0  0  0
 53 54  1  0  0  0
 54 55  2  0  0  0
 54133  1  0  0  0
 55 57  1  0  0  0
 55134  1  0  0  0
 56 69  2  0  0  0
 57 58  2  0  0  0
 57135  1  0  0  0
 58136  1  0  0  0
 59 60  1  0  0  0
 59 61  1  0  0  0
 59 62  1  0  0  0
 60137  1  0  0  0
 60138  1  0  0  0
 60139  1  0  0  0
 61140  1  0  0  0
 61141  1  0  0  0
 61142  1  0  0  0
 62143  1  0  0  0
 62144  1  0  0  0
 62145  1  0  0  0
 63 65  1  0  0  0
 63146  1  0  0  0
 63147  1  0  0  0
 63148  1  0  0  0
 64149  1  0  0  0
 65150  1  0  0  0
 68 88  1  0  0  0
 71 73  2  0  0  0
 71 74  1  0  0  0
 71151  1  0  0  0
 72 75  2  0  0  0
 72 76  1  0  0  0
 72152  1  0  0  0
 73 75  1  0  0  0
 73 83  1  0  0  0
 74 76  2  0  0  0
 74 89  1  0  0  0
 75 85  1  0  0  0
 76 86  1  0  0  0
 77 78  1  0  0  0
 77153  1  0  0  0
 77154  1  0  0  0
 77 84  1  0  0  0
 78 84  1  0  0  0
 78155  1  0  0  0
 78156  1  0  0  0
 79 81  1  0  0  0
 79 83  1  0  0  0
 79157  1  0  0  0
 79158  1  0  0  0
 80 82  1  0  0  0
 80 83  1  0  0  0
 80159  1  0  0  0
 80160  1  0  0  0
 81 90  1  0  0  0
 81161  1  0  0  0
 81162  1  0  0  0
 82 90  1  0  0  0
 82163  1  0  0  0
 82164  1  0  0  0
 83165  1  0  0  0
 84 89  1  0  0  0
 84166  1  0  0  0
 85167  1  0  0  0
 85168  1  0  0  0
 85169  1  0  0  0
 86170  1  0  0  0
 86171  1  0  0  0
 86172  1  0  0  0
 87 88  1  0  0  0
 87 91  1  0  0  0
 87173  1  0  0  0
 87174  1  0  0  0
 88175  1  0  0  0
 88176  1  0  0  0
 89 91  1  0  0  0
 89177  1  0  0  0
 91178  1  0  0  0
 91179  1  0  0  0
M  CHG  1  91   1
M  ISO  4   1 100  68 101  88 101  90 100
M  END
> <chiral flag>
0

> <version>
0

> <s_m_source_file>
/data/baiqing/PycharmProjects/Reinvent-master-3.2/result/LINK_invent/BTK/process_docking_weight1_custom_sum_contain_oxygen_bond_distance_aromatic_linkinvent_7_9_3/rearranged_h_0169.sdf

> <i_m_source_file_index>
27

> <r_mmod_Potential_Energy-OPLS-2005>
117.939476013184

> <r_mmod_Stretch_Energy-OPLS-2005>
41.6792221069336

> <r_mmod_Bend_Energy-OPLS-2005>
128.244400024414

> <r_mmod_Torsional_Energy-OPLS-2005>
389.026397705078

> <r_mmod_Improper_Torsional_Energy-OPLS-2005>
21.1995239257812

> <r_mmod_Van_der_Waal_Energy-OPLS-2005>
151.536529541016

> <r_mmod_Electrostatic_Energy-OPLS-2005>
-231.293731689453

> <r_mmod_Solvation_Energy-OPLS-2005>
-406.591156005859

> <b_mmod_Minimization_Converged-OPLS-2005>
0

> <r_mmod_RMS_Derivative-OPLS-2005>
2.70062947273254

$$$$
27
                    3D
 Structure written by MMmdl.
158167  0  0  1  0            999 V2000
  -30.4704  -15.1600   20.4178 C   0  0  0  0  0  0
  -30.4352  -12.7414   19.5193 C   0  0  0  0  0  0
  -29.5310  -12.5742   18.2754 C   0  0  0  0  0  0
  -28.0719  -12.3182   18.6892 C   0  0  0  0  0  0
  -27.6140  -13.2669   19.8269 C   0  0  2  0  0  0
  -28.6476  -13.3826   20.9667 C   0  0  0  0  0  0
  -25.2414  -13.8230   20.5719 C   0  0  0  0  0  0
  -24.1754  -13.0439   20.9227 C   0  0  0  0  0  0
  -24.6376  -11.6927   20.8735 C   0  0  0  0  0  0
  -23.9065  -10.4298   21.0389 C   0  0  0  0  0  0
  -24.3625   -9.4207   21.9152 C   0  0  0  0  0  0
  -23.6296   -8.2233   22.0729 C   0  0  0  0  0  0
  -22.4277   -8.0265   21.3527 C   0  0  0  0  0  0
  -21.9915   -9.0236   20.4611 C   0  0  0  0  0  0
  -22.7243  -10.2118   20.3006 C   0  0  0  0  0  0
  -21.6829   -6.0729   22.5270 C   0  0  0  0  0  0
  -21.3996   -6.5643   23.8215 C   0  0  0  0  0  0
  -21.3671   -5.6786   24.9172 C   0  0  0  0  0  0
  -21.6037   -4.3034   24.7209 C   0  0  0  0  0  0
  -21.8827   -3.8139   23.4331 C   0  0  0  0  0  0
  -21.9193   -4.6969   22.3393 C   0  0  0  0  0  0
  -22.7781  -13.5204   21.1897 C   0  0  0  0  0  0
  -22.1652   -4.2157   21.0970 F   0  0  0  0  0  0
  -21.5645   -3.4531   25.7727 F   0  0  0  0  0  0
  -29.8940  -13.8687   20.3571 N   0  0  0  0  0  0
  -26.2823  -12.9478   20.3188 N   0  0  0  0  0  0
  -25.9297  -11.6593   20.5642 N   0  0  0  0  0  0
  -22.0438  -12.8163   22.0425 N   0  0  0  0  0  0
  -25.4106  -15.1972   20.4242 N   0  0  0  0  0  0
  -31.6830  -15.1775   20.1617 O   0  0  0  0  0  0
  -21.6616   -6.8878   21.4229 O   0  0  0  0  0  0
  -22.3463  -14.5541   20.6782 O   0  0  0  0  0  0
  -24.6616  -31.8306   23.1727 C   0  0  0  0  0  0
  -25.9351  -32.4610   23.8170 C   0  0  1  0  0  0
  -27.2018  -26.9691   20.1986 C   0  0  0  0  0  0
  -25.6081  -33.8427   24.2098 N   0  0  0  0  0  0
  -23.4709  -30.4426   21.5219 C   0  0  2  0  0  0
  -24.9203  -28.8433   20.1044 C   0  0  0  0  0  0
  -22.7680  -29.4482   22.4812 C   0  0  0  0  0  0
  -18.0327  -28.1433   22.8466 C   0  0  0  0  0  0
  -24.1464  -36.7141   23.2641 C   0  0  0  0  0  0
  -26.0359  -30.6518   21.3964 C   0  0  0  0  0  0
  -26.0995  -29.2455   20.7449 C   0  0  0  0  0  0
  -27.2292  -28.3214   20.7831 C   0  0  0  0  0  0
  -26.0113  -26.7252   19.4751 C   0  0  0  0  0  0
  -24.9003  -27.6044   19.4490 C   0  0  0  0  0  0
  -23.7063  -29.7659   20.1414 C   0  0  0  0  0  0
  -25.4097  -36.2932   24.0299 C   0  0  1  0  0  0
  -20.5957  -28.3766   23.1186 C   0  0  2  0  0  0
  -20.6789  -26.9455   22.5394 C   0  0  0  0  0  0
  -19.5742  -26.6389   21.5226 C   0  0  0  0  0  0
  -18.1925  -26.7981   22.1613 C   0  0  0  0  0  0
  -19.1594  -28.8921   23.2792 C   0  0  0  0  0  0
  -18.9514  -30.1539   23.8791 C   0  0  0  0  0  0
  -17.6504  -30.6605   24.0592 C   0  0  0  0  0  0
  -25.9095  -34.9354   23.4970 C   0  0  0  0  0  0
  -16.5377  -29.9078   23.6394 C   0  0  0  0  0  0
  -16.7305  -28.6527   23.0362 C   0  0  0  0  0  0
  -26.4629  -31.6535   25.0664 C   0  0  0  0  0  0
  -25.3776  -31.3812   26.1338 C   0  0  0  0  0  0
  -27.0595  -30.2931   24.6372 C   0  0  0  0  0  0
  -27.6125  -32.4374   25.7459 C   0  0  0  0  0  0
  -27.5530  -37.1702   24.8464 C   0  0  0  0  0  0
  -21.4356  -29.3048   22.3565 N   0  0  0  0  0  0
  -26.4195  -37.3703   23.9482 N   0  0  0  0  0  0
  -24.7443  -31.0042   22.0828 N   0  0  0  0  0  0
  -23.4255  -28.8062   23.3035 O   0  0  0  0  0  0
  -28.1815  -25.8680   20.3561 O   0  0  0  0  0  0
  -26.5642  -34.8908   22.4531 O   0  0  0  0  0  0
  -23.5693  -32.1276   23.6840 O   0  0  0  0  0  0
  -28.4924  -22.2896   21.9081 C   0  0  0  0  0  0
  -28.5184  -22.7665   20.5434 C   0  0  0  0  0  0
  -28.8812  -20.9440   22.0276 C   0  0  0  0  0  0
  -28.9207  -21.5164   19.9141 C   0  0  0  0  0  0
  -29.2043  -17.5223   19.6822 C   0  0  0  0  0  0
  -30.0510  -17.5955   21.5638 C   0  0  0  0  0  0
  -29.7059  -18.8027   20.5373 C   0  0  0  0  0  0
  -28.0625  -23.1416   23.0856 C   0  0  0  0  0  0
  -29.0011  -20.1700   23.3144 C   0  0  0  0  0  0
  -29.1022  -21.3153   18.4416 C   0  0  0  0  0  0
  -27.9670  -24.3122   19.9287 C   0  0  0  0  0  0
  -29.1509  -20.3295   20.7826 N   0  0  0  0  0  0
  -29.7345  -16.4156   20.6309 N   0  0  0  0  0  0
  -31.4594  -12.9313   19.2002 H   0  0  0  0  0  0
  -30.4770  -11.8138   20.0916 H   0  0  0  0  0  0
  -29.8951  -11.7588   17.6502 H   0  0  0  0  0  0
  -29.5875  -13.4732   17.6603 H   0  0  0  0  0  0
  -27.9956  -11.2815   19.0160 H   0  0  0  0  0  0
  -27.4102  -12.4106   17.8276 H   0  0  0  0  0  0
  -27.5461  -14.2514   19.3641 H   0  0  0  0  0  0
  -28.7888  -12.4251   21.4708 H   0  0  0  0  0  0
  -28.2983  -14.0850   21.7258 H   0  0  0  0  0  0
  -25.2761   -9.5688   22.4729 H   0  0  0  0  0  0
  -24.0008   -7.4611   22.7435 H   0  0  0  0  0  0
  -21.0852   -8.8721   19.8899 H   0  0  0  0  0  0
  -22.3679  -10.9641   19.6107 H   0  0  0  0  0  0
  -21.1949   -7.6154   23.9724 H   0  0  0  0  0  0
  -21.1493   -6.0514   25.9096 H   0  0  0  0  0  0
  -22.0602   -2.7600   23.2807 H   0  0  0  0  0  0
  -22.4055  -11.9803   22.4777 H   0  0  0  0  0  0
  -21.1043  -13.1146   22.2657 H   0  0  0  0  0  0
  -24.6492  -15.8541   20.5459 H   0  0  0  0  0  0
  -26.2779  -15.6373   20.1469 H   0  0  0  0  0  0
  -26.7449  -32.5160   23.0914 H   0  0  0  0  0  0
  -25.0495  -33.9556   25.0412 H   0  0  0  0  0  0
  -22.7814  -31.2709   21.3545 H   0  0  0  0  0  0
  -23.3770  -35.9423   23.3230 H   0  0  0  0  0  0
  -24.3572  -36.8848   22.2076 H   0  0  0  0  0  0
  -23.7144  -37.6271   23.6737 H   0  0  0  0  0  0
  -26.2173  -31.3946   20.6182 H   0  0  0  0  0  0
  -26.8962  -30.7052   22.0505 H   0  0  0  0  0  0
  -28.1085  -28.6113   21.3420 H   0  0  0  0  0  0
  -25.8862  -25.7908   18.9499 H   0  0  0  0  0  0
  -24.0089  -27.2936   18.9207 H   0  0  0  0  0  0
  -23.8557  -30.5354   19.3822 H   0  0  0  0  0  0
  -22.8178  -29.2173   19.8232 H   0  0  0  0  0  0
  -25.1280  -36.1671   25.0780 H   0  0  0  0  0  0
  -21.0040  -28.3331   24.1309 H   0  0  0  0  0  0
  -20.5704  -26.2381   23.3626 H   0  0  0  0  0  0
  -21.6636  -26.7443   22.1168 H   0  0  0  0  0  0
  -19.6879  -25.6284   21.1270 H   0  0  0  0  0  0
  -19.6650  -27.3200   20.6754 H   0  0  0  0  0  0
  -17.4217  -26.6815   21.3991 H   0  0  0  0  0  0
  -18.0235  -26.0116   22.8979 H   0  0  0  0  0  0
  -19.7998  -30.7428   24.2014 H   0  0  0  0  0  0
  -17.5050  -31.6264   24.5237 H   0  0  0  0  0  0
  -15.5375  -30.2959   23.7777 H   0  0  0  0  0  0
  -15.8718  -28.0846   22.7065 H   0  0  0  0  0  0
  -24.5956  -30.7164   25.7654 H   0  0  0  0  0  0
  -24.8986  -32.3047   26.4609 H   0  0  0  0  0  0
  -25.8017  -30.9081   27.0194 H   0  0  0  0  0  0
  -26.3320  -29.6580   24.1315 H   0  0  0  0  0  0
  -27.4162  -29.7297   25.4996 H   0  0  0  0  0  0
  -27.9215  -30.4205   23.9817 H   0  0  0  0  0  0
  -27.2716  -33.3800   26.1762 H   0  0  0  0  0  0
  -28.4067  -32.6731   25.0358 H   0  0  0  0  0  0
  -28.0645  -31.8666   26.5575 H   0  0  0  0  0  0
  -28.2448  -38.0095   24.7629 H   0  0  0  0  0  0
  -28.1104  -36.2621   24.6098 H   0  0  0  0  0  0
  -27.2296  -37.1112   25.8873 H   0  0  0  0  0  0
  -20.9604  -29.8767   21.6727 H   0  0  0  0  0  0
  -25.9988  -38.2709   24.1621 H   0  0  0  0  0  0
  -29.6640  -17.4996   18.6918 H   0  0  0  0  0  0
  -28.1187  -17.5036   19.5643 H   0  0  0  0  0  0
  -29.4093  -17.5873   22.4469 H   0  0  0  0  0  0
  -31.0932  -17.6176   21.8946 H   0  0  0  0  0  0
  -30.6729  -19.0414   20.0890 H   0  0  0  0  0  0
  -27.4242  -23.9680   22.7699 H   0  0  0  0  0  0
  -28.9324  -23.5598   23.5932 H   0  0  0  0  0  0
  -27.4930  -22.5640   23.8170 H   0  0  0  0  0  0
  -28.9808  -20.8215   24.1887 H   0  0  0  0  0  0
  -29.9398  -19.6231   23.3847 H   0  0  0  0  0  0
  -28.1766  -19.4670   23.4329 H   0  0  0  0  0  0
  -29.4168  -22.2381   17.9554 H   0  0  0  0  0  0
  -28.1638  -20.9969   17.9856 H   0  0  0  0  0  0
  -29.8596  -20.5640   18.2148 H   0  0  0  0  0  0
  -26.8882  -24.1617   19.9264 H   0  0  0  0  0  0
  -28.2502  -24.2900   18.8758 H   0  0  0  0  0  0
  1 25  1  0  0  0
  1 30  2  0  0  0
  1 83  1  0  0  0
  2  3  1  0  0  0
  2 25  1  0  0  0
  2 84  1  0  0  0
  2 85  1  0  0  0
  3  4  1  0  0  0
  3 86  1  0  0  0
  3 87  1  0  0  0
  4  5  1  0  0  0
  4 88  1  0  0  0
  4 89  1  0  0  0
  5  6  1  0  0  0
  5 26  1  0  0  0
  5 90  1  0  0  0
  6 25  1  0  0  0
  6 91  1  0  0  0
  6 92  1  0  0  0
  7  8  2  0  0  0
  7 26  1  0  0  0
  7 29  1  0  0  0
  8  9  1  0  0  0
  8 22  1  0  0  0
  9 10  1  0  0  0
  9 27  2  0  0  0
 10 11  2  0  0  0
 10 15  1  0  0  0
 11 12  1  0  0  0
 11 93  1  0  0  0
 12 13  2  0  0  0
 12 94  1  0  0  0
 13 14  1  0  0  0
 13 31  1  0  0  0
 14 15  2  0  0  0
 14 95  1  0  0  0
 15 96  1  0  0  0
 16 17  2  0  0  0
 16 21  1  0  0  0
 16 31  1  0  0  0
 17 18  1  0  0  0
 17 97  1  0  0  0
 18 19  2  0  0  0
 18 98  1  0  0  0
 19 20  1  0  0  0
 19 24  1  0  0  0
 20 21  2  0  0  0
 20 99  1  0  0  0
 21 23  1  0  0  0
 22 28  1  0  0  0
 22 32  2  0  0  0
 26 27  1  0  0  0
 28100  1  0  0  0
 28101  1  0  0  0
 29102  1  0  0  0
 29103  1  0  0  0
 33 34  1  0  0  0
 33 66  1  0  0  0
 33 70  2  0  0  0
 34 36  1  0  0  0
 34 59  1  0  0  0
 34104  1  0  0  0
 35 44  2  0  0  0
 35 45  1  0  0  0
 35 68  1  0  0  0
 36 56  1  0  0  0
 36105  1  0  0  0
 37 39  1  0  0  0
 37 47  1  0  0  0
 37 66  1  0  0  0
 37106  1  0  0  0
 38 43  2  0  0  0
 38 46  1  0  0  0
 38 47  1  0  0  0
 39 64  1  0  0  0
 39 67  2  0  0  0
 40 52  1  0  0  0
 40 53  2  0  0  0
 40 58  1  0  0  0
 41107  1  0  0  0
 41108  1  0  0  0
 41109  1  0  0  0
 41 48  1  0  0  0
 42 43  1  0  0  0
 42 66  1  0  0  0
 42110  1  0  0  0
 42111  1  0  0  0
 43 44  1  0  0  0
 44112  1  0  0  0
 45 46  2  0  0  0
 45113  1  0  0  0
 46114  1  0  0  0
 47115  1  0  0  0
 47116  1  0  0  0
 48 56  1  0  0  0
 48 65  1  0  0  0
 48117  1  0  0  0
 49 50  1  0  0  0
 49 53  1  0  0  0
 49 64  1  0  0  0
 49118  1  0  0  0
 50 51  1  0  0  0
 50119  1  0  0  0
 50120  1  0  0  0
 51 52  1  0  0  0
 51121  1  0  0  0
 51122  1  0  0  0
 52123  1  0  0  0
 52124  1  0  0  0
 53 54  1  0  0  0
 54 55  2  0  0  0
 54125  1  0  0  0
 55 57  1  0  0  0
 55126  1  0  0  0
 56 69  2  0  0  0
 57 58  2  0  0  0
 57127  1  0  0  0
 58128  1  0  0  0
 59 60  1  0  0  0
 59 61  1  0  0  0
 59 62  1  0  0  0
 60129  1  0  0  0
 60130  1  0  0  0
 60131  1  0  0  0
 61132  1  0  0  0
 61133  1  0  0  0
 61134  1  0  0  0
 62135  1  0  0  0
 62136  1  0  0  0
 62137  1  0  0  0
 63 65  1  0  0  0
 63138  1  0  0  0
 63139  1  0  0  0
 63140  1  0  0  0
 64141  1  0  0  0
 65142  1  0  0  0
 68 81  1  0  0  0
 71 72  1  0  0  0
 71 73  2  0  0  0
 71 78  1  0  0  0
 72 74  2  0  0  0
 72 81  1  0  0  0
 73 79  1  0  0  0
 73 82  1  0  0  0
 74 80  1  0  0  0
 74 82  1  0  0  0
 75 77  1  0  0  0
 75 83  1  0  0  0
 75143  1  0  0  0
 75144  1  0  0  0
 76 77  1  0  0  0
 76 83  1  0  0  0
 76145  1  0  0  0
 76146  1  0  0  0
 77 82  1  0  0  0
 77147  1  0  0  0
 78148  1  0  0  0
 78149  1  0  0  0
 78150  1  0  0  0
 79151  1  0  0  0
 79152  1  0  0  0
 79153  1  0  0  0
 80154  1  0  0  0
 80155  1  0  0  0
 80156  1  0  0  0
 81157  1  0  0  0
 81158  1  0  0  0
M  ISO  4   1 100  68 101  81 101  83 100
M  END
> <chiral flag>
0

> <version>
0

> <s_m_source_file>
/data/baiqing/PycharmProjects/Reinvent-master-3.2/result/LINK_invent/BTK/process_docking_weight1_custom_sum_contain_oxygen_bond_distance_aromatic_linkinvent_7_9_3/rearranged_h_0169.sdf

> <i_m_source_file_index>
28

> <r_mmod_Potential_Energy-OPLS-2005>
1081.70336914062

> <r_mmod_Stretch_Energy-OPLS-2005>
430.555969238281

> <r_mmod_Bend_Energy-OPLS-2005>
391.471527099609

> <r_mmod_Torsional_Energy-OPLS-2005>
311.817169189453

> <r_mmod_Improper_Torsional_Energy-OPLS-2005>
9.83833312988281

> <r_mmod_Van_der_Waal_Energy-OPLS-2005>
101.578140258789

> <r_mmod_Electrostatic_Energy-OPLS-2005>
-337.394561767578

> <r_mmod_Solvation_Energy-OPLS-2005>
-207.93115234375

> <b_mmod_Minimization_Converged-OPLS-2005>
0

> <r_mmod_RMS_Derivative-OPLS-2005>
5.27254056930542

$$$$
28
                    3D
 Structure written by MMmdl.
163172  0  0  1  0            999 V2000
  -30.5825  -14.9407   20.3796 C   0  0  0  0  0  0
  -30.4323  -12.5726   19.5032 C   0  0  0  0  0  0
  -29.5170  -12.4611   18.2631 C   0  0  0  0  0  0
  -28.0458  -12.2920   18.6811 C   0  0  0  0  0  0
  -27.6225  -13.2458   19.8296 C   0  0  2  0  0  0
  -28.6670  -13.3209   20.9572 C   0  0  0  0  0  0
  -25.2457  -13.8220   20.5737 C   0  0  0  0  0  0
  -24.1769  -13.0445   20.9225 C   0  0  0  0  0  0
  -24.6382  -11.6925   20.8776 C   0  0  0  0  0  0
  -23.9071  -10.4294   21.0421 C   0  0  0  0  0  0
  -24.3626   -9.4203   21.9190 C   0  0  0  0  0  0
  -23.6301   -8.2238   22.0750 C   0  0  0  0  0  0
  -22.4282   -8.0282   21.3543 C   0  0  0  0  0  0
  -21.9919   -9.0255   20.4643 C   0  0  0  0  0  0
  -22.7245  -10.2135   20.3058 C   0  0  0  0  0  0
  -21.6851   -6.0739   22.5277 C   0  0  0  0  0  0
  -21.4016   -6.5642   23.8212 C   0  0  0  0  0  0
  -21.3657   -5.6795   24.9174 C   0  0  0  0  0  0
  -21.6044   -4.3059   24.7226 C   0  0  0  0  0  0
  -21.8819   -3.8147   23.4347 C   0  0  0  0  0  0
  -21.9195   -4.6966   22.3401 C   0  0  0  0  0  0
  -22.7789  -13.5215   21.1876 C   0  0  0  0  0  0
  -22.1655   -4.2148   21.0978 F   0  0  0  0  0  0
  -21.5631   -3.4536   25.7738 F   0  0  0  0  0  0
  -29.9429  -13.7029   20.3442 N   0  0  0  0  0  0
  -26.2871  -12.9437   20.3274 N   0  0  0  0  0  0
  -25.9315  -11.6573   20.5786 N   0  0  0  0  0  0
  -22.0439  -12.8205   22.0426 N   0  0  0  0  0  0
  -25.4161  -15.1948   20.4198 N   0  0  0  0  0  0
  -31.8029  -14.9231   20.1950 O   0  0  0  0  0  0
  -21.6643   -6.8878   21.4238 O   0  0  0  0  0  0
  -22.3474  -14.5521   20.6717 O   0  0  0  0  0  0
  -24.6418  -31.8443   23.1885 C   0  0  0  0  0  0
  -25.9200  -32.4690   23.8270 C   0  0  1  0  0  0
  -27.2208  -27.1540   20.1352 C   0  0  0  0  0  0
  -25.5968  -33.8501   24.2200 N   0  0  0  0  0  0
  -23.4450  -30.4627   21.5316 C   0  0  2  0  0  0
  -24.8937  -28.8904   20.1017 C   0  0  0  0  0  0
  -22.7555  -29.4537   22.4835 C   0  0  0  0  0  0
  -18.0312  -28.1393   22.8478 C   0  0  0  0  0  0
  -24.1501  -36.7252   23.2634 C   0  0  0  0  0  0
  -25.9991  -30.7204   21.3868 C   0  0  0  0  0  0
  -26.0669  -29.3347   20.7224 C   0  0  0  0  0  0
  -27.2260  -28.4783   20.7264 C   0  0  0  0  0  0
  -26.0204  -26.7985   19.4830 C   0  0  0  0  0  0
  -24.8808  -27.6350   19.4704 C   0  0  0  0  0  0
  -23.6703  -29.7930   20.1491 C   0  0  0  0  0  0
  -25.4128  -36.3029   24.0317 C   0  0  1  0  0  0
  -20.5920  -28.3714   23.1237 C   0  0  2  0  0  0
  -20.6794  -26.9417   22.5406 C   0  0  0  0  0  0
  -19.5768  -26.6379   21.5215 C   0  0  0  0  0  0
  -18.1948  -26.7935   22.1617 C   0  0  0  0  0  0
  -19.1571  -28.8872   23.2850 C   0  0  0  0  0  0
  -18.9480  -30.1472   23.8874 C   0  0  0  0  0  0
  -17.6473  -30.6590   24.0561 C   0  0  0  0  0  0
  -25.9074  -34.9400   23.5059 C   0  0  0  0  0  0
  -16.5365  -29.9080   23.6338 C   0  0  0  0  0  0
  -16.7295  -28.6502   23.0353 C   0  0  0  0  0  0
  -26.4534  -31.6569   25.0721 C   0  0  0  0  0  0
  -25.3731  -31.3771   26.1431 C   0  0  0  0  0  0
  -27.0401  -30.2956   24.6331 C   0  0  0  0  0  0
  -27.6075  -32.4338   25.7496 C   0  0  0  0  0  0
  -27.5580  -37.1776   24.8458 C   0  0  0  0  0  0
  -21.4250  -29.3043   22.3596 N   0  0  0  0  0  0
  -26.4287  -37.3741   23.9409 N   0  0  0  0  0  0
  -24.7147  -31.0310   22.0903 N   0  0  0  0  0  0
  -23.4204  -28.8085   23.2981 O   0  0  0  0  0  0
  -28.2966  -26.2104   20.2561 O   0  0  0  0  0  0
  -26.5649  -34.8896   22.4633 O   0  0  0  0  0  0
  -23.5546  -32.1304   23.7124 O   0  0  0  0  0  0
  -30.1130  -17.4291   21.3155 C   0  0  0  0  0  0
  -29.9022  -16.4018   20.3319 C   0  0  0  0  0  0
  -29.2582  -16.9841   19.1834 C   0  0  0  0  0  0
  -28.7847  -18.3677   19.1495 C   0  0  0  0  0  0
  -29.0889  -19.3412   20.1738 C   0  0  0  0  0  0
  -29.2708  -22.2331   20.8228 C   0  0  0  0  0  0
  -28.5376  -20.9237   20.2625 C   0  0  1  0  0  0
  -28.2289  -23.2472   20.1602 C   0  0  2  0  0  0
  -28.1148  -22.0187   19.1366 C   0  0  0  0  0  0
  -29.1461  -16.1577   17.9060 C   0  0  0  0  0  0
  -27.8696  -18.7680   18.0040 C   0  0  0  0  0  0
  -26.6978  -21.9232   18.5490 C   0  0  0  0  0  0
  -29.0627  -22.1471   17.9250 C   0  0  0  0  0  0
  -28.4191  -24.8204   19.5926 C   0  0  0  0  0  0
  -29.7405  -18.7779   21.2473 N   0  0  0  0  0  0
  -31.4661  -12.7102   19.1845 H   0  0  0  0  0  0
  -30.4217  -11.6440   20.0754 H   0  0  0  0  0  0
  -29.8241  -11.6132   17.6514 H   0  0  0  0  0  0
  -29.6232  -13.3329   17.6241 H   0  0  0  0  0  0
  -27.9265  -11.2578   19.0072 H   0  0  0  0  0  0
  -27.3865  -12.4144   17.8202 H   0  0  0  0  0  0
  -27.5691  -14.2373   19.3897 H   0  0  0  0  0  0
  -28.7545  -12.3679   21.4812 H   0  0  0  0  0  0
  -28.3733  -14.0635   21.6999 H   0  0  0  0  0  0
  -25.2764   -9.5681   22.4773 H   0  0  0  0  0  0
  -24.0005   -7.4629   22.7477 H   0  0  0  0  0  0
  -21.0843   -8.8777   19.8955 H   0  0  0  0  0  0
  -22.3695  -10.9682   19.6178 H   0  0  0  0  0  0
  -21.2005   -7.6148   23.9713 H   0  0  0  0  0  0
  -21.1477   -6.0524   25.9078 H   0  0  0  0  0  0
  -22.0602   -2.7606   23.2845 H   0  0  0  0  0  0
  -22.4067  -11.9875   22.4818 H   0  0  0  0  0  0
  -21.1055  -13.1225   22.2631 H   0  0  0  0  0  0
  -24.6563  -15.8528   20.5500 H   0  0  0  0  0  0
  -26.2841  -15.6397   20.1488 H   0  0  0  0  0  0
  -26.7262  -32.5295   23.0990 H   0  0  0  0  0  0
  -25.0154  -33.9625   25.0375 H   0  0  0  0  0  0
  -22.7484  -31.2895   21.3778 H   0  0  0  0  0  0
  -23.3780  -35.9566   23.3270 H   0  0  0  0  0  0
  -24.3584  -36.8903   22.2050 H   0  0  0  0  0  0
  -23.7239  -37.6434   23.6688 H   0  0  0  0  0  0
  -26.1611  -31.4820   20.6227 H   0  0  0  0  0  0
  -26.8665  -30.7586   22.0346 H   0  0  0  0  0  0
  -28.1191  -28.8091   21.2361 H   0  0  0  0  0  0
  -25.9230  -25.8284   19.0203 H   0  0  0  0  0  0
  -23.9797  -27.2884   18.9833 H   0  0  0  0  0  0
  -23.8056  -30.5697   19.3954 H   0  0  0  0  0  0
  -22.7854  -29.2363   19.8376 H   0  0  0  0  0  0
  -25.1311  -36.1846   25.0809 H   0  0  0  0  0  0
  -21.0021  -28.3305   24.1351 H   0  0  0  0  0  0
  -20.5687  -26.2323   23.3615 H   0  0  0  0  0  0
  -21.6654  -26.7417   22.1196 H   0  0  0  0  0  0
  -19.6921  -25.6287   21.1251 H   0  0  0  0  0  0
  -19.6713  -27.3185   20.6741 H   0  0  0  0  0  0
  -17.4214  -26.6700   21.4018 H   0  0  0  0  0  0
  -18.0332  -26.0084   22.9016 H   0  0  0  0  0  0
  -19.7952  -30.7309   24.2218 H   0  0  0  0  0  0
  -17.5021  -31.6264   24.5170 H   0  0  0  0  0  0
  -15.5361  -30.2967   23.7682 H   0  0  0  0  0  0
  -15.8693  -28.0815   22.7066 H   0  0  0  0  0  0
  -24.5928  -30.7085   25.7777 H   0  0  0  0  0  0
  -24.8909  -32.2957   26.4786 H   0  0  0  0  0  0
  -25.8027  -30.9010   27.0253 H   0  0  0  0  0  0
  -26.3022  -29.6669   24.1338 H   0  0  0  0  0  0
  -27.3984  -29.7272   25.4925 H   0  0  0  0  0  0
  -27.8945  -30.4174   23.9669 H   0  0  0  0  0  0
  -27.2681  -33.3660   26.2021 H   0  0  0  0  0  0
  -28.3911  -32.6858   25.0341 H   0  0  0  0  0  0
  -28.0724  -31.8504   26.5450 H   0  0  0  0  0  0
  -28.2572  -38.0095   24.7522 H   0  0  0  0  0  0
  -28.1094  -36.2625   24.6258 H   0  0  0  0  0  0
  -27.2298  -37.1386   25.8857 H   0  0  0  0  0  0
  -20.9446  -29.8742   21.6771 H   0  0  0  0  0  0
  -26.0153  -38.2800   24.1434 H   0  0  0  0  0  0
  -30.6570  -17.1716   22.2123 H   0  0  0  0  0  0
  -30.2839  -22.3496   20.4362 H   0  0  0  0  0  0
  -29.2986  -22.2823   21.9121 H   0  0  0  0  0  0
  -27.6546  -20.7927   20.8902 H   0  0  0  0  0  0
  -27.3374  -23.2275   20.7885 H   0  0  0  0  0  0
  -29.9595  -15.4436   17.8221 H   0  0  0  0  0  0
  -29.2417  -16.7853   17.0204 H   0  0  0  0  0  0
  -28.1949  -15.6335   17.8467 H   0  0  0  0  0  0
  -27.3142  -17.9244   17.5961 H   0  0  0  0  0  0
  -28.4208  -19.2270   17.1867 H   0  0  0  0  0  0
  -27.1026  -19.4367   18.3703 H   0  0  0  0  0  0
  -26.0136  -21.4005   19.2176 H   0  0  0  0  0  0
  -26.6697  -21.4125   17.5854 H   0  0  0  0  0  0
  -26.2727  -22.9117   18.3749 H   0  0  0  0  0  0
  -30.0789  -22.4086   18.2168 H   0  0  0  0  0  0
  -28.7336  -22.9274   17.2367 H   0  0  0  0  0  0
  -29.1397  -21.2297   17.3507 H   0  0  0  0  0  0
  -27.8434  -24.8909   18.6709 H   0  0  0  0  0  0
  -29.4413  -24.8578   19.2166 H   0  0  0  0  0  0
  1 25  1  0  0  0
  1 30  2  0  0  0
  1 72  1  0  0  0
  2  3  1  0  0  0
  2 25  1  0  0  0
  2 86  1  0  0  0
  2 87  1  0  0  0
  3  4  1  0  0  0
  3 88  1  0  0  0
  3 89  1  0  0  0
  4  5  1  0  0  0
  4 90  1  0  0  0
  4 91  1  0  0  0
  5  6  1  0  0  0
  5 26  1  0  0  0
  5 92  1  0  0  0
  6 25  1  0  0  0
  6 93  1  0  0  0
  6 94  1  0  0  0
  7  8  2  0  0  0
  7 26  1  0  0  0
  7 29  1  0  0  0
  8  9  1  0  0  0
  8 22  1  0  0  0
  9 10  1  0  0  0
  9 27  2  0  0  0
 10 11  2  0  0  0
 10 15  1  0  0  0
 11 12  1  0  0  0
 11 95  1  0  0  0
 12 13  2  0  0  0
 12 96  1  0  0  0
 13 14  1  0  0  0
 13 31  1  0  0  0
 14 15  2  0  0  0
 14 97  1  0  0  0
 15 98  1  0  0  0
 16 17  2  0  0  0
 16 21  1  0  0  0
 16 31  1  0  0  0
 17 18  1  0  0  0
 17 99  1  0  0  0
 18 19  2  0  0  0
 18100  1  0  0  0
 19 20  1  0  0  0
 19 24  1  0  0  0
 20 21  2  0  0  0
 20101  1  0  0  0
 21 23  1  0  0  0
 22 28  1  0  0  0
 22 32  2  0  0  0
 26 27  1  0  0  0
 28102  1  0  0  0
 28103  1  0  0  0
 29104  1  0  0  0
 29105  1  0  0  0
 33 34  1  0  0  0
 33 66  1  0  0  0
 33 70  2  0  0  0
 34 36  1  0  0  0
 34 59  1  0  0  0
 34106  1  0  0  0
 35 44  2  0  0  0
 35 45  1  0  0  0
 35 68  1  0  0  0
 36 56  1  0  0  0
 36107  1  0  0  0
 37 39  1  0  0  0
 37 47  1  0  0  0
 37 66  1  0  0  0
 37108  1  0  0  0
 38 43  2  0  0  0
 38 46  1  0  0  0
 38 47  1  0  0  0
 39 64  1  0  0  0
 39 67  2  0  0  0
 40 52  1  0  0  0
 40 53  2  0  0  0
 40 58  1  0  0  0
 41109  1  0  0  0
 41110  1  0  0  0
 41111  1  0  0  0
 41 48  1  0  0  0
 42 43  1  0  0  0
 42 66  1  0  0  0
 42112  1  0  0  0
 42113  1  0  0  0
 43 44  1  0  0  0
 44114  1  0  0  0
 45 46  2  0  0  0
 45115  1  0  0  0
 46116  1  0  0  0
 47117  1  0  0  0
 47118  1  0  0  0
 48 56  1  0  0  0
 48 65  1  0  0  0
 48119  1  0  0  0
 49 50  1  0  0  0
 49 53  1  0  0  0
 49 64  1  0  0  0
 49120  1  0  0  0
 50 51  1  0  0  0
 50121  1  0  0  0
 50122  1  0  0  0
 51 52  1  0  0  0
 51123  1  0  0  0
 51124  1  0  0  0
 52125  1  0  0  0
 52126  1  0  0  0
 53 54  1  0  0  0
 54 55  2  0  0  0
 54127  1  0  0  0
 55 57  1  0  0  0
 55128  1  0  0  0
 56 69  2  0  0  0
 57 58  2  0  0  0
 57129  1  0  0  0
 58130  1  0  0  0
 59 60  1  0  0  0
 59 61  1  0  0  0
 59 62  1  0  0  0
 60131  1  0  0  0
 60132  1  0  0  0
 60133  1  0  0  0
 61134  1  0  0  0
 61135  1  0  0  0
 61136  1  0  0  0
 62137  1  0  0  0
 62138  1  0  0  0
 62139  1  0  0  0
 63 65  1  0  0  0
 63140  1  0  0  0
 63141  1  0  0  0
 63142  1  0  0  0
 64143  1  0  0  0
 65144  1  0  0  0
 68 84  1  0  0  0
 71 72  2  0  0  0
 71 85  1  0  0  0
 71145  1  0  0  0
 72 73  1  0  0  0
 73 74  2  0  0  0
 73 80  1  0  0  0
 74 75  1  0  0  0
 74 81  1  0  0  0
 75 85  2  0  0  0
 75 77  1  0  0  0
 76 77  1  0  0  0
 76 78  1  0  0  0
 76146  1  0  0  0
 76147  1  0  0  0
 77 79  1  0  0  0
 77148  1  0  0  0
 78 79  1  0  0  0
 78 84  1  0  0  0
 78149  1  0  0  0
 79 82  1  0  0  0
 79 83  1  0  0  0
 80150  1  0  0  0
 80151  1  0  0  0
 80152  1  0  0  0
 81153  1  0  0  0
 81154  1  0  0  0
 81155  1  0  0  0
 82156  1  0  0  0
 82157  1  0  0  0
 82158  1  0  0  0
 83159  1  0  0  0
 83160  1  0  0  0
 83161  1  0  0  0
 84162  1  0  0  0
 84163  1  0  0  0
M  ISO  4   1 100  68 101  72 100  84 101
M  END
> <chiral flag>
0

> <version>
0

> <s_m_source_file>
/data/baiqing/PycharmProjects/Reinvent-master-3.2/result/LINK_invent/BTK/process_docking_weight1_custom_sum_contain_oxygen_bond_distance_aromatic_linkinvent_7_9_3/rearranged_h_0169.sdf

> <i_m_source_file_index>
29

> <r_mmod_Potential_Energy-OPLS-2005>
521.085510253906

> <r_mmod_Stretch_Energy-OPLS-2005>
232.229919433594

> <r_mmod_Bend_Energy-OPLS-2005>
314.132629394531

> <r_mmod_Torsional_Energy-OPLS-2005>
239.127716064453

> <r_mmod_Improper_Torsional_Energy-OPLS-2005>
9.36317157745361

> <r_mmod_Van_der_Waal_Energy-OPLS-2005>
144.529251098633

> <r_mmod_Electrostatic_Energy-OPLS-2005>
-398.258453369141

> <r_mmod_Solvation_Energy-OPLS-2005>
-205.566040039062

> <b_mmod_Minimization_Converged-OPLS-2005>
0

> <r_mmod_RMS_Derivative-OPLS-2005>
1.93078911304474

$$$$
29
                    3D
 Structure written by MMmdl.
164173  0  0  1  0            999 V2000
  -30.7521  -14.4299   20.5272 C   0  0  0  0  0  0
  -30.3924  -12.2738   19.4069 C   0  0  0  0  0  0
  -29.4716  -12.4924   18.1919 C   0  0  0  0  0  0
  -27.9988  -12.3595   18.6203 C   0  0  0  0  0  0
  -27.6539  -13.2148   19.8688 C   0  0  2  0  0  0
  -28.7004  -13.0256   20.9889 C   0  0  0  0  0  0
  -25.2564  -13.8203   20.5700 C   0  0  0  0  0  0
  -24.1840  -13.0472   20.9201 C   0  0  0  0  0  0
  -24.6417  -11.6935   20.8799 C   0  0  0  0  0  0
  -23.9113  -10.4309   21.0458 C   0  0  0  0  0  0
  -24.3666   -9.4183   21.9203 C   0  0  0  0  0  0
  -23.6325   -8.2226   22.0740 C   0  0  0  0  0  0
  -22.4286   -8.0308   21.3550 C   0  0  0  0  0  0
  -21.9964   -9.0291   20.4638 C   0  0  0  0  0  0
  -22.7314  -10.2151   20.3072 C   0  0  0  0  0  0
  -21.6851   -6.0761   22.5272 C   0  0  0  0  0  0
  -21.4014   -6.5652   23.8213 C   0  0  0  0  0  0
  -21.3667   -5.6794   24.9173 C   0  0  0  0  0  0
  -21.6041   -4.3055   24.7210 C   0  0  0  0  0  0
  -21.8820   -3.8161   23.4325 C   0  0  0  0  0  0
  -21.9188   -4.6990   22.3393 C   0  0  0  0  0  0
  -22.7843  -13.5226   21.1864 C   0  0  0  0  0  0
  -22.1653   -4.2186   21.0971 F   0  0  0  0  0  0
  -21.5641   -3.4532   25.7717 F   0  0  0  0  0  0
  -30.0313  -13.2839   20.4137 N   0  0  0  0  0  0
  -26.3004  -12.9385   20.3389 N   0  0  0  0  0  0
  -25.9339  -11.6536   20.5830 N   0  0  0  0  0  0
  -22.0500  -12.8202   22.0424 N   0  0  0  0  0  0
  -25.4329  -15.1936   20.4054 N   0  0  0  0  0  0
  -31.8939  -14.5458   20.0804 O   0  0  0  0  0  0
  -21.6632   -6.8918   21.4238 O   0  0  0  0  0  0
  -22.3517  -14.5526   20.6708 O   0  0  0  0  0  0
  -24.6133  -31.8698   23.2134 C   0  0  0  0  0  0
  -25.9054  -32.4844   23.8394 C   0  0  1  0  0  0
  -27.2230  -27.4248   20.1049 C   0  0  0  0  0  0
  -25.5921  -33.8637   24.2340 N   0  0  0  0  0  0
  -23.3978  -30.4977   21.5513 C   0  0  2  0  0  0
  -24.8406  -28.9626   20.1184 C   0  0  0  0  0  0
  -22.7379  -29.4693   22.4988 C   0  0  0  0  0  0
  -18.0286  -28.1383   22.8508 C   0  0  0  0  0  0
  -24.1493  -36.7285   23.2633 C   0  0  0  0  0  0
  -25.9283  -30.8338   21.3696 C   0  0  0  0  0  0
  -26.0024  -29.4680   20.7148 C   0  0  0  0  0  0
  -27.1924  -28.7056   20.7066 C   0  0  0  0  0  0
  -26.0412  -26.9412   19.4934 C   0  0  0  0  0  0
  -24.8566  -27.6983   19.5074 C   0  0  0  0  0  0
  -23.6033  -29.8310   20.1668 C   0  0  0  0  0  0
  -25.4112  -36.3106   24.0334 C   0  0  1  0  0  0
  -20.5875  -28.3661   23.1326 C   0  0  2  0  0  0
  -20.6794  -26.9406   22.5419 C   0  0  0  0  0  0
  -19.5774  -26.6391   21.5231 C   0  0  0  0  0  0
  -18.1942  -26.7937   22.1630 C   0  0  0  0  0  0
  -19.1534  -28.8844   23.2918 C   0  0  0  0  0  0
  -18.9476  -30.1452   23.8917 C   0  0  0  0  0  0
  -17.6482  -30.6604   24.0573 C   0  0  0  0  0  0
  -25.9043  -34.9481   23.5119 C   0  0  0  0  0  0
  -16.5368  -29.9096   23.6349 C   0  0  0  0  0  0
  -16.7275  -28.6507   23.0383 C   0  0  0  0  0  0
  -26.4488  -31.6612   25.0708 C   0  0  0  0  0  0
  -25.3761  -31.3718   26.1469 C   0  0  0  0  0  0
  -27.0321  -30.3046   24.6091 C   0  0  0  0  0  0
  -27.6073  -32.4318   25.7486 C   0  0  0  0  0  0
  -27.5577  -37.1796   24.8473 C   0  0  0  0  0  0
  -21.4123  -29.3031   22.3721 N   0  0  0  0  0  0
  -26.4291  -37.3792   23.9417 N   0  0  0  0  0  0
  -24.6642  -31.0827   22.1012 N   0  0  0  0  0  0
  -23.4159  -28.8252   23.3039 O   0  0  0  0  0  0
  -28.4151  -26.7245   20.1090 O   0  0  0  0  0  0
  -26.5595  -34.8934   22.4680 O   0  0  0  0  0  0
  -23.5325  -32.1484   23.7527 O   0  0  0  0  0  0
  -28.1921  -22.1172   20.6884 C   0  0  0  0  0  0
  -28.6768  -20.7886   20.6841 C   0  0  0  0  0  0
  -29.0429  -23.1178   21.1976 C   0  0  0  0  0  0
  -30.3059  -22.7605   21.6380 C   0  0  0  0  0  0
  -29.9793  -20.5273   21.1653 C   0  0  0  0  0  0
  -30.1188  -25.1374   21.9380 C   0  0  0  0  0  0
  -31.1028  -23.9478   22.1111 C   0  0  1  0  0  0
  -28.7675  -24.6066   21.3588 C   0  0  2  0  0  0
  -31.6078  -23.7914   23.5535 C   0  0  0  0  0  0
  -27.6233  -24.8048   22.3751 C   0  0  0  0  0  0
  -28.4399  -25.2864   20.0019 C   0  0  0  0  0  0
  -29.8319  -18.0119   20.9359 C   0  0  0  0  0  0
  -30.7562  -16.8078   21.2019 C   0  0  0  0  0  0
  -30.7967  -21.5021   21.6152 N   0  0  0  0  0  0
  -30.5494  -19.2530   21.2154 N   0  0  0  0  0  0
  -30.1124  -15.5000   21.0220 N   0  0  0  0  0  0
  -31.4397  -12.3218   19.1015 H   0  0  0  0  0  0
  -30.2493  -11.2711   19.8134 H   0  0  0  0  0  0
  -29.6922  -11.7660   17.4094 H   0  0  0  0  0  0
  -29.6482  -13.4760   17.7533 H   0  0  0  0  0  0
  -27.8122  -11.3057   18.8337 H   0  0  0  0  0  0
  -27.3371  -12.6191   17.7934 H   0  0  0  0  0  0
  -27.6908  -14.2578   19.5551 H   0  0  0  0  0  0
  -28.6591  -12.0089   21.3841 H   0  0  0  0  0  0
  -28.4822  -13.6809   21.8335 H   0  0  0  0  0  0
  -25.2828   -9.5605   22.4761 H   0  0  0  0  0  0
  -24.0037   -7.4580   22.7417 H   0  0  0  0  0  0
  -21.0917   -8.8838   19.8904 H   0  0  0  0  0  0
  -22.3845  -10.9705   19.6167 H   0  0  0  0  0  0
  -21.2002   -7.6159   23.9741 H   0  0  0  0  0  0
  -21.1491   -6.0511   25.9085 H   0  0  0  0  0  0
  -22.0595   -2.7625   23.2804 H   0  0  0  0  0  0
  -22.4174  -11.9914   22.4845 H   0  0  0  0  0  0
  -21.1090  -13.1160   22.2589 H   0  0  0  0  0  0
  -24.6739  -15.8586   20.5082 H   0  0  0  0  0  0
  -26.2925  -15.6196   20.0800 H   0  0  0  0  0  0
  -26.7109  -32.5565   23.1143 H   0  0  0  0  0  0
  -25.0132  -33.9808   25.0529 H   0  0  0  0  0  0
  -22.6828  -31.3127   21.4153 H   0  0  0  0  0  0
  -23.3780  -35.9595   23.3299 H   0  0  0  0  0  0
  -24.3578  -36.8898   22.2044 H   0  0  0  0  0  0
  -23.7232  -37.6475   23.6650 H   0  0  0  0  0  0
  -26.0537  -31.6064   20.6084 H   0  0  0  0  0  0
  -26.8082  -30.8745   21.9983 H   0  0  0  0  0  0
  -28.0877  -29.0885   21.1747 H   0  0  0  0  0  0
  -26.0030  -25.9938   18.9812 H   0  0  0  0  0  0
  -23.9639  -27.3024   19.0422 H   0  0  0  0  0  0
  -23.7026  -30.6069   19.4052 H   0  0  0  0  0  0
  -22.7274  -29.2454   19.8826 H   0  0  0  0  0  0
  -25.1304  -36.1939   25.0822 H   0  0  0  0  0  0
  -20.9984  -28.3239   24.1446 H   0  0  0  0  0  0
  -20.5756  -26.2258   23.3587 H   0  0  0  0  0  0
  -21.6659  -26.7496   22.1188 H   0  0  0  0  0  0
  -19.6944  -25.6312   21.1248 H   0  0  0  0  0  0
  -19.6740  -27.3224   20.6784 H   0  0  0  0  0  0
  -17.4223  -26.6726   21.4011 H   0  0  0  0  0  0
  -18.0318  -26.0065   22.9005 H   0  0  0  0  0  0
  -19.7959  -30.7265   24.2279 H   0  0  0  0  0  0
  -17.5053  -31.6305   24.5147 H   0  0  0  0  0  0
  -15.5373  -30.3014   23.7689 H   0  0  0  0  0  0
  -15.8672  -28.0835   22.7103 H   0  0  0  0  0  0
  -24.5941  -30.7051   25.7817 H   0  0  0  0  0  0
  -24.8952  -32.2875   26.4899 H   0  0  0  0  0  0
  -25.8121  -30.8907   27.0237 H   0  0  0  0  0  0
  -26.2869  -29.6796   24.1153 H   0  0  0  0  0  0
  -27.4103  -29.7280   25.4542 H   0  0  0  0  0  0
  -27.8701  -30.4360   23.9244 H   0  0  0  0  0  0
  -27.2697  -33.3610   26.2095 H   0  0  0  0  0  0
  -28.3880  -32.6886   25.0311 H   0  0  0  0  0  0
  -28.0752  -31.8413   26.5374 H   0  0  0  0  0  0
  -28.2617  -38.0073   24.7507 H   0  0  0  0  0  0
  -28.1052  -36.2602   24.6331 H   0  0  0  0  0  0
  -27.2280  -37.1486   25.8872 H   0  0  0  0  0  0
  -20.9248  -29.8652   21.6900 H   0  0  0  0  0  0
  -26.0177  -38.2865   24.1428 H   0  0  0  0  0  0
  -27.2009  -22.3424   20.3242 H   0  0  0  0  0  0
  -28.0419  -19.9943   20.3160 H   0  0  0  0  0  0
  -30.5656  -25.8810   21.2770 H   0  0  0  0  0  0
  -29.9620  -25.6548   22.8856 H   0  0  0  0  0  0
  -31.9554  -24.0739   21.4425 H   0  0  0  0  0  0
  -32.3120  -22.9621   23.6258 H   0  0  0  0  0  0
  -30.7872  -23.5964   24.2446 H   0  0  0  0  0  0
  -32.1262  -24.6892   23.8882 H   0  0  0  0  0  0
  -27.8971  -24.4212   23.3587 H   0  0  0  0  0  0
  -26.7165  -24.2863   22.0664 H   0  0  0  0  0  0
  -27.3691  -25.8569   22.5038 H   0  0  0  0  0  0
  -27.5456  -24.8340   19.5837 H   0  0  0  0  0  0
  -29.2275  -25.0494   19.2848 H   0  0  0  0  0  0
  -28.9374  -17.9474   21.5545 H   0  0  0  0  0  0
  -29.5050  -18.0194   19.8958 H   0  0  0  0  0  0
  -31.1483  -16.8383   22.2206 H   0  0  0  0  0  0
  -31.6235  -16.9110   20.5434 H   0  0  0  0  0  0
  -31.5068  -19.1876   21.5424 H   0  0  0  0  0  0
  -29.1501  -15.3905   21.3055 H   0  0  0  0  0  0
  1 25  1  0  0  0
  1 30  2  0  0  0
  1 86  1  0  0  0
  2  3  1  0  0  0
  2 25  1  0  0  0
  2 87  1  0  0  0
  2 88  1  0  0  0
  3  4  1  0  0  0
  3 89  1  0  0  0
  3 90  1  0  0  0
  4  5  1  0  0  0
  4 91  1  0  0  0
  4 92  1  0  0  0
  5  6  1  0  0  0
  5 26  1  0  0  0
  5 93  1  0  0  0
  6 25  1  0  0  0
  6 94  1  0  0  0
  6 95  1  0  0  0
  7  8  2  0  0  0
  7 26  1  0  0  0
  7 29  1  0  0  0
  8  9  1  0  0  0
  8 22  1  0  0  0
  9 10  1  0  0  0
  9 27  2  0  0  0
 10 11  2  0  0  0
 10 15  1  0  0  0
 11 12  1  0  0  0
 11 96  1  0  0  0
 12 13  2  0  0  0
 12 97  1  0  0  0
 13 14  1  0  0  0
 13 31  1  0  0  0
 14 15  2  0  0  0
 14 98  1  0  0  0
 15 99  1  0  0  0
 16 17  2  0  0  0
 16 21  1  0  0  0
 16 31  1  0  0  0
 17 18  1  0  0  0
 17100  1  0  0  0
 18 19  2  0  0  0
 18101  1  0  0  0
 19 20  1  0  0  0
 19 24  1  0  0  0
 20 21  2  0  0  0
 20102  1  0  0  0
 21 23  1  0  0  0
 22 28  1  0  0  0
 22 32  2  0  0  0
 26 27  1  0  0  0
 28103  1  0  0  0
 28104  1  0  0  0
 29105  1  0  0  0
 29106  1  0  0  0
 33 34  1  0  0  0
 33 66  1  0  0  0
 33 70  2  0  0  0
 34 36  1  0  0  0
 34 59  1  0  0  0
 34107  1  0  0  0
 35 44  2  0  0  0
 35 45  1  0  0  0
 35 68  1  0  0  0
 36 56  1  0  0  0
 36108  1  0  0  0
 37 39  1  0  0  0
 37 47  1  0  0  0
 37 66  1  0  0  0
 37109  1  0  0  0
 38 43  2  0  0  0
 38 46  1  0  0  0
 38 47  1  0  0  0
 39 64  1  0  0  0
 39 67  2  0  0  0
 40 52  1  0  0  0
 40 53  2  0  0  0
 40 58  1  0  0  0
 41110  1  0  0  0
 41111  1  0  0  0
 41112  1  0  0  0
 41 48  1  0  0  0
 42 43  1  0  0  0
 42 66  1  0  0  0
 42113  1  0  0  0
 42114  1  0  0  0
 43 44  1  0  0  0
 44115  1  0  0  0
 45 46  2  0  0  0
 45116  1  0  0  0
 46117  1  0  0  0
 47118  1  0  0  0
 47119  1  0  0  0
 48 56  1  0  0  0
 48 65  1  0  0  0
 48120  1  0  0  0
 49 50  1  0  0  0
 49 53  1  0  0  0
 49 64  1  0  0  0
 49121  1  0  0  0
 50 51  1  0  0  0
 50122  1  0  0  0
 50123  1  0  0  0
 51 52  1  0  0  0
 51124  1  0  0  0
 51125  1  0  0  0
 52126  1  0  0  0
 52127  1  0  0  0
 53 54  1  0  0  0
 54 55  2  0  0  0
 54128  1  0  0  0
 55 57  1  0  0  0
 55129  1  0  0  0
 56 69  2  0  0  0
 57 58  2  0  0  0
 57130  1  0  0  0
 58131  1  0  0  0
 59 60  1  0  0  0
 59 61  1  0  0  0
 59 62  1  0  0  0
 60132  1  0  0  0
 60133  1  0  0  0
 60134  1  0  0  0
 61135  1  0  0  0
 61136  1  0  0  0
 61137  1  0  0  0
 62138  1  0  0  0
 62139  1  0  0  0
 62140  1  0  0  0
 63 65  1  0  0  0
 63141  1  0  0  0
 63142  1  0  0  0
 63143  1  0  0  0
 64144  1  0  0  0
 65145  1  0  0  0
 68 81  1  0  0  0
 71 72  2  0  0  0
 71 73  1  0  0  0
 71146  1  0  0  0
 72 75  1  0  0  0
 72147  1  0  0  0
 73 74  2  0  0  0
 73 78  1  0  0  0
 74 77  1  0  0  0
 74 84  1  0  0  0
 75 84  2  0  0  0
 75 85  1  0  0  0
 76 77  1  0  0  0
 76 78  1  0  0  0
 76148  1  0  0  0
 76149  1  0  0  0
 77 79  1  0  0  0
 77150  1  0  0  0
 78 80  1  0  0  0
 78 81  1  0  0  0
 79151  1  0  0  0
 79152  1  0  0  0
 79153  1  0  0  0
 80154  1  0  0  0
 80155  1  0  0  0
 80156  1  0  0  0
 81157  1  0  0  0
 81158  1  0  0  0
 82 83  1  0  0  0
 82 85  1  0  0  0
 82159  1  0  0  0
 82160  1  0  0  0
 83 86  1  0  0  0
 83161  1  0  0  0
 83162  1  0  0  0
 85163  1  0  0  0
 86164  1  0  0  0
M  ISO  4   1 100  68 101  81 101  86 100
M  END
> <chiral flag>
0

> <version>
0

> <s_m_source_file>
/data/baiqing/PycharmProjects/Reinvent-master-3.2/result/LINK_invent/BTK/process_docking_weight1_custom_sum_contain_oxygen_bond_distance_aromatic_linkinvent_7_9_3/rearranged_h_0169.sdf

> <i_m_source_file_index>
30

> <r_mmod_Potential_Energy-OPLS-2005>
-327.614349365234

> <r_mmod_Stretch_Energy-OPLS-2005>
37.0540504455566

> <r_mmod_Bend_Energy-OPLS-2005>
155.807006835938

> <r_mmod_Torsional_Energy-OPLS-2005>
207.997650146484

> <r_mmod_Improper_Torsional_Energy-OPLS-2005>
3.29362797737122

> <r_mmod_Van_der_Waal_Energy-OPLS-2005>
156.011337280273

> <r_mmod_Electrostatic_Energy-OPLS-2005>
-673.633728027344

> <r_mmod_Solvation_Energy-OPLS-2005>
-229.708145141602

> <b_mmod_Minimization_Converged-OPLS-2005>
0

> <r_mmod_RMS_Derivative-OPLS-2005>
3.67447137832642

$$$$
30
                    3D
 Structure written by MMmdl.
159168  0  0  1  0            999 V2000
  -30.5306  -15.1039   20.3615 C   0  0  0  0  0  0
  -30.4368  -12.6877   19.5084 C   0  0  0  0  0  0
  -29.5237  -12.5352   18.2695 C   0  0  0  0  0  0
  -28.0676  -12.2934   18.7005 C   0  0  0  0  0  0
  -27.6204  -13.2659   19.8220 C   0  0  2  0  0  0
  -28.6652  -13.3963   20.9512 C   0  0  0  0  0  0
  -25.2479  -13.8255   20.5781 C   0  0  0  0  0  0
  -24.1792  -13.0439   20.9247 C   0  0  0  0  0  0
  -24.6457  -11.6933   20.8782 C   0  0  0  0  0  0
  -23.9152  -10.4271   21.0418 C   0  0  0  0  0  0
  -24.3694   -9.4164   21.9177 C   0  0  0  0  0  0
  -23.6338   -8.2218   22.0750 C   0  0  0  0  0  0
  -22.4305   -8.0293   21.3553 C   0  0  0  0  0  0
  -21.9972   -9.0256   20.4651 C   0  0  0  0  0  0
  -22.7328  -10.2122   20.3053 C   0  0  0  0  0  0
  -21.6855   -6.0769   22.5288 C   0  0  0  0  0  0
  -21.4008   -6.5667   23.8229 C   0  0  0  0  0  0
  -21.3655   -5.6817   24.9178 C   0  0  0  0  0  0
  -21.6045   -4.3087   24.7232 C   0  0  0  0  0  0
  -21.8824   -3.8180   23.4343 C   0  0  0  0  0  0
  -21.9183   -4.6995   22.3408 C   0  0  0  0  0  0
  -22.7804  -13.5173   21.1851 C   0  0  0  0  0  0
  -22.1642   -4.2187   21.0976 F   0  0  0  0  0  0
  -21.5629   -3.4557   25.7741 F   0  0  0  0  0  0
  -29.9200  -13.8351   20.3263 N   0  0  0  0  0  0
  -26.2900  -12.9513   20.3274 N   0  0  0  0  0  0
  -25.9404  -11.6628   20.5800 N   0  0  0  0  0  0
  -22.0494  -12.8150   22.0435 N   0  0  0  0  0  0
  -25.4191  -15.1984   20.4279 N   0  0  0  0  0  0
  -31.7489  -15.0903   20.1471 O   0  0  0  0  0  0
  -21.6639   -6.8913   21.4262 O   0  0  0  0  0  0
  -22.3429  -14.5423   20.6642 O   0  0  0  0  0  0
  -24.6541  -31.8324   23.1777 C   0  0  0  0  0  0
  -25.9259  -32.4633   23.8218 C   0  0  1  0  0  0
  -27.2240  -27.0323   20.1552 C   0  0  0  0  0  0
  -25.5968  -33.8445   24.2135 N   0  0  0  0  0  0
  -23.4666  -30.4453   21.5267 C   0  0  2  0  0  0
  -24.9174  -28.8494   20.1169 C   0  0  0  0  0  0
  -22.7625  -29.4467   22.4831 C   0  0  0  0  0  0
  -18.0318  -28.1361   22.8488 C   0  0  0  0  0  0
  -24.1492  -36.7222   23.2647 C   0  0  0  0  0  0
  -26.0286  -30.6699   21.3960 C   0  0  0  0  0  0
  -26.0986  -29.2698   20.7399 C   0  0  0  0  0  0
  -27.2524  -28.3789   20.7404 C   0  0  0  0  0  0
  -26.0112  -26.7396   19.4966 C   0  0  0  0  0  0
  -24.8878  -27.5970   19.4844 C   0  0  0  0  0  0
  -23.7018  -29.7675   20.1513 C   0  0  0  0  0  0
  -25.4126  -36.2998   24.0316 C   0  0  1  0  0  0
  -20.5939  -28.3705   23.1206 C   0  0  2  0  0  0
  -20.6784  -26.9394   22.5399 C   0  0  0  0  0  0
  -19.5752  -26.6354   21.5215 C   0  0  0  0  0  0
  -18.1942  -26.7909   22.1625 C   0  0  0  0  0  0
  -19.1580  -28.8851   23.2840 C   0  0  0  0  0  0
  -18.9495  -30.1452   23.8871 C   0  0  0  0  0  0
  -17.6486  -30.6559   24.0551 C   0  0  0  0  0  0
  -25.9080  -34.9377   23.5036 C   0  0  0  0  0  0
  -16.5380  -29.9053   23.6340 C   0  0  0  0  0  0
  -16.7301  -28.6465   23.0380 C   0  0  0  0  0  0
  -26.4541  -31.6538   25.0704 C   0  0  0  0  0  0
  -25.3706  -31.3780   26.1391 C   0  0  0  0  0  0
  -27.0428  -30.2922   24.6366 C   0  0  0  0  0  0
  -27.6052  -32.4320   25.7502 C   0  0  0  0  0  0
  -27.5583  -37.1752   24.8457 C   0  0  0  0  0  0
  -21.4311  -29.3020   22.3569 N   0  0  0  0  0  0
  -26.4278  -37.3731   23.9423 N   0  0  0  0  0  0
  -24.7372  -31.0055   22.0878 N   0  0  0  0  0  0
  -23.4197  -28.8044   23.3059 O   0  0  0  0  0  0
  -28.2532  -25.9838   20.1483 O   0  0  0  0  0  0
  -26.5682  -34.8907   22.4625 O   0  0  0  0  0  0
  -23.5617  -32.1263   23.6891 O   0  0  0  0  0  0
  -30.3878  -21.8856   18.5246 C   0  0  0  0  0  0
  -29.7234  -23.0548   18.9788 C   0  0  0  0  0  0
  -28.7917  -23.0053   20.0493 C   0  0  0  0  0  0
  -28.6720  -21.5643   20.5529 C   0  0  0  0  0  0
  -29.3784  -20.3432   19.9960 C   0  0  0  0  0  0
  -29.3663  -17.3620   19.4128 C   0  0  0  0  0  0
  -30.3798  -17.6876   21.1025 C   0  0  0  0  0  0
  -29.3422  -18.6647   20.3685 C   0  0  0  0  0  0
  -30.0512  -24.3649   18.2744 C   0  0  0  0  0  0
  -27.8036  -21.3081   21.7728 C   0  0  0  0  0  0
  -27.8814  -24.5545   22.0325 C   0  0  0  0  0  0
  -27.9598  -24.4471   20.5052 C   0  0  1  0  0  0
  -30.2352  -20.6178   18.9904 N   0  0  0  0  0  0
  -29.8257  -16.3772   20.5015 N   0  0  0  0  0  0
  -31.4682  -12.8390   19.1830 H   0  0  0  0  0  0
  -30.4575  -11.7710   20.1009 H   0  0  0  0  0  0
  -29.8653  -11.7116   17.6416 H   0  0  0  0  0  0
  -29.5834  -13.4383   17.6589 H   0  0  0  0  0  0
  -28.0009  -11.2639   19.0559 H   0  0  0  0  0  0
  -27.3988  -12.3654   17.8403 H   0  0  0  0  0  0
  -27.5525  -14.2394   19.3357 H   0  0  0  0  0  0
  -28.7910  -12.4536   21.4839 H   0  0  0  0  0  0
  -28.3478  -14.1363   21.6894 H   0  0  0  0  0  0
  -25.2863   -9.5611   22.4748 H   0  0  0  0  0  0
  -24.0054   -7.4598   22.7456 H   0  0  0  0  0  0
  -21.0910   -8.8770   19.8954 H   0  0  0  0  0  0
  -22.3799  -10.9648   19.6144 H   0  0  0  0  0  0
  -21.1999   -7.6169   23.9763 H   0  0  0  0  0  0
  -21.1472   -6.0526   25.9093 H   0  0  0  0  0  0
  -22.0615   -2.7646   23.2833 H   0  0  0  0  0  0
  -22.4168  -11.9837   22.4811 H   0  0  0  0  0  0
  -21.1087  -13.1097   22.2659 H   0  0  0  0  0  0
  -24.6716  -15.8645   20.5956 H   0  0  0  0  0  0
  -26.2982  -15.6395   20.1875 H   0  0  0  0  0  0
  -26.7332  -32.5228   23.0949 H   0  0  0  0  0  0
  -25.0110  -33.9548   25.0283 H   0  0  0  0  0  0
  -22.7760  -31.2735   21.3610 H   0  0  0  0  0  0
  -23.3776  -35.9526   23.3255 H   0  0  0  0  0  0
  -24.3596  -36.8906   22.2073 H   0  0  0  0  0  0
  -23.7208  -37.6386   23.6718 H   0  0  0  0  0  0
  -26.1935  -31.4148   20.6173 H   0  0  0  0  0  0
  -26.8924  -30.7226   22.0462 H   0  0  0  0  0  0
  -28.1550  -28.6947   21.2442 H   0  0  0  0  0  0
  -25.9072  -25.7935   18.9856 H   0  0  0  0  0  0
  -23.9855  -27.2650   18.9898 H   0  0  0  0  0  0
  -23.8536  -30.5362   19.3916 H   0  0  0  0  0  0
  -22.8150  -29.2147   19.8405 H   0  0  0  0  0  0
  -25.1308  -36.1814   25.0803 H   0  0  0  0  0  0
  -21.0027  -28.3288   24.1330 H   0  0  0  0  0  0
  -20.5643  -26.2327   23.3637 H   0  0  0  0  0  0
  -21.6657  -26.7356   22.1228 H   0  0  0  0  0  0
  -19.6906  -25.6260   21.1270 H   0  0  0  0  0  0
  -19.6692  -27.3159   20.6742 H   0  0  0  0  0  0
  -17.4215  -26.6682   21.4022 H   0  0  0  0  0  0
  -18.0318  -26.0043   22.9004 H   0  0  0  0  0  0
  -19.7963  -30.7292   24.2228 H   0  0  0  0  0  0
  -17.5025  -31.6248   24.5123 H   0  0  0  0  0  0
  -15.5378  -30.2935   23.7655 H   0  0  0  0  0  0
  -15.8708  -28.0760   22.7117 H   0  0  0  0  0  0
  -24.5830  -30.7201   25.7692 H   0  0  0  0  0  0
  -24.8987  -32.2999   26.4798 H   0  0  0  0  0  0
  -25.7959  -30.8927   27.0188 H   0  0  0  0  0  0
  -26.3081  -29.6611   24.1353 H   0  0  0  0  0  0
  -27.3979  -29.7259   25.4985 H   0  0  0  0  0  0
  -27.9012  -30.4134   23.9758 H   0  0  0  0  0  0
  -27.2613  -33.3606   26.2077 H   0  0  0  0  0  0
  -28.3874  -32.6901   25.0350 H   0  0  0  0  0  0
  -28.0720  -31.8462   26.5436 H   0  0  0  0  0  0
  -28.2541  -38.0102   24.7566 H   0  0  0  0  0  0
  -28.1135  -36.2636   24.6192 H   0  0  0  0  0  0
  -27.2327  -37.1288   25.8863 H   0  0  0  0  0  0
  -20.9516  -29.8762   21.6790 H   0  0  0  0  0  0
  -26.0130  -38.2782   24.1474 H   0  0  0  0  0  0
  -31.0899  -21.9719   17.7091 H   0  0  0  0  0  0
  -30.0881  -17.4614   18.5991 H   0  0  0  0  0  0
  -28.3877  -17.1255   18.9935 H   0  0  0  0  0  0
  -31.4141  -17.8883   20.8118 H   0  0  0  0  0  0
  -30.2949  -17.7596   22.1882 H   0  0  0  0  0  0
  -28.4132  -18.5685   20.9256 H   0  0  0  0  0  0
  -30.6218  -24.1941   17.3587 H   0  0  0  0  0  0
  -30.6527  -25.0095   18.9155 H   0  0  0  0  0  0
  -29.1471  -24.8985   17.9814 H   0  0  0  0  0  0
  -28.2466  -21.8045   22.6375 H   0  0  0  0  0  0
  -27.7349  -20.2579   22.0447 H   0  0  0  0  0  0
  -26.7908  -21.6818   21.6209 H   0  0  0  0  0  0
  -27.2924  -23.7549   22.4677 H   0  0  0  0  0  0
  -27.3957  -25.4759   22.3495 H   0  0  0  0  0  0
  -28.8800  -24.5400   22.4660 H   0  0  0  0  0  0
  -26.9414  -24.2614   20.1625 H   0  0  0  0  0  0
  1 25  1  0  0  0
  1 30  2  0  0  0
  1 84  1  0  0  0
  2  3  1  0  0  0
  2 25  1  0  0  0
  2 85  1  0  0  0
  2 86  1  0  0  0
  3  4  1  0  0  0
  3 87  1  0  0  0
  3 88  1  0  0  0
  4  5  1  0  0  0
  4 89  1  0  0  0
  4 90  1  0  0  0
  5  6  1  0  0  0
  5 26  1  0  0  0
  5 91  1  0  0  0
  6 25  1  0  0  0
  6 92  1  0  0  0
  6 93  1  0  0  0
  7  8  2  0  0  0
  7 26  1  0  0  0
  7 29  1  0  0  0
  8  9  1  0  0  0
  8 22  1  0  0  0
  9 10  1  0  0  0
  9 27  2  0  0  0
 10 11  2  0  0  0
 10 15  1  0  0  0
 11 12  1  0  0  0
 11 94  1  0  0  0
 12 13  2  0  0  0
 12 95  1  0  0  0
 13 14  1  0  0  0
 13 31  1  0  0  0
 14 15  2  0  0  0
 14 96  1  0  0  0
 15 97  1  0  0  0
 16 17  2  0  0  0
 16 21  1  0  0  0
 16 31  1  0  0  0
 17 18  1  0  0  0
 17 98  1  0  0  0
 18 19  2  0  0  0
 18 99  1  0  0  0
 19 20  1  0  0  0
 19 24  1  0  0  0
 20 21  2  0  0  0
 20100  1  0  0  0
 21 23  1  0  0  0
 22 28  1  0  0  0
 22 32  2  0  0  0
 26 27  1  0  0  0
 28101  1  0  0  0
 28102  1  0  0  0
 29103  1  0  0  0
 29104  1  0  0  0
 33 34  1  0  0  0
 33 66  1  0  0  0
 33 70  2  0  0  0
 34 36  1  0  0  0
 34 59  1  0  0  0
 34105  1  0  0  0
 35 44  2  0  0  0
 35 45  1  0  0  0
 35 68  1  0  0  0
 36 56  1  0  0  0
 36106  1  0  0  0
 37 39  1  0  0  0
 37 47  1  0  0  0
 37 66  1  0  0  0
 37107  1  0  0  0
 38 43  2  0  0  0
 38 46  1  0  0  0
 38 47  1  0  0  0
 39 64  1  0  0  0
 39 67  2  0  0  0
 40 52  1  0  0  0
 40 53  2  0  0  0
 40 58  1  0  0  0
 41108  1  0  0  0
 41109  1  0  0  0
 41110  1  0  0  0
 41 48  1  0  0  0
 42 43  1  0  0  0
 42 66  1  0  0  0
 42111  1  0  0  0
 42112  1  0  0  0
 43 44  1  0  0  0
 44113  1  0  0  0
 45 46  2  0  0  0
 45114  1  0  0  0
 46115  1  0  0  0
 47116  1  0  0  0
 47117  1  0  0  0
 48 56  1  0  0  0
 48 65  1  0  0  0
 48118  1  0  0  0
 49 50  1  0  0  0
 49 53  1  0  0  0
 49 64  1  0  0  0
 49119  1  0  0  0
 50 51  1  0  0  0
 50120  1  0  0  0
 50121  1  0  0  0
 51 52  1  0  0  0
 51122  1  0  0  0
 51123  1  0  0  0
 52124  1  0  0  0
 52125  1  0  0  0
 53 54  1  0  0  0
 54 55  2  0  0  0
 54126  1  0  0  0
 55 57  1  0  0  0
 55127  1  0  0  0
 56 69  2  0  0  0
 57 58  2  0  0  0
 57128  1  0  0  0
 58129  1  0  0  0
 59 60  1  0  0  0
 59 61  1  0  0  0
 59 62  1  0  0  0
 60130  1  0  0  0
 60131  1  0  0  0
 60132  1  0  0  0
 61133  1  0  0  0
 61134  1  0  0  0
 61135  1  0  0  0
 62136  1  0  0  0
 62137  1  0  0  0
 62138  1  0  0  0
 63 65  1  0  0  0
 63139  1  0  0  0
 63140  1  0  0  0
 63141  1  0  0  0
 64142  1  0  0  0
 65143  1  0  0  0
 68 82  1  0  0  0
 71 72  2  0  0  0
 71 83  1  0  0  0
 71144  1  0  0  0
 72 73  1  0  0  0
 72 79  1  0  0  0
 73 74  2  0  0  0
 73 82  1  0  0  0
 74 75  1  0  0  0
 74 80  1  0  0  0
 75 83  2  0  0  0
 75 78  1  0  0  0
 76 78  1  0  0  0
 76 84  1  0  0  0
 76145  1  0  0  0
 76146  1  0  0  0
 77 78  1  0  0  0
 77 84  1  0  0  0
 77147  1  0  0  0
 77148  1  0  0  0
 78149  1  0  0  0
 79150  1  0  0  0
 79151  1  0  0  0
 79152  1  0  0  0
 80153  1  0  0  0
 80154  1  0  0  0
 80155  1  0  0  0
 81156  1  0  0  0
 81157  1  0  0  0
 81158  1  0  0  0
 81 82  1  0  0  0
 82159  1  0  0  0
M  ISO  4   1 100  68 101  82 101  84 100
M  END
> <chiral flag>
0

> <version>
0

> <s_m_source_file>
/data/baiqing/PycharmProjects/Reinvent-master-3.2/result/LINK_invent/BTK/process_docking_weight1_custom_sum_contain_oxygen_bond_distance_aromatic_linkinvent_7_9_3/rearranged_h_0169.sdf

> <i_m_source_file_index>
31

> <r_mmod_Potential_Energy-OPLS-2005>
754.846313476562

> <r_mmod_Stretch_Energy-OPLS-2005>
390.397583007812

> <r_mmod_Bend_Energy-OPLS-2005>
336.910675048828

> <r_mmod_Torsional_Energy-OPLS-2005>
277.561767578125

> <r_mmod_Improper_Torsional_Energy-OPLS-2005>
9.73186874389648

> <r_mmod_Van_der_Waal_Energy-OPLS-2005>
132.293090820312

> <r_mmod_Electrostatic_Energy-OPLS-2005>
-479.889923095703

> <r_mmod_Solvation_Energy-OPLS-2005>
-219.510498046875

> <b_mmod_Minimization_Converged-OPLS-2005>
0

> <r_mmod_RMS_Derivative-OPLS-2005>
4.05417156219482

$$$$
31
                    3D
 Structure written by MMmdl.
162171  0  0  1  0            999 V2000
  -30.8543  -14.5297   20.5216 C   0  0  0  0  0  0
  -30.5155  -12.3243   19.3978 C   0  0  0  0  0  0
  -29.5780  -12.4453   18.1642 C   0  0  0  0  0  0
  -28.0928  -12.5157   18.5677 C   0  0  0  0  0  0
  -27.9830  -13.5807   19.6643 C   0  0  2  0  0  0
  -28.8436  -13.1362   20.8706 C   0  0  0  0  0  0
  -24.9975  -14.5682   19.6795 C   0  0  0  0  0  0
  -23.8882  -13.7683   20.8061 C   0  0  0  0  0  0
  -24.6399  -12.4636   21.6849 C   0  0  0  0  0  0
  -24.0027  -10.9301   21.4854 C   0  0  0  0  0  0
  -24.4275   -9.7434   22.1840 C   0  0  0  0  0  0
  -23.7503   -8.4665   22.1715 C   0  0  0  0  0  0
  -22.5764   -8.2287   21.4121 C   0  0  0  0  0  0
  -22.2169   -9.3016   20.5613 C   0  0  0  0  0  0
  -22.9162  -10.5665   20.5808 C   0  0  0  0  0  0
  -21.7654   -6.1668   22.5043 C   0  0  0  0  0  0
  -21.4536   -6.6209   23.8079 C   0  0  0  0  0  0
  -21.3781   -5.7177   24.8927 C   0  0  0  0  0  0
  -21.6002   -4.3420   24.6903 C   0  0  0  0  0  0
  -21.8699   -3.8695   23.3952 C   0  0  0  0  0  0
  -21.9423   -4.7701   22.3112 C   0  0  0  0  0  0
  -22.4665  -13.9243   21.0314 C   0  0  0  0  0  0
  -22.1801   -4.2773   21.0720 F   0  0  0  0  0  0
  -21.5494   -3.4780   25.7347 F   0  0  0  0  0  0
  -30.1749  -13.3569   20.4016 N   0  0  0  0  0  0
  -26.7034  -13.7495   20.1422 N   0  0  0  0  0  0
  -26.2782  -12.5936   21.4429 N   0  0  0  0  0  0
  -21.8737  -13.1033   21.9043 N   0  0  0  0  0  0
  -25.0436  -15.7557   19.0760 N   0  0  0  0  0  0
  -31.9709  -14.6538   20.0324 O   0  0  0  0  0  0
  -21.8294   -7.0389   21.4184 O   0  0  0  0  0  0
  -21.8984  -14.8217   20.4588 O   0  0  0  0  0  0
  -24.7200  -31.7448   23.1262 C   0  0  0  0  0  0
  -25.9630  -32.4156   23.7875 C   0  0  1  0  0  0
  -26.7108  -26.0205   20.4701 C   0  0  0  0  0  0
  -25.6033  -33.8032   24.1658 N   0  0  0  0  0  0
  -23.5464  -30.3569   21.4850 C   0  0  2  0  0  0
  -24.9287  -28.5901   20.1077 C   0  0  0  0  0  0
  -22.7839  -29.4069   22.4512 C   0  0  0  0  0  0
  -18.0344  -28.1455   22.8416 C   0  0  0  0  0  0
  -24.1491  -36.7041   23.2657 C   0  0  0  0  0  0
  -26.1241  -30.2321   21.5067 C   0  0  0  0  0  0
  -26.0763  -28.7403   20.8831 C   0  0  0  0  0  0
  -26.9567  -27.4848   21.0251 C   0  0  0  0  0  0
  -25.7021  -26.2627   19.4980 C   0  0  0  0  0  0
  -24.8387  -27.4024   19.3613 C   0  0  0  0  0  0
  -23.8112  -29.6575   20.1134 C   0  0  0  0  0  0
  -25.4160  -36.2734   24.0232 C   0  0  1  0  0  0
  -20.5986  -28.3823   23.1043 C   0  0  2  0  0  0
  -20.6791  -26.9442   22.5405 C   0  0  0  0  0  0
  -19.5776  -26.6352   21.5222 C   0  0  0  0  0  0
  -18.1959  -26.7973   22.1607 C   0  0  0  0  0  0
  -19.1616  -28.8970   23.2709 C   0  0  0  0  0  0
  -18.9525  -30.1542   23.8778 C   0  0  0  0  0  0
  -17.6513  -30.6618   24.0546 C   0  0  0  0  0  0
  -25.9177  -34.9130   23.4824 C   0  0  0  0  0  0
  -16.5397  -29.9090   23.6367 C   0  0  0  0  0  0
  -16.7323  -28.6523   23.0358 C   0  0  0  0  0  0
  -26.4667  -31.6490   25.0748 C   0  0  0  0  0  0
  -25.3580  -31.3994   26.1254 C   0  0  0  0  0  0
  -27.0746  -30.2770   24.7195 C   0  0  0  0  0  0
  -27.6010  -32.4543   25.7521 C   0  0  0  0  0  0
  -27.5565  -37.1661   24.8439 C   0  0  0  0  0  0
  -21.4468  -29.2977   22.3283 N   0  0  0  0  0  0
  -26.4245  -37.3557   23.9417 N   0  0  0  0  0  0
  -24.8315  -30.8347   22.0839 N   0  0  0  0  0  0
  -23.4116  -28.7678   23.2993 O   0  0  0  0  0  0
  -27.1812  -24.4264   20.7848 O   0  0  0  0  0  0
  -26.5908  -34.8794   22.4505 O   0  0  0  0  0  0
  -23.6152  -32.0868   23.5891 O   0  0  0  0  0  0
  -25.7845  -17.1277   21.5740 C   0  0  0  0  0  0
  -26.3232  -20.4072   21.1765 C   0  0  0  0  0  0
  -26.5846  -18.6370   21.0750 C   0  0  0  0  0  0
  -24.6808  -17.8077   22.2195 C   0  0  0  0  0  0
  -25.1189  -20.3432   21.9458 C   0  0  0  0  0  0
  -28.9426  -17.2076   22.4548 C   0  0  0  0  0  0
  -28.9676  -17.7522   21.0510 C   0  0  1  0  0  0
  -29.1117  -16.2446   21.2963 C   0  0  1  0  0  0
  -25.6843  -14.9473   21.7212 C   0  0  0  0  0  0
  -23.5588  -17.0122   22.8617 C   0  0  0  0  0  0
  -24.4335  -21.6343   22.3668 C   0  0  0  0  0  0
  -26.8768  -22.4025   20.5428 C   0  0  0  0  0  0
  -24.4645  -19.1833   22.3539 N   0  3  0  0  0  0
  -27.7834  -18.3372   20.3843 N   0  0  0  0  0  0
  -30.3906  -15.5610   21.2689 N   0  0  0  0  0  0
  -31.5573  -12.3953   19.0830 H   0  0  0  0  0  0
  -30.4209  -11.3319   19.8395 H   0  0  0  0  0  0
  -29.7395  -11.6044   17.4890 H   0  0  0  0  0  0
  -29.8420  -13.3400   17.5994 H   0  0  0  0  0  0
  -27.7497  -11.5444   18.9262 H   0  0  0  0  0  0
  -27.4753  -12.7774   17.7061 H   0  0  0  0  0  0
  -28.2867  -14.5403   19.2407 H   0  0  0  0  0  0
  -28.7170  -12.0785   21.1089 H   0  0  0  0  0  0
  -28.6483  -13.6713   21.8006 H   0  0  0  0  0  0
  -25.2777   -9.8485   22.8448 H   0  0  0  0  0  0
  -24.1373   -7.6789   22.8026 H   0  0  0  0  0  0
  -21.3739   -9.1850   19.8972 H   0  0  0  0  0  0
  -22.5452  -11.3325   19.9152 H   0  0  0  0  0  0
  -21.2783   -7.6730   23.9793 H   0  0  0  0  0  0
  -21.1577   -6.0849   25.8843 H   0  0  0  0  0  0
  -22.0208   -2.8139   23.2279 H   0  0  0  0  0  0
  -22.3724  -12.3566   22.3626 H   0  0  0  0  0  0
  -20.8886  -13.2161   22.0903 H   0  0  0  0  0  0
  -24.2521  -16.3793   18.9831 H   0  0  0  0  0  0
  -25.8915  -16.1161   18.6548 H   0  0  0  0  0  0
  -26.7707  -32.4382   23.0552 H   0  0  0  0  0  0
  -24.9964  -33.8988   24.9661 H   0  0  0  0  0  0
  -22.9013  -31.2160   21.2883 H   0  0  0  0  0  0
  -23.3806  -35.9317   23.3177 H   0  0  0  0  0  0
  -24.3547  -36.8897   22.2108 H   0  0  0  0  0  0
  -23.7192  -37.6128   23.6873 H   0  0  0  0  0  0
  -26.4370  -30.8861   20.6922 H   0  0  0  0  0  0
  -26.9545  -30.2633   22.1983 H   0  0  0  0  0  0
  -27.7675  -27.5766   21.7320 H   0  0  0  0  0  0
  -25.4115  -25.4017   18.9114 H   0  0  0  0  0  0
  -24.0101  -27.3073   18.6714 H   0  0  0  0  0  0
  -24.0798  -30.4117   19.3736 H   0  0  0  0  0  0
  -22.8898  -29.2044   19.7495 H   0  0  0  0  0  0
  -25.1391  -36.1436   25.0718 H   0  0  0  0  0  0
  -21.0064  -28.3518   24.1168 H   0  0  0  0  0  0
  -20.5634  -26.2470   23.3713 H   0  0  0  0  0  0
  -21.6655  -26.7334   22.1245 H   0  0  0  0  0  0
  -19.6921  -25.6228   21.1331 H   0  0  0  0  0  0
  -19.6743  -27.3099   20.6702 H   0  0  0  0  0  0
  -17.4238  -26.6727   21.3992 H   0  0  0  0  0  0
  -18.0316  -26.0155   22.9033 H   0  0  0  0  0  0
  -19.8001  -30.7392   24.2090 H   0  0  0  0  0  0
  -17.5059  -31.6280   24.5193 H   0  0  0  0  0  0
  -15.5391  -30.2956   23.7760 H   0  0  0  0  0  0
  -15.8728  -28.0813   22.7114 H   0  0  0  0  0  0
  -24.5792  -30.7347   25.7503 H   0  0  0  0  0  0
  -24.8746  -32.3281   26.4290 H   0  0  0  0  0  0
  -25.7567  -30.9376   27.0293 H   0  0  0  0  0  0
  -26.3546  -29.6059   24.2510 H   0  0  0  0  0  0
  -27.4174  -29.7645   25.6197 H   0  0  0  0  0  0
  -27.9534  -30.3761   24.0819 H   0  0  0  0  0  0
  -27.2497  -33.3999   26.1668 H   0  0  0  0  0  0
  -28.3968  -32.6886   25.0434 H   0  0  0  0  0  0
  -28.0545  -31.9029   26.5772 H   0  0  0  0  0  0
  -28.2457  -38.0072   24.7595 H   0  0  0  0  0  0
  -28.1186  -36.2600   24.6129 H   0  0  0  0  0  0
  -27.2297  -37.1118   25.8835 H   0  0  0  0  0  0
  -20.9836  -29.8593   21.6276 H   0  0  0  0  0  0
  -26.0036  -38.2577   24.1474 H   0  0  0  0  0  0
  -28.0132  -17.1492   23.0105 H   0  0  0  0  0  0
  -29.8215  -17.4020   23.0696 H   0  0  0  0  0  0
  -29.8653  -18.2697   20.7164 H   0  0  0  0  0  0
  -28.2291  -15.6951   21.0288 H   0  0  0  0  0  0
  -26.6328  -14.8017   22.2538 H   0  0  0  0  0  0
  -25.2046  -12.8072   19.9521 H   0  0  0  0  0  0
  -25.0532  -14.8124   22.6042 H   0  0  0  0  0  0
  -23.8957  -16.4548   23.7342 H   0  0  0  0  0  0
  -23.1340  -16.3186   22.1449 H   0  0  0  0  0  0
  -22.7418  -17.6589   23.1858 H   0  0  0  0  0  0
  -24.2597  -22.2978   21.5179 H   0  0  0  0  0  0
  -25.0369  -22.1764   23.0969 H   0  0  0  0  0  0
  -23.4654  -21.4338   22.8250 H   0  0  0  0  0  0
  -26.4290  -22.4048   19.5491 H   0  0  0  0  0  0
  -27.9243  -22.1702   20.3478 H   0  0  0  0  0  0
  -23.6069  -19.3856   22.8720 H   0  0  0  0  0  0
  -28.0575  -19.1197   19.8002 H   0  0  0  0  0  0
  -31.1519  -16.1696   21.5306 H   0  0  0  0  0  0
  1 25  1  0  0  0
  1 30  2  0  0  0
  1 85  1  0  0  0
  2  3  1  0  0  0
  2 25  1  0  0  0
  2 86  1  0  0  0
  2 87  1  0  0  0
  3  4  1  0  0  0
  3 88  1  0  0  0
  3 89  1  0  0  0
  4  5  1  0  0  0
  4 90  1  0  0  0
  4 91  1  0  0  0
  5  6  1  0  0  0
  5 26  1  0  0  0
  5 92  1  0  0  0
  6 25  1  0  0  0
  6 93  1  0  0  0
  6 94  1  0  0  0
  7  8  2  0  0  0
  7 26  1  0  0  0
  7 29  1  0  0  0
  8  9  1  0  0  0
  8 22  1  0  0  0
  9 10  1  0  0  0
  9 27  2  0  0  0
 10 11  2  0  0  0
 10 15  1  0  0  0
 11 12  1  0  0  0
 11 95  1  0  0  0
 12 13  2  0  0  0
 12 96  1  0  0  0
 13 14  1  0  0  0
 13 31  1  0  0  0
 14 15  2  0  0  0
 14 97  1  0  0  0
 15 98  1  0  0  0
 16 17  2  0  0  0
 16 21  1  0  0  0
 16 31  1  0  0  0
 17 18  1  0  0  0
 17 99  1  0  0  0
 18 19  2  0  0  0
 18100  1  0  0  0
 19 20  1  0  0  0
 19 24  1  0  0  0
 20 21  2  0  0  0
 20101  1  0  0  0
 21 23  1  0  0  0
 22 28  1  0  0  0
 22 32  2  0  0  0
 26 27  1  0  0  0
 28102  1  0  0  0
 28103  1  0  0  0
 29104  1  0  0  0
 29105  1  0  0  0
 33 34  1  0  0  0
 33 66  1  0  0  0
 33 70  2  0  0  0
 34 36  1  0  0  0
 34 59  1  0  0  0
 34106  1  0  0  0
 35 44  2  0  0  0
 35 45  1  0  0  0
 35 68  1  0  0  0
 36 56  1  0  0  0
 36107  1  0  0  0
 37 39  1  0  0  0
 37 47  1  0  0  0
 37 66  1  0  0  0
 37108  1  0  0  0
 38 43  2  0  0  0
 38 46  1  0  0  0
 38 47  1  0  0  0
 39 64  1  0  0  0
 39 67  2  0  0  0
 40 52  1  0  0  0
 40 53  2  0  0  0
 40 58  1  0  0  0
 41109  1  0  0  0
 41110  1  0  0  0
 41111  1  0  0  0
 41 48  1  0  0  0
 42 43  1  0  0  0
 42 66  1  0  0  0
 42112  1  0  0  0
 42113  1  0  0  0
 43 44  1  0  0  0
 44114  1  0  0  0
 45 46  2  0  0  0
 45115  1  0  0  0
 46116  1  0  0  0
 47117  1  0  0  0
 47118  1  0  0  0
 48 56  1  0  0  0
 48 65  1  0  0  0
 48119  1  0  0  0
 49 50  1  0  0  0
 49 53  1  0  0  0
 49 64  1  0  0  0
 49120  1  0  0  0
 50 51  1  0  0  0
 50121  1  0  0  0
 50122  1  0  0  0
 51 52  1  0  0  0
 51123  1  0  0  0
 51124  1  0  0  0
 52125  1  0  0  0
 52126  1  0  0  0
 53 54  1  0  0  0
 54 55  2  0  0  0
 54127  1  0  0  0
 55 57  1  0  0  0
 55128  1  0  0  0
 56 69  2  0  0  0
 57 58  2  0  0  0
 57129  1  0  0  0
 58130  1  0  0  0
 59 60  1  0  0  0
 59 61  1  0  0  0
 59 62  1  0  0  0
 60131  1  0  0  0
 60132  1  0  0  0
 60133  1  0  0  0
 61134  1  0  0  0
 61135  1  0  0  0
 61136  1  0  0  0
 62137  1  0  0  0
 62138  1  0  0  0
 62139  1  0  0  0
 63 65  1  0  0  0
 63140  1  0  0  0
 63141  1  0  0  0
 63142  1  0  0  0
 64143  1  0  0  0
 65144  1  0  0  0
 68 82  1  0  0  0
 71 73  2  0  0  0
 71 74  1  0  0  0
 71 79  1  0  0  0
 72 73  1  0  0  0
 72 75  2  0  0  0
 72 82  1  0  0  0
 73 84  1  0  0  0
 74 80  1  0  0  0
 74 83  2  0  0  0
 75 81  1  0  0  0
 75 83  1  0  0  0
 76 77  1  0  0  0
 76 78  1  0  0  0
 76145  1  0  0  0
 76146  1  0  0  0
 77 78  1  0  0  0
 77 84  1  0  0  0
 77147  1  0  0  0
 78 85  1  0  0  0
 78148  1  0  0  0
 79149  1  0  0  0
 79150  1  0  0  0
 79151  1  0  0  0
 80152  1  0  0  0
 80153  1  0  0  0
 80154  1  0  0  0
 81155  1  0  0  0
 81156  1  0  0  0
 81157  1  0  0  0
 82158  1  0  0  0
 82159  1  0  0  0
 83160  1  0  0  0
 84161  1  0  0  0
 85162  1  0  0  0
M  CHG  1  83   1
M  ISO  4   1 100  68 101  82 101  85 100
M  END
> <chiral flag>
0

> <version>
0

> <s_m_source_file>
/data/baiqing/PycharmProjects/Reinvent-master-3.2/result/LINK_invent/BTK/process_docking_weight1_custom_sum_contain_oxygen_bond_distance_aromatic_linkinvent_7_9_3/rearranged_h_0169.sdf

> <i_m_source_file_index>
32

> <r_mmod_Potential_Energy-OPLS-2005>
14456.0244140625

> <r_mmod_Stretch_Energy-OPLS-2005>
8759.8271484375

> <r_mmod_Bend_Energy-OPLS-2005>
1128.77111816406

> <r_mmod_Torsional_Energy-OPLS-2005>
451.607147216797

> <r_mmod_Improper_Torsional_Energy-OPLS-2005>
40.9216613769531

> <r_mmod_Van_der_Waal_Energy-OPLS-2005>
2282.74682617188

> <r_mmod_Electrostatic_Energy-OPLS-2005>
-291.846984863281

> <r_mmod_Solvation_Energy-OPLS-2005>
-415.884948730469

> <b_mmod_Minimization_Converged-OPLS-2005>
0

> <r_mmod_RMS_Derivative-OPLS-2005>
6.85808849334717

$$$$
32
                    3D
 Structure written by MMmdl.
172182  0  0  1  0            999 V2000
  -29.7778  -15.5836   20.7638 C   0  0  0  0  0  0
  -30.3226  -13.1279   19.7167 C   0  0  0  0  0  0
  -29.5369  -12.7165   18.4291 C   0  0  0  0  0  0
  -28.0997  -12.3020   18.7836 C   0  0  0  0  0  0
  -27.5218  -13.2579   19.8492 C   0  0  2  0  0  0
  -28.4238  -13.4210   21.0722 C   0  0  0  0  0  0
  -25.1571  -13.7840   20.5222 C   0  0  0  0  0  0
  -24.1196  -13.0081   20.9211 C   0  0  0  0  0  0
  -24.6035  -11.6665   20.8854 C   0  0  0  0  0  0
  -23.8873  -10.4066   21.0506 C   0  0  0  0  0  0
  -24.3510   -9.4008   21.9243 C   0  0  0  0  0  0
  -23.6208   -8.2047   22.0760 C   0  0  0  0  0  0
  -22.4191   -8.0124   21.3535 C   0  0  0  0  0  0
  -21.9803   -9.0071   20.4643 C   0  0  0  0  0  0
  -22.7107  -10.1946   20.3090 C   0  0  0  0  0  0
  -21.6781   -6.0647   22.5294 C   0  0  0  0  0  0
  -21.3964   -6.5580   23.8222 C   0  0  0  0  0  0
  -21.3657   -5.6749   24.9199 C   0  0  0  0  0  0
  -21.6047   -4.3013   24.7255 C   0  0  0  0  0  0
  -21.8823   -3.8089   23.4384 C   0  0  0  0  0  0
  -21.9167   -4.6889   22.3428 C   0  0  0  0  0  0
  -22.7298  -13.4898   21.1956 C   0  0  0  0  0  0
  -22.1639   -4.2082   21.1002 F   0  0  0  0  0  0
  -21.5653   -3.4511   25.7777 F   0  0  0  0  0  0
  -29.5422  -14.1658   20.5628 N   0  0  0  0  0  0
  -26.2038  -12.9203   20.2908 N   0  0  0  0  0  0
  -25.8914  -11.6366   20.5742 N   0  0  0  0  0  0
  -22.0061  -12.7969   22.0666 N   0  0  0  0  0  0
  -25.2560  -15.1442   20.2971 N   0  0  0  0  0  0
  -30.9979  -15.7271   20.4529 O   0  0  0  0  0  0
  -21.6548   -6.8750   21.4242 O   0  0  0  0  0  0
  -22.2996  -14.5200   20.6795 O   0  0  0  0  0  0
  -24.7095  -31.9749   23.1770 C   0  0  0  0  0  0
  -25.9816  -32.5176   23.8616 C   0  0  1  0  0  0
  -26.1297  -27.1245   20.9604 C   0  0  0  0  0  0
  -25.6598  -33.8882   24.2650 N   0  0  0  0  0  0
  -23.5753  -30.8514   21.3194 C   0  0  2  0  0  0
  -24.8938  -29.1707   19.9357 C   0  0  0  0  0  0
  -22.8623  -29.8715   22.1661 C   0  0  0  0  0  0
  -18.5732  -27.6292   22.3254 C   0  0  0  0  0  0
  -24.1535  -36.7360   23.2583 C   0  0  0  0  0  0
  -26.0640  -30.8606   21.3774 C   0  0  0  0  0  0
  -25.9671  -29.4697   20.7807 C   0  0  0  0  0  0
  -26.7199  -28.3873   21.2557 C   0  0  0  0  0  0
  -25.7698  -26.9442   19.6219 C   0  0  0  0  0  0
  -24.8472  -27.9325   19.2566 C   0  0  0  0  0  0
  -23.8090  -30.2015   19.9023 C   0  0  0  0  0  0
  -25.4146  -36.3219   24.0329 C   0  0  1  0  0  0
  -21.0221  -28.4083   21.8411 C   0  0  2  0  0  0
  -20.9438  -27.1438   20.9948 C   0  0  0  0  0  0
  -19.7702  -26.1367   21.1208 C   0  0  0  0  0  0
  -18.4077  -26.7340   21.2385 C   0  0  0  0  0  0
  -19.8837  -28.7416   22.4387 C   0  0  0  0  0  0
  -20.1640  -29.5021   23.9405 C   0  0  0  0  0  0
  -19.1463  -29.1457   25.1611 C   0  0  0  0  0  0
  -25.9204  -34.9646   23.5160 C   0  0  0  0  0  0
  -17.9063  -28.1250   24.9678 C   0  0  0  0  0  0
  -17.6166  -27.3704   23.5880 C   0  0  0  0  0  0
  -26.4639  -31.6637   25.0930 C   0  0  0  0  0  0
  -25.3632  -31.3852   26.1426 C   0  0  0  0  0  0
  -27.0251  -30.2989   24.6302 C   0  0  0  0  0  0
  -27.6227  -32.4117   25.7930 C   0  0  0  0  0  0
  -27.5618  -37.1903   24.8458 C   0  0  0  0  0  0
  -21.7341  -29.5407   21.5618 N   0  0  0  0  0  0
  -26.4293  -37.3930   23.9454 N   0  0  0  0  0  0
  -24.8040  -31.2610   22.0176 N   0  0  0  0  0  0
  -23.3023  -29.4335   23.2379 O   0  0  0  0  0  0
  -25.1387  -26.4157   21.7920 O   0  0  0  0  0  0
  -26.5491  -34.9046   22.4562 O   0  0  0  0  0  0
  -23.6159  -32.2551   23.6977 O   0  0  0  0  0  0
  -21.1492  -24.0785   24.1601 C   0  0  0  0  0  0
  -22.2426  -24.6724   23.4989 C   0  0  0  0  0  0
  -21.8661  -26.2663   23.4680 C   0  0  0  0  0  0
  -20.0235  -24.7452   24.7270 C   0  0  0  0  0  0
  -20.1508  -27.1207   23.9983 C   0  0  0  0  0  0
  -23.7984  -21.6541   23.0275 C   0  0  0  0  0  0
  -24.9909  -22.8990   22.1600 C   0  0  0  0  0  0
  -27.2258  -17.0324   21.4539 C   0  0  0  0  0  0
  -28.9191  -18.3878   21.1293 C   0  0  0  0  0  0
  -26.2961  -18.3558   22.2041 C   0  0  0  0  0  0
  -27.9298  -19.7452   21.7575 C   0  0  0  0  0  0
  -23.6520  -23.3846   23.1635 C   0  0  1  0  0  0
  -25.4452  -21.2961   22.6594 C   0  0  2  0  0  0
  -18.9805  -23.8878   25.4102 C   0  0  0  0  0  0
  -18.0099  -29.6305   23.2272 C   0  0  0  0  0  0
  -23.6744  -26.7926   22.8414 C   0  0  0  0  0  0
  -19.6429  -26.0565   24.7153 N   0  0  0  0  0  0
  -28.7757  -16.7844   21.1581 N   0  0  0  0  0  0
  -26.3366  -19.9139   21.8554 N   0  3  0  0  0  0
  -31.2976  -13.5179   19.4255 H   0  0  0  0  0  0
  -30.5450  -12.2473   20.3204 H   0  0  0  0  0  0
  -30.0519  -11.9126   17.9015 H   0  0  0  0  0  0
  -29.5084  -13.5672   17.7477 H   0  0  0  0  0  0
  -28.1232  -11.2896   19.1885 H   0  0  0  0  0  0
  -27.4669  -12.2653   17.8958 H   0  0  0  0  0  0
  -27.4355  -14.2217   19.3448 H   0  0  0  0  0  0
  -28.6984  -12.4705   21.5312 H   0  0  0  0  0  0
  -27.9289  -14.0033   21.8514 H   0  0  0  0  0  0
  -25.2656   -9.5479   22.4822 H   0  0  0  0  0  0
  -23.9906   -7.4402   22.7443 H   0  0  0  0  0  0
  -21.0744   -8.8579   19.8932 H   0  0  0  0  0  0
  -22.3580  -10.9496   19.6205 H   0  0  0  0  0  0
  -21.1933   -7.6085   23.9718 H   0  0  0  0  0  0
  -21.1495   -6.0477   25.9102 H   0  0  0  0  0  0
  -22.0618   -2.7555   23.2906 H   0  0  0  0  0  0
  -22.3756  -11.9716   22.5139 H   0  0  0  0  0  0
  -21.0701  -13.0996   22.2975 H   0  0  0  0  0  0
  -24.4107  -15.7043   20.2709 H   0  0  0  0  0  0
  -26.0584  -15.6056   19.8943 H   0  0  0  0  0  0
  -26.8115  -32.5815   23.1615 H   0  0  0  0  0  0
  -25.1039  -33.9999   25.0989 H   0  0  0  0  0  0
  -22.9436  -31.7348   21.1918 H   0  0  0  0  0  0
  -23.3829  -35.9661   23.3210 H   0  0  0  0  0  0
  -24.3666  -36.9003   22.2009 H   0  0  0  0  0  0
  -23.7238  -37.6535   23.6605 H   0  0  0  0  0  0
  -26.2938  -31.5761   20.5871 H   0  0  0  0  0  0
  -26.9253  -30.8583   22.0320 H   0  0  0  0  0  0
  -27.2912  -28.5369   22.1605 H   0  0  0  0  0  0
  -25.5375  -25.9582   19.2444 H   0  0  0  0  0  0
  -24.0839  -27.7190   18.5195 H   0  0  0  0  0  0
  -24.1289  -30.9813   19.2101 H   0  0  0  0  0  0
  -22.9177  -29.7809   19.4329 H   0  0  0  0  0  0
  -25.1288  -36.2065   25.0811 H   0  0  0  0  0  0
  -21.5884  -28.1897   22.6522 H   0  0  0  0  0  0
  -21.8973  -26.6231   20.9294 H   0  0  0  0  0  0
  -20.8312  -27.5186   19.9777 H   0  0  0  0  0  0
  -19.9274  -25.4462   21.9423 H   0  0  0  0  0  0
  -19.7760  -25.4928   20.2431 H   0  0  0  0  0  0
  -18.1812  -27.3243   20.3488 H   0  0  0  0  0  0
  -17.6140  -26.0000   21.3784 H   0  0  0  0  0  0
  -21.0220  -30.1293   24.1263 H   0  0  0  0  0  0
  -19.3104  -29.5954   26.1309 H   0  0  0  0  0  0
  -17.2828  -27.9044   25.8228 H   0  0  0  0  0  0
  -16.8252  -26.6353   23.5386 H   0  0  0  0  0  0
  -24.5686  -30.7510   25.7473 H   0  0  0  0  0  0
  -24.9025  -32.3076   26.4969 H   0  0  0  0  0  0
  -25.7687  -30.8728   27.0160 H   0  0  0  0  0  0
  -26.2745  -29.7064   24.1054 H   0  0  0  0  0  0
  -27.3561  -29.7002   25.4797 H   0  0  0  0  0  0
  -27.8917  -30.4139   23.9794 H   0  0  0  0  0  0
  -27.2919  -33.3435   26.2539 H   0  0  0  0  0  0
  -28.4199  -32.6602   25.0911 H   0  0  0  0  0  0
  -28.0664  -31.8094   26.5867 H   0  0  0  0  0  0
  -28.2551  -38.0277   24.7613 H   0  0  0  0  0  0
  -28.1201  -36.2821   24.6141 H   0  0  0  0  0  0
  -27.2366  -37.1385   25.8859 H   0  0  0  0  0  0
  -21.4782  -30.0381   20.7216 H   0  0  0  0  0  0
  -26.0157  -38.2981   24.1527 H   0  0  0  0  0  0
  -21.2101  -23.0096   24.3093 H   0  0  0  0  0  0
  -23.1373  -21.2824   22.2390 H   0  0  0  0  0  0
  -23.4856  -21.1590   23.9489 H   0  0  0  0  0  0
  -25.8288  -23.5945   22.2450 H   0  0  0  0  0  0
  -24.6953  -22.9027   21.1068 H   0  0  0  0  0  0
  -26.8264  -17.0006   20.4426 H   0  0  0  0  0  0
  -26.9061  -16.1261   21.9656 H   0  0  0  0  0  0
  -29.9195  -18.5654   21.5262 H   0  0  0  0  0  0
  -29.0393  -18.6007   20.0656 H   0  0  0  0  0  0
  -26.4898  -18.2934   23.2765 H   0  0  0  0  0  0
  -25.2461  -18.0784   22.1143 H   0  0  0  0  0  0
  -28.2870  -20.6478   21.2610 H   0  0  0  0  0  0
  -28.2664  -19.8801   22.7877 H   0  0  0  0  0  0
  -24.1636  -23.5880   24.1050 H   0  0  0  0  0  0
  -25.9811  -21.3941   23.6042 H   0  0  0  0  0  0
  -19.4305  -23.1304   26.0502 H   0  0  0  0  0  0
  -18.3761  -23.3888   24.6524 H   0  0  0  0  0  0
  -18.3068  -24.4913   26.0235 H   0  0  0  0  0  0
  -16.9354  -29.5952   23.4704 H   0  0  0  0  0  0
  -18.1981  -30.6550   23.5829 H   0  0  0  0  0  0
  -17.8721  -29.8851   22.1608 H   0  0  0  0  0  0
  -24.0971  -25.9914   23.4350 H   0  0  0  0  0  0
  -24.0810  -27.4639   23.5805 H   0  0  0  0  0  0
  -26.0195  -19.9579   20.8972 H   0  0  0  0  0  0
  1 25  1  0  0  0
  1 30  2  0  0  0
  1 88  1  0  0  0
  2  3  1  0  0  0
  2 25  1  0  0  0
  2 90  1  0  0  0
  2 91  1  0  0  0
  3  4  1  0  0  0
  3 92  1  0  0  0
  3 93  1  0  0  0
  4  5  1  0  0  0
  4 94  1  0  0  0
  4 95  1  0  0  0
  5  6  1  0  0  0
  5 26  1  0  0  0
  5 96  1  0  0  0
  6 25  1  0  0  0
  6 97  1  0  0  0
  6 98  1  0  0  0
  7  8  2  0  0  0
  7 26  1  0  0  0
  7 29  1  0  0  0
  8  9  1  0  0  0
  8 22  1  0  0  0
  9 10  1  0  0  0
  9 27  2  0  0  0
 10 11  2  0  0  0
 10 15  1  0  0  0
 11 12  1  0  0  0
 11 99  1  0  0  0
 12 13  2  0  0  0
 12100  1  0  0  0
 13 14  1  0  0  0
 13 31  1  0  0  0
 14 15  2  0  0  0
 14101  1  0  0  0
 15102  1  0  0  0
 16 17  2  0  0  0
 16 21  1  0  0  0
 16 31  1  0  0  0
 17 18  1  0  0  0
 17103  1  0  0  0
 18 19  2  0  0  0
 18104  1  0  0  0
 19 20  1  0  0  0
 19 24  1  0  0  0
 20 21  2  0  0  0
 20105  1  0  0  0
 21 23  1  0  0  0
 22 28  1  0  0  0
 22 32  2  0  0  0
 26 27  1  0  0  0
 28106  1  0  0  0
 28107  1  0  0  0
 29108  1  0  0  0
 29109  1  0  0  0
 33 34  1  0  0  0
 33 66  1  0  0  0
 33 70  2  0  0  0
 34 36  1  0  0  0
 34 59  1  0  0  0
 34110  1  0  0  0
 35 44  2  0  0  0
 35 45  1  0  0  0
 35 68  1  0  0  0
 36 56  1  0  0  0
 36111  1  0  0  0
 37 39  1  0  0  0
 37 47  1  0  0  0
 37 66  1  0  0  0
 37112  1  0  0  0
 38 43  2  0  0  0
 38 46  1  0  0  0
 38 47  1  0  0  0
 39 64  1  0  0  0
 39 67  2  0  0  0
 40 52  1  0  0  0
 40 53  2  0  0  0
 40 58  1  0  0  0
 41113  1  0  0  0
 41114  1  0  0  0
 41115  1  0  0  0
 41 48  1  0  0  0
 42 43  1  0  0  0
 42 66  1  0  0  0
 42116  1  0  0  0
 42117  1  0  0  0
 43 44  1  0  0  0
 44118  1  0  0  0
 45 46  2  0  0  0
 45119  1  0  0  0
 46120  1  0  0  0
 47121  1  0  0  0
 47122  1  0  0  0
 48 56  1  0  0  0
 48 65  1  0  0  0
 48123  1  0  0  0
 49 50  1  0  0  0
 49 53  1  0  0  0
 49 64  1  0  0  0
 49124  1  0  0  0
 50 51  1  0  0  0
 50125  1  0  0  0
 50126  1  0  0  0
 51 52  1  0  0  0
 51127  1  0  0  0
 51128  1  0  0  0
 52129  1  0  0  0
 52130  1  0  0  0
 53 54  1  0  0  0
 54 55  2  0  0  0
 54131  1  0  0  0
 55 57  1  0  0  0
 55132  1  0  0  0
 56 69  2  0  0  0
 57 58  2  0  0  0
 57133  1  0  0  0
 58134  1  0  0  0
 59 60  1  0  0  0
 59 61  1  0  0  0
 59 62  1  0  0  0
 60135  1  0  0  0
 60136  1  0  0  0
 60137  1  0  0  0
 61138  1  0  0  0
 61139  1  0  0  0
 61140  1  0  0  0
 62141  1  0  0  0
 62142  1  0  0  0
 62143  1  0  0  0
 63 65  1  0  0  0
 63144  1  0  0  0
 63145  1  0  0  0
 63146  1  0  0  0
 64147  1  0  0  0
 65148  1  0  0  0
 68 86  1  0  0  0
 71 72  2  0  0  0
 71 74  1  0  0  0
 71149  1  0  0  0
 72 73  1  0  0  0
 72 82  1  0  0  0
 73 75  2  0  0  0
 73 86  1  0  0  0
 74 84  1  0  0  0
 74 87  2  0  0  0
 75 85  1  0  0  0
 75 87  1  0  0  0
 76 82  1  0  0  0
 76150  1  0  0  0
 76151  1  0  0  0
 76 83  1  0  0  0
 77 82  1  0  0  0
 77 83  1  0  0  0
 77152  1  0  0  0
 77153  1  0  0  0
 78 80  1  0  0  0
 78 88  1  0  0  0
 78154  1  0  0  0
 78155  1  0  0  0
 79 81  1  0  0  0
 79 88  1  0  0  0
 79156  1  0  0  0
 79157  1  0  0  0
 80158  1  0  0  0
 80159  1  0  0  0
 80 89  1  0  0  0
 81 89  1  0  0  0
 81160  1  0  0  0
 81161  1  0  0  0
 82162  1  0  0  0
 83 89  1  0  0  0
 83163  1  0  0  0
 84164  1  0  0  0
 84165  1  0  0  0
 84166  1  0  0  0
 85167  1  0  0  0
 85168  1  0  0  0
 85169  1  0  0  0
 86170  1  0  0  0
 86171  1  0  0  0
 89172  1  0  0  0
M  CHG  1  89   1
M  ISO  4   1 100  68 101  86 101  88 100
M  END
> <chiral flag>
0

> <version>
0

> <s_m_source_file>
/data/baiqing/PycharmProjects/Reinvent-master-3.2/result/LINK_invent/BTK/process_docking_weight1_custom_sum_contain_oxygen_bond_distance_aromatic_linkinvent_7_9_3/rearranged_h_0169.sdf

> <i_m_source_file_index>
33

> <r_mmod_Potential_Energy-OPLS-2005>
17052.228515625

> <r_mmod_Stretch_Energy-OPLS-2005>
7997.60546875

> <r_mmod_Bend_Energy-OPLS-2005>
1698.36389160156

> <r_mmod_Torsional_Energy-OPLS-2005>
676.795837402344

> <r_mmod_Improper_Torsional_Energy-OPLS-2005>
45.7860336303711

> <r_mmod_Van_der_Waal_Energy-OPLS-2005>
2343.595703125

> <r_mmod_Electrostatic_Energy-OPLS-2005>
-365.204528808594

> <r_mmod_Solvation_Energy-OPLS-2005>
-475.905883789062

> <b_mmod_Minimization_Converged-OPLS-2005>
0

> <r_mmod_RMS_Derivative-OPLS-2005>
8.10510158538818

$$$$
33
                    3D
 Structure written by MMmdl.
158167  0  0  1  0            999 V2000
  -30.4872  -15.1349   20.4498 C   0  0  0  0  0  0
  -30.4066  -12.7506   19.5095 C   0  0  0  0  0  0
  -29.5085  -12.5769   18.2641 C   0  0  0  0  0  0
  -28.0516  -12.3104   18.6790 C   0  0  0  0  0  0
  -27.5926  -13.2560   19.8150 C   0  0  2  0  0  0
  -28.6155  -13.4020   20.9581 C   0  0  0  0  0  0
  -25.2269  -13.8149   20.5765 C   0  0  0  0  0  0
  -24.1643  -13.0404   20.9278 C   0  0  0  0  0  0
  -24.6274  -11.6872   20.8772 C   0  0  0  0  0  0
  -23.9029  -10.4248   21.0413 C   0  0  0  0  0  0
  -24.3618   -9.4184   21.9188 C   0  0  0  0  0  0
  -23.6304   -8.2227   22.0715 C   0  0  0  0  0  0
  -22.4279   -8.0234   21.3507 C   0  0  0  0  0  0
  -21.9913   -9.0217   20.4612 C   0  0  0  0  0  0
  -22.7227  -10.2091   20.3053 C   0  0  0  0  0  0
  -21.6858   -6.0729   22.5302 C   0  0  0  0  0  0
  -21.4019   -6.5636   23.8226 C   0  0  0  0  0  0
  -21.3668   -5.6775   24.9190 C   0  0  0  0  0  0
  -21.6062   -4.3050   24.7228 C   0  0  0  0  0  0
  -21.8814   -3.8137   23.4351 C   0  0  0  0  0  0
  -21.9191   -4.6972   22.3401 C   0  0  0  0  0  0
  -22.7696  -13.5157   21.1940 C   0  0  0  0  0  0
  -22.1655   -4.2160   21.0994 F   0  0  0  0  0  0
  -21.5628   -3.4515   25.7741 F   0  0  0  0  0  0
  -29.8607  -13.8758   20.3429 N   0  0  0  0  0  0
  -26.2667  -12.9410   20.3172 N   0  0  0  0  0  0
  -25.9197  -11.6527   20.5730 N   0  0  0  0  0  0
  -22.0335  -12.8154   22.0483 N   0  0  0  0  0  0
  -25.3892  -15.1902   20.4293 N   0  0  0  0  0  0
  -31.7125  -15.0787   20.2760 O   0  0  0  0  0  0
  -21.6623   -6.8865   21.4244 O   0  0  0  0  0  0
  -22.3433  -14.5509   20.6772 O   0  0  0  0  0  0
  -24.6534  -31.8319   23.1830 C   0  0  0  0  0  0
  -25.9313  -32.4635   23.8254 C   0  0  1  0  0  0
  -27.1951  -26.9965   20.2048 C   0  0  0  0  0  0
  -25.6140  -33.8462   24.2147 N   0  0  0  0  0  0
  -23.4592  -30.4530   21.5251 C   0  0  2  0  0  0
  -24.9186  -28.8640   20.1102 C   0  0  0  0  0  0
  -22.7591  -29.4424   22.4719 C   0  0  0  0  0  0
  -18.0343  -28.1341   22.8468 C   0  0  0  0  0  0
  -24.1460  -36.7056   23.2634 C   0  0  0  0  0  0
  -26.0235  -30.6699   21.4028 C   0  0  0  0  0  0
  -26.0981  -29.2691   20.7455 C   0  0  0  0  0  0
  -27.2339  -28.3496   20.7822 C   0  0  0  0  0  0
  -25.9968  -26.7366   19.5115 C   0  0  0  0  0  0
  -24.8893  -27.6132   19.4772 C   0  0  0  0  0  0
  -23.7011  -29.7895   20.1425 C   0  0  0  0  0  0
  -25.4086  -36.2902   24.0292 C   0  0  1  0  0  0
  -20.5958  -28.3630   23.1173 C   0  0  2  0  0  0
  -20.6764  -26.9320   22.5381 C   0  0  0  0  0  0
  -19.5752  -26.6297   21.5175 C   0  0  0  0  0  0
  -18.1936  -26.7891   22.1597 C   0  0  0  0  0  0
  -19.1611  -28.8821   23.2830 C   0  0  0  0  0  0
  -18.9538  -30.1434   23.8837 C   0  0  0  0  0  0
  -17.6530  -30.6566   24.0522 C   0  0  0  0  0  0
  -25.9090  -34.9339   23.4939 C   0  0  0  0  0  0
  -16.5401  -29.9032   23.6408 C   0  0  0  0  0  0
  -16.7338  -28.6485   23.0369 C   0  0  0  0  0  0
  -26.4585  -31.6601   25.0807 C   0  0  0  0  0  0
  -25.3705  -31.3890   26.1453 C   0  0  0  0  0  0
  -27.0497  -30.2982   24.6586 C   0  0  0  0  0  0
  -27.6110  -32.4398   25.7652 C   0  0  0  0  0  0
  -27.5457  -37.1622   24.8476 C   0  0  0  0  0  0
  -21.4297  -29.2929   22.3481 N   0  0  0  0  0  0
  -26.4162  -37.3663   23.9498 N   0  0  0  0  0  0
  -24.7325  -31.0037   22.0929 N   0  0  0  0  0  0
  -23.4199  -28.7967   23.2909 O   0  0  0  0  0  0
  -28.1933  -25.9246   20.3331 O   0  0  0  0  0  0
  -26.5549  -34.8872   22.4452 O   0  0  0  0  0  0
  -23.5622  -32.1271   23.6918 O   0  0  0  0  0  0
  -26.8117  -21.3738   20.4089 C   0  0  0  0  0  0
  -26.2877  -22.2048   21.5777 C   0  0  0  0  0  0
  -27.5569  -22.8738   22.1056 C   0  0  0  0  0  0
  -30.1810  -19.2346   20.4448 C   0  0  0  0  0  0
  -27.8888  -18.4720   20.4766 C   0  0  0  0  0  0
  -30.5936  -17.7428   21.0406 C   0  0  0  0  0  0
  -28.5461  -17.0059   20.0553 C   0  0  0  0  0  0
  -28.7343  -19.8437   20.7937 C   0  0  0  0  0  0
  -28.4590  -22.8678   20.8557 C   0  0  2  0  0  0
  -28.0095  -24.3482   20.0082 C   0  0  0  0  0  0
  -28.1652  -21.3429   20.3596 N   0  0  0  0  0  0
  -29.8455  -16.4513   20.6359 N   0  0  0  0  0  0
  -26.0293  -20.7719   19.6714 O   0  0  0  0  0  0
  -31.4315  -12.9415   19.1953 H   0  0  0  0  0  0
  -30.4473  -11.8290   20.0843 H   0  0  0  0  0  0
  -29.8780  -11.7700   17.6303 H   0  0  0  0  0  0
  -29.5452  -13.4903   17.6668 H   0  0  0  0  0  0
  -27.9744  -11.2701   18.9920 H   0  0  0  0  0  0
  -27.3942  -12.4164   17.8171 H   0  0  0  0  0  0
  -27.5082  -14.2205   19.3112 H   0  0  0  0  0  0
  -28.7537  -12.4626   21.4882 H   0  0  0  0  0  0
  -28.2603  -14.1235   21.6936 H   0  0  0  0  0  0
  -25.2754   -9.5713   22.4786 H   0  0  0  0  0  0
  -24.0013   -7.4639   22.7442 H   0  0  0  0  0  0
  -21.0826   -8.8749   19.8915 H   0  0  0  0  0  0
  -22.3679  -10.9651   19.6171 H   0  0  0  0  0  0
  -21.2002   -7.6144   23.9758 H   0  0  0  0  0  0
  -21.1497   -6.0488   25.9098 H   0  0  0  0  0  0
  -22.0576   -2.7600   23.2841 H   0  0  0  0  0  0
  -22.3927  -11.9851   22.4951 H   0  0  0  0  0  0
  -21.0927  -13.1182   22.2624 H   0  0  0  0  0  0
  -24.6204  -15.8385   20.5501 H   0  0  0  0  0  0
  -26.2486  -15.6351   20.1491 H   0  0  0  0  0  0
  -26.7389  -32.5188   23.0966 H   0  0  0  0  0  0
  -25.0717  -33.9721   25.0566 H   0  0  0  0  0  0
  -22.7673  -31.2853   21.3656 H   0  0  0  0  0  0
  -23.3795  -35.9310   23.3315 H   0  0  0  0  0  0
  -24.3498  -36.8661   22.2049 H   0  0  0  0  0  0
  -23.7216  -37.6226   23.6687 H   0  0  0  0  0  0
  -26.1839  -31.4268   20.6340 H   0  0  0  0  0  0
  -26.8888  -30.7275   22.0541 H   0  0  0  0  0  0
  -28.1250  -28.6335   21.3233 H   0  0  0  0  0  0
  -25.8437  -25.7856   19.0236 H   0  0  0  0  0  0
  -23.9985  -27.2909   18.9591 H   0  0  0  0  0  0
  -23.8461  -30.5778   19.4003 H   0  0  0  0  0  0
  -22.8112  -29.2511   19.8128 H   0  0  0  0  0  0
  -25.1271  -36.1565   25.0764 H   0  0  0  0  0  0
  -21.0160  -28.3236   24.1240 H   0  0  0  0  0  0
  -20.5561  -26.2247   23.3581 H   0  0  0  0  0  0
  -21.6602  -26.7161   22.1188 H   0  0  0  0  0  0
  -19.6867  -25.6194   21.1236 H   0  0  0  0  0  0
  -19.6743  -27.3083   20.6686 H   0  0  0  0  0  0
  -17.4158  -26.6700   21.4030 H   0  0  0  0  0  0
  -18.0304  -26.0014   22.8989 H   0  0  0  0  0  0
  -19.8031  -30.7279   24.2098 H   0  0  0  0  0  0
  -17.5109  -31.6285   24.5043 H   0  0  0  0  0  0
  -15.5405  -30.2863   23.7824 H   0  0  0  0  0  0
  -15.8747  -28.0807   22.7013 H   0  0  0  0  0  0
  -24.5962  -30.7188   25.7712 H   0  0  0  0  0  0
  -24.8800  -32.3109   26.4630 H   0  0  0  0  0  0
  -25.7867  -30.9212   27.0393 H   0  0  0  0  0  0
  -26.3076  -29.6603   24.1793 H   0  0  0  0  0  0
  -27.4182  -29.7486   25.5242 H   0  0  0  0  0  0
  -27.8947  -30.4143   23.9800 H   0  0  0  0  0  0
  -27.2721  -33.3759   26.2103 H   0  0  0  0  0  0
  -28.4001  -32.6858   25.0557 H   0  0  0  0  0  0
  -28.0703  -31.8643   26.5710 H   0  0  0  0  0  0
  -28.2395  -37.9968   24.7462 H   0  0  0  0  0  0
  -28.0998  -36.2468   24.6296 H   0  0  0  0  0  0
  -27.2182  -37.1195   25.8876 H   0  0  0  0  0  0
  -20.9414  -29.8871   21.6917 H   0  0  0  0  0  0
  -25.9939  -38.2643   24.1746 H   0  0  0  0  0  0
  -25.7900  -21.5783   22.3239 H   0  0  0  0  0  0
  -25.5613  -22.9354   21.2196 H   0  0  0  0  0  0
  -27.9652  -22.2633   22.9167 H   0  0  0  0  0  0
  -27.3810  -23.8688   22.5159 H   0  0  0  0  0  0
  -30.3025  -19.2231   19.3603 H   0  0  0  0  0  0
  -30.9453  -19.9379   20.7950 H   0  0  0  0  0  0
  -27.2096  -18.3080   21.3248 H   0  0  0  0  0  0
  -27.1924  -18.6674   19.6602 H   0  0  0  0  0  0
  -31.6646  -17.6026   20.8490 H   0  0  0  0  0  0
  -30.5384  -17.8106   22.1347 H   0  0  0  0  0  0
  -28.7042  -17.0297   18.9711 H   0  0  0  0  0  0
  -27.7696  -16.2587   20.2174 H   0  0  0  0  0  0
  -28.7347  -19.9132   21.8866 H   0  0  0  0  0  0
  -29.5159  -22.9293   21.1223 H   0  0  0  0  0  0
  -26.9580  -24.2074   19.7927 H   0  0  0  0  0  0
  -28.4590  -24.2375   19.0208 H   0  0  0  0  0  0
  1 25  1  0  0  0
  1 30  2  0  0  0
  1 82  1  0  0  0
  2  3  1  0  0  0
  2 25  1  0  0  0
  2 84  1  0  0  0
  2 85  1  0  0  0
  3  4  1  0  0  0
  3 86  1  0  0  0
  3 87  1  0  0  0
  4  5  1  0  0  0
  4 88  1  0  0  0
  4 89  1  0  0  0
  5  6  1  0  0  0
  5 26  1  0  0  0
  5 90  1  0  0  0
  6 25  1  0  0  0
  6 91  1  0  0  0
  6 92  1  0  0  0
  7  8  2  0  0  0
  7 26  1  0  0  0
  7 29  1  0  0  0
  8  9  1  0  0  0
  8 22  1  0  0  0
  9 10  1  0  0  0
  9 27  2  0  0  0
 10 11  2  0  0  0
 10 15  1  0  0  0
 11 12  1  0  0  0
 11 93  1  0  0  0
 12 13  2  0  0  0
 12 94  1  0  0  0
 13 14  1  0  0  0
 13 31  1  0  0  0
 14 15  2  0  0  0
 14 95  1  0  0  0
 15 96  1  0  0  0
 16 17  2  0  0  0
 16 21  1  0  0  0
 16 31  1  0  0  0
 17 18  1  0  0  0
 17 97  1  0  0  0
 18 19  2  0  0  0
 18 98  1  0  0  0
 19 20  1  0  0  0
 19 24  1  0  0  0
 20 21  2  0  0  0
 20 99  1  0  0  0
 21 23  1  0  0  0
 22 28  1  0  0  0
 22 32  2  0  0  0
 26 27  1  0  0  0
 28100  1  0  0  0
 28101  1  0  0  0
 29102  1  0  0  0
 29103  1  0  0  0
 33 34  1  0  0  0
 33 66  1  0  0  0
 33 70  2  0  0  0
 34 36  1  0  0  0
 34 59  1  0  0  0
 34104  1  0  0  0
 35 44  2  0  0  0
 35 45  1  0  0  0
 35 68  1  0  0  0
 36 56  1  0  0  0
 36105  1  0  0  0
 37 39  1  0  0  0
 37 47  1  0  0  0
 37 66  1  0  0  0
 37106  1  0  0  0
 38 43  2  0  0  0
 38 46  1  0  0  0
 38 47  1  0  0  0
 39 64  1  0  0  0
 39 67  2  0  0  0
 40 52  1  0  0  0
 40 53  2  0  0  0
 40 58  1  0  0  0
 41107  1  0  0  0
 41108  1  0  0  0
 41109  1  0  0  0
 41 48  1  0  0  0
 42 43  1  0  0  0
 42 66  1  0  0  0
 42110  1  0  0  0
 42111  1  0  0  0
 43 44  1  0  0  0
 44112  1  0  0  0
 45 46  2  0  0  0
 45113  1  0  0  0
 46114  1  0  0  0
 47115  1  0  0  0
 47116  1  0  0  0
 48 56  1  0  0  0
 48 65  1  0  0  0
 48117  1  0  0  0
 49 50  1  0  0  0
 49 53  1  0  0  0
 49 64  1  0  0  0
 49118  1  0  0  0
 50 51  1  0  0  0
 50119  1  0  0  0
 50120  1  0  0  0
 51 52  1  0  0  0
 51121  1  0  0  0
 51122  1  0  0  0
 52123  1  0  0  0
 52124  1  0  0  0
 53 54  1  0  0  0
 54 55  2  0  0  0
 54125  1  0  0  0
 55 57  1  0  0  0
 55126  1  0  0  0
 56 69  2  0  0  0
 57 58  2  0  0  0
 57127  1  0  0  0
 58128  1  0  0  0
 59 60  1  0  0  0
 59 61  1  0  0  0
 59 62  1  0  0  0
 60129  1  0  0  0
 60130  1  0  0  0
 60131  1  0  0  0
 61132  1  0  0  0
 61133  1  0  0  0
 61134  1  0  0  0
 62135  1  0  0  0
 62136  1  0  0  0
 62137  1  0  0  0
 63 65  1  0  0  0
 63138  1  0  0  0
 63139  1  0  0  0
 63140  1  0  0  0
 64141  1  0  0  0
 65142  1  0  0  0
 68 80  1  0  0  0
 71 72  1  0  0  0
 71 81  1  0  0  0
 71 83  2  0  0  0
 72 73  1  0  0  0
 72143  1  0  0  0
 72144  1  0  0  0
 73 79  1  0  0  0
 73145  1  0  0  0
 73146  1  0  0  0
 74 76  1  0  0  0
 74 78  1  0  0  0
 74147  1  0  0  0
 74148  1  0  0  0
 75 77  1  0  0  0
 75 78  1  0  0  0
 75149  1  0  0  0
 75150  1  0  0  0
 76 82  1  0  0  0
 76151  1  0  0  0
 76152  1  0  0  0
 77 82  1  0  0  0
 77153  1  0  0  0
 77154  1  0  0  0
 78 81  1  0  0  0
 78155  1  0  0  0
 79 80  1  0  0  0
 79 81  1  0  0  0
 79156  1  0  0  0
 80157  1  0  0  0
 80158  1  0  0  0
M  ISO  4   1 100  68 101  80 101  82 100
M  END
> <chiral flag>
0

> <version>
0

> <s_m_source_file>
/data/baiqing/PycharmProjects/Reinvent-master-3.2/result/LINK_invent/BTK/process_docking_weight1_custom_sum_contain_oxygen_bond_distance_aromatic_linkinvent_7_9_3/rearranged_h_0169.sdf

> <i_m_source_file_index>
34

> <r_mmod_Potential_Energy-OPLS-2005>
1298.87280273438

> <r_mmod_Stretch_Energy-OPLS-2005>
442.287872314453

> <r_mmod_Bend_Energy-OPLS-2005>
476.971893310547

> <r_mmod_Torsional_Energy-OPLS-2005>
401.068756103516

> <r_mmod_Improper_Torsional_Energy-OPLS-2005>
6.63629865646362

> <r_mmod_Van_der_Waal_Energy-OPLS-2005>
120.722114562988

> <r_mmod_Electrostatic_Energy-OPLS-2005>
-277.461212158203

> <r_mmod_Solvation_Energy-OPLS-2005>
-225.494812011719

> <b_mmod_Minimization_Converged-OPLS-2005>
0

> <r_mmod_RMS_Derivative-OPLS-2005>
10.2597808837891

$$$$
34
                    3D
 Structure written by MMmdl.
161170  0  0  1  0            999 V2000
  -30.6719  -14.8011   20.4490 C   0  0  0  0  0  0
  -30.4093  -12.5032   19.4796 C   0  0  0  0  0  0
  -29.4965  -12.5043   18.2373 C   0  0  0  0  0  0
  -28.0295  -12.3101   18.6596 C   0  0  0  0  0  0
  -27.6249  -13.2357   19.8365 C   0  0  2  0  0  0
  -28.6755  -13.2505   20.9718 C   0  0  0  0  0  0
  -25.2427  -13.8187   20.5701 C   0  0  0  0  0  0
  -24.1749  -13.0422   20.9245 C   0  0  0  0  0  0
  -24.6361  -11.6908   20.8784 C   0  0  0  0  0  0
  -23.9051  -10.4284   21.0422 C   0  0  0  0  0  0
  -24.3609   -9.4199   21.9194 C   0  0  0  0  0  0
  -23.6291   -8.2228   22.0752 C   0  0  0  0  0  0
  -22.4274   -8.0265   21.3537 C   0  0  0  0  0  0
  -21.9906   -9.0240   20.4642 C   0  0  0  0  0  0
  -22.7228  -10.2126   20.3061 C   0  0  0  0  0  0
  -21.6850   -6.0729   22.5279 C   0  0  0  0  0  0
  -21.4014   -6.5636   23.8214 C   0  0  0  0  0  0
  -21.3664   -5.6791   24.9179 C   0  0  0  0  0  0
  -21.6047   -4.3053   24.7229 C   0  0  0  0  0  0
  -21.8819   -3.8142   23.4351 C   0  0  0  0  0  0
  -21.9192   -4.6957   22.3407 C   0  0  0  0  0  0
  -22.7775  -13.5205   21.1899 C   0  0  0  0  0  0
  -22.1661   -4.2142   21.0985 F   0  0  0  0  0  0
  -21.5629   -3.4537   25.7741 F   0  0  0  0  0  0
  -29.9599  -13.6142   20.3639 N   0  0  0  0  0  0
  -26.2853  -12.9405   20.3267 N   0  0  0  0  0  0
  -25.9289  -11.6549   20.5786 N   0  0  0  0  0  0
  -22.0420  -12.8202   22.0459 N   0  0  0  0  0  0
  -25.4041  -15.1907   20.4049 N   0  0  0  0  0  0
  -31.8796  -14.7393   20.1952 O   0  0  0  0  0  0
  -21.6634   -6.8866   21.4239 O   0  0  0  0  0  0
  -22.3473  -14.5516   20.6747 O   0  0  0  0  0  0
  -24.6352  -31.8529   23.1970 C   0  0  0  0  0  0
  -25.9163  -32.4742   23.8329 C   0  0  1  0  0  0
  -27.2056  -27.2301   20.1440 C   0  0  0  0  0  0
  -25.5946  -33.8544   24.2248 N   0  0  0  0  0  0
  -23.4338  -30.4767   21.5415 C   0  0  2  0  0  0
  -24.8806  -28.9221   20.1108 C   0  0  0  0  0  0
  -22.7535  -29.4583   22.4895 C   0  0  0  0  0  0
  -18.0297  -28.1386   22.8481 C   0  0  0  0  0  0
  -24.1486  -36.7272   23.2642 C   0  0  0  0  0  0
  -25.9835  -30.7576   21.3823 C   0  0  0  0  0  0
  -26.0559  -29.3782   20.7241 C   0  0  0  0  0  0
  -27.2269  -28.5461   20.7268 C   0  0  0  0  0  0
  -26.0136  -26.8568   19.4900 C   0  0  0  0  0  0
  -24.8662  -27.6704   19.4798 C   0  0  0  0  0  0
  -23.6542  -29.8139   20.1574 C   0  0  0  0  0  0
  -25.4118  -36.3059   24.0321 C   0  0  1  0  0  0
  -20.5906  -28.3693   23.1257 C   0  0  2  0  0  0
  -20.6780  -26.9408   22.5403 C   0  0  0  0  0  0
  -19.5753  -26.6377   21.5210 C   0  0  0  0  0  0
  -18.1936  -26.7926   22.1625 C   0  0  0  0  0  0
  -19.1554  -28.8861   23.2860 C   0  0  0  0  0  0
  -18.9472  -30.1461   23.8878 C   0  0  0  0  0  0
  -17.6469  -30.6585   24.0562 C   0  0  0  0  0  0
  -25.9062  -34.9431   23.5087 C   0  0  0  0  0  0
  -16.5359  -29.9082   23.6335 C   0  0  0  0  0  0
  -16.7283  -28.6502   23.0350 C   0  0  0  0  0  0
  -26.4517  -31.6577   25.0734 C   0  0  0  0  0  0
  -25.3729  -31.3737   26.1445 C   0  0  0  0  0  0
  -27.0371  -30.2990   24.6245 C   0  0  0  0  0  0
  -27.6062  -32.4328   25.7510 C   0  0  0  0  0  0
  -27.5577  -37.1794   24.8468 C   0  0  0  0  0  0
  -21.4235  -29.3033   22.3641 N   0  0  0  0  0  0
  -26.4293  -37.3764   23.9406 N   0  0  0  0  0  0
  -24.7036  -31.0473   22.0961 N   0  0  0  0  0  0
  -23.4222  -28.8117   23.3000 O   0  0  0  0  0  0
  -28.2467  -26.2659   20.1830 O   0  0  0  0  0  0
  -26.5637  -34.8914   22.4657 O   0  0  0  0  0  0
  -23.5489  -32.1361   23.7242 O   0  0  0  0  0  0
  -29.2143  -22.7287   21.4733 C   0  0  0  0  0  0
  -28.4785  -23.4816   20.5114 C   0  0  0  0  0  0
  -28.0693  -22.6818   19.4008 C   0  0  0  0  0  0
  -28.3808  -21.2626   19.3321 C   0  0  0  0  0  0
  -29.0897  -20.5947   20.3862 C   0  0  0  0  0  0
  -30.5189  -18.6677   21.2354 C   0  0  0  0  0  0
  -28.3552  -18.1313   20.4805 C   0  0  0  0  0  0
  -31.0604  -17.2357   20.8409 C   0  0  0  0  0  0
  -28.7621  -16.5880   20.2714 C   0  0  0  0  0  0
  -27.2310  -23.3540   18.3203 C   0  0  0  0  0  0
  -27.9511  -20.4698   18.0989 C   0  0  0  0  0  0
  -27.9071  -24.9547   20.8600 C   0  0  0  0  0  0
  -29.5063  -21.3817   21.4153 N   0  0  0  0  0  0
  -29.4177  -19.1620   20.4007 N   0  0  0  0  0  0
  -30.1114  -16.0823   20.6788 N   0  0  0  0  0  0
  -31.4507  -12.5968   19.1672 H   0  0  0  0  0  0
  -30.3473  -11.5471   20.0020 H   0  0  0  0  0  0
  -29.7953  -11.7151   17.5463 H   0  0  0  0  0  0
  -29.6058  -13.4466   17.6981 H   0  0  0  0  0  0
  -27.9097  -11.2664   18.9537 H   0  0  0  0  0  0
  -27.3644  -12.4640   17.8090 H   0  0  0  0  0  0
  -27.5884  -14.2325   19.4032 H   0  0  0  0  0  0
  -28.7391  -12.2767   21.4588 H   0  0  0  0  0  0
  -28.4023  -13.9622   21.7520 H   0  0  0  0  0  0
  -25.2746   -9.5683   22.4784 H   0  0  0  0  0  0
  -23.9994   -7.4620   22.7476 H   0  0  0  0  0  0
  -21.0833   -8.8756   19.8955 H   0  0  0  0  0  0
  -22.3670  -10.9667   19.6179 H   0  0  0  0  0  0
  -21.2004   -7.6143   23.9717 H   0  0  0  0  0  0
  -21.1491   -6.0522   25.9085 H   0  0  0  0  0  0
  -22.0596   -2.7602   23.2850 H   0  0  0  0  0  0
  -22.4020  -11.9856   22.4850 H   0  0  0  0  0  0
  -21.1039  -13.1229   22.2660 H   0  0  0  0  0  0
  -24.6263  -15.8341   20.5033 H   0  0  0  0  0  0
  -26.2360  -15.6286   20.0358 H   0  0  0  0  0  0
  -26.7229  -32.5383   23.1068 H   0  0  0  0  0  0
  -25.0094  -33.9673   25.0393 H   0  0  0  0  0  0
  -22.7314  -31.3001   21.3955 H   0  0  0  0  0  0
  -23.3753  -35.9601   23.3303 H   0  0  0  0  0  0
  -24.3580  -36.8903   22.2059 H   0  0  0  0  0  0
  -23.7236  -37.6468   23.6669 H   0  0  0  0  0  0
  -26.1285  -31.5167   20.6124 H   0  0  0  0  0  0
  -26.8587  -30.8047   22.0180 H   0  0  0  0  0  0
  -28.1255  -28.8869   21.2214 H   0  0  0  0  0  0
  -25.9497  -25.8941   19.0053 H   0  0  0  0  0  0
  -23.9682  -27.3171   18.9915 H   0  0  0  0  0  0
  -23.7850  -30.5921   19.4042 H   0  0  0  0  0  0
  -22.7716  -29.2515   19.8472 H   0  0  0  0  0  0
  -25.1301  -36.1905   25.0813 H   0  0  0  0  0  0
  -20.9999  -28.3270   24.1375 H   0  0  0  0  0  0
  -20.5673  -26.2307   23.3611 H   0  0  0  0  0  0
  -21.6649  -26.7418   22.1201 H   0  0  0  0  0  0
  -19.6911  -25.6285   21.1246 H   0  0  0  0  0  0
  -19.6690  -27.3185   20.6738 H   0  0  0  0  0  0
  -17.4204  -26.6668   21.4028 H   0  0  0  0  0  0
  -18.0337  -26.0072   22.9025 H   0  0  0  0  0  0
  -19.7948  -30.7284   24.2237 H   0  0  0  0  0  0
  -17.5021  -31.6264   24.5163 H   0  0  0  0  0  0
  -15.5359  -30.2976   23.7663 H   0  0  0  0  0  0
  -15.8684  -28.0817   22.7063 H   0  0  0  0  0  0
  -24.5906  -30.7088   25.7765 H   0  0  0  0  0  0
  -24.8921  -32.2912   26.4847 H   0  0  0  0  0  0
  -25.8036  -30.8927   27.0237 H   0  0  0  0  0  0
  -26.2968  -29.6731   24.1251 H   0  0  0  0  0  0
  -27.4023  -29.7262   25.4777 H   0  0  0  0  0  0
  -27.8858  -30.4256   23.9521 H   0  0  0  0  0  0
  -27.2665  -33.3636   26.2066 H   0  0  0  0  0  0
  -28.3888  -32.6881   25.0352 H   0  0  0  0  0  0
  -28.0715  -31.8474   26.5450 H   0  0  0  0  0  0
  -28.2590  -38.0091   24.7517 H   0  0  0  0  0  0
  -28.1076  -36.2625   24.6295 H   0  0  0  0  0  0
  -27.2299  -37.1448   25.8873 H   0  0  0  0  0  0
  -20.9423  -29.8774   21.6857 H   0  0  0  0  0  0
  -26.0165  -38.2834   24.1412 H   0  0  0  0  0  0
  -29.5326  -23.2124   22.3850 H   0  0  0  0  0  0
  -31.3438  -19.3803   21.1892 H   0  0  0  0  0  0
  -30.1887  -18.6612   22.2752 H   0  0  0  0  0  0
  -27.9209  -18.2249   21.4771 H   0  0  0  0  0  0
  -27.5364  -18.3820   19.8068 H   0  0  0  0  0  0
  -31.8132  -16.9596   21.5823 H   0  0  0  0  0  0
  -31.6012  -17.3408   19.8988 H   0  0  0  0  0  0
  -28.6614  -16.3602   19.2094 H   0  0  0  0  0  0
  -28.0114  -15.9932   20.7855 H   0  0  0  0  0  0
  -26.1789  -23.3472   18.6062 H   0  0  0  0  0  0
  -27.3160  -22.8853   17.3427 H   0  0  0  0  0  0
  -27.5412  -24.3897   18.1838 H   0  0  0  0  0  0
  -28.2961  -20.9539   17.1860 H   0  0  0  0  0  0
  -26.8647  -20.3851   18.0582 H   0  0  0  0  0  0
  -28.3678  -19.4652   18.0638 H   0  0  0  0  0  0
  -28.1530  -25.1249   21.9090 H   0  0  0  0  0  0
  -26.8251  -24.8249   20.8788 H   0  0  0  0  0  0
  1 25  1  0  0  0
  1 30  2  0  0  0
  1 85  1  0  0  0
  2  3  1  0  0  0
  2 25  1  0  0  0
  2 86  1  0  0  0
  2 87  1  0  0  0
  3  4  1  0  0  0
  3 88  1  0  0  0
  3 89  1  0  0  0
  4  5  1  0  0  0
  4 90  1  0  0  0
  4 91  1  0  0  0
  5  6  1  0  0  0
  5 26  1  0  0  0
  5 92  1  0  0  0
  6 25  1  0  0  0
  6 93  1  0  0  0
  6 94  1  0  0  0
  7  8  2  0  0  0
  7 26  1  0  0  0
  7 29  1  0  0  0
  8  9  1  0  0  0
  8 22  1  0  0  0
  9 10  1  0  0  0
  9 27  2  0  0  0
 10 11  2  0  0  0
 10 15  1  0  0  0
 11 12  1  0  0  0
 11 95  1  0  0  0
 12 13  2  0  0  0
 12 96  1  0  0  0
 13 14  1  0  0  0
 13 31  1  0  0  0
 14 15  2  0  0  0
 14 97  1  0  0  0
 15 98  1  0  0  0
 16 17  2  0  0  0
 16 21  1  0  0  0
 16 31  1  0  0  0
 17 18  1  0  0  0
 17 99  1  0  0  0
 18 19  2  0  0  0
 18100  1  0  0  0
 19 20  1  0  0  0
 19 24  1  0  0  0
 20 21  2  0  0  0
 20101  1  0  0  0
 21 23  1  0  0  0
 22 28  1  0  0  0
 22 32  2  0  0  0
 26 27  1  0  0  0
 28102  1  0  0  0
 28103  1  0  0  0
 29104  1  0  0  0
 29105  1  0  0  0
 33 34  1  0  0  0
 33 66  1  0  0  0
 33 70  2  0  0  0
 34 36  1  0  0  0
 34 59  1  0  0  0
 34106  1  0  0  0
 35 44  2  0  0  0
 35 45  1  0  0  0
 35 68  1  0  0  0
 36 56  1  0  0  0
 36107  1  0  0  0
 37 39  1  0  0  0
 37 47  1  0  0  0
 37 66  1  0  0  0
 37108  1  0  0  0
 38 43  2  0  0  0
 38 46  1  0  0  0
 38 47  1  0  0  0
 39 64  1  0  0  0
 39 67  2  0  0  0
 40 52  1  0  0  0
 40 53  2  0  0  0
 40 58  1  0  0  0
 41109  1  0  0  0
 41110  1  0  0  0
 41111  1  0  0  0
 41 48  1  0  0  0
 42 43  1  0  0  0
 42 66  1  0  0  0
 42112  1  0  0  0
 42113  1  0  0  0
 43 44  1  0  0  0
 44114  1  0  0  0
 45 46  2  0  0  0
 45115  1  0  0  0
 46116  1  0  0  0
 47117  1  0  0  0
 47118  1  0  0  0
 48 56  1  0  0  0
 48 65  1  0  0  0
 48119  1  0  0  0
 49 50  1  0  0  0
 49 53  1  0  0  0
 49 64  1  0  0  0
 49120  1  0  0  0
 50 51  1  0  0  0
 50121  1  0  0  0
 50122  1  0  0  0
 51 52  1  0  0  0
 51123  1  0  0  0
 51124  1  0  0  0
 52125  1  0  0  0
 52126  1  0  0  0
 53 54  1  0  0  0
 54 55  2  0  0  0
 54127  1  0  0  0
 55 57  1  0  0  0
 55128  1  0  0  0
 56 69  2  0  0  0
 57 58  2  0  0  0
 57129  1  0  0  0
 58130  1  0  0  0
 59 60  1  0  0  0
 59 61  1  0  0  0
 59 62  1  0  0  0
 60131  1  0  0  0
 60132  1  0  0  0
 60133  1  0  0  0
 61134  1  0  0  0
 61135  1  0  0  0
 61136  1  0  0  0
 62137  1  0  0  0
 62138  1  0  0  0
 62139  1  0  0  0
 63 65  1  0  0  0
 63140  1  0  0  0
 63141  1  0  0  0
 63142  1  0  0  0
 64143  1  0  0  0
 65144  1  0  0  0
 68 82  1  0  0  0
 71 72  2  0  0  0
 71 83  1  0  0  0
 71145  1  0  0  0
 72 73  1  0  0  0
 72 82  1  0  0  0
 73 74  2  0  0  0
 73 80  1  0  0  0
 74 75  1  0  0  0
 74 81  1  0  0  0
 75 83  2  0  0  0
 75 84  1  0  0  0
 76 78  1  0  0  0
 76 84  1  0  0  0
 76146  1  0  0  0
 76147  1  0  0  0
 77 79  1  0  0  0
 77 84  1  0  0  0
 77148  1  0  0  0
 77149  1  0  0  0
 78 85  1  0  0  0
 78150  1  0  0  0
 78151  1  0  0  0
 79 85  1  0  0  0
 79152  1  0  0  0
 79153  1  0  0  0
 80154  1  0  0  0
 80155  1  0  0  0
 80156  1  0  0  0
 81157  1  0  0  0
 81158  1  0  0  0
 81159  1  0  0  0
 82160  1  0  0  0
 82161  1  0  0  0
M  ISO  4   1 100  68 101  82 101  85 100
M  END
> <chiral flag>
0

> <version>
0

> <s_m_source_file>
/data/baiqing/PycharmProjects/Reinvent-master-3.2/result/LINK_invent/BTK/process_docking_weight1_custom_sum_contain_oxygen_bond_distance_aromatic_linkinvent_7_9_3/rearranged_h_0169.sdf

> <i_m_source_file_index>
35

> <r_mmod_Potential_Energy-OPLS-2005>
275.126434326172

> <r_mmod_Stretch_Energy-OPLS-2005>
139.317718505859

> <r_mmod_Bend_Energy-OPLS-2005>
229.842193603516

> <r_mmod_Torsional_Energy-OPLS-2005>
367.36181640625

> <r_mmod_Improper_Torsional_Energy-OPLS-2005>
10.7623634338379

> <r_mmod_Van_der_Waal_Energy-OPLS-2005>
156.699951171875

> <r_mmod_Electrostatic_Energy-OPLS-2005>
-512.225708007812

> <r_mmod_Solvation_Energy-OPLS-2005>
-235.286193847656

> <b_mmod_Minimization_Converged-OPLS-2005>
0

> <r_mmod_RMS_Derivative-OPLS-2005>
0.936574339866638

$$$$
35
                    3D
 Structure written by MMmdl.
168177  0  0  1  0            999 V2000
  -30.6405  -14.5536   20.5680 C   0  0  0  0  0  0
  -30.4359  -12.3518   19.4428 C   0  0  0  0  0  0
  -29.5036  -12.5016   18.2189 C   0  0  0  0  0  0
  -28.0206  -12.3508   18.6226 C   0  0  0  0  0  0
  -27.6506  -13.2040   19.8653 C   0  0  2  0  0  0
  -28.6911  -13.0170   20.9905 C   0  0  0  0  0  0
  -25.2502  -13.8136   20.5647 C   0  0  0  0  0  0
  -24.1767  -13.0419   20.9158 C   0  0  0  0  0  0
  -24.6318  -11.6904   20.8730 C   0  0  0  0  0  0
  -23.8989  -10.4294   21.0394 C   0  0  0  0  0  0
  -24.3558   -9.4214   21.9169 C   0  0  0  0  0  0
  -23.6268   -8.2224   22.0750 C   0  0  0  0  0  0
  -22.4247   -8.0249   21.3537 C   0  0  0  0  0  0
  -21.9860   -9.0200   20.4628 C   0  0  0  0  0  0
  -22.7161  -10.2097   20.3039 C   0  0  0  0  0  0
  -21.6839   -6.0699   22.5278 C   0  0  0  0  0  0
  -21.4012   -6.5614   23.8207 C   0  0  0  0  0  0
  -21.3667   -5.6771   24.9165 C   0  0  0  0  0  0
  -21.6049   -4.3039   24.7216 C   0  0  0  0  0  0
  -21.8828   -3.8120   23.4341 C   0  0  0  0  0  0
  -21.9176   -4.6928   22.3391 C   0  0  0  0  0  0
  -22.7778  -13.5214   21.1819 C   0  0  0  0  0  0
  -22.1654   -4.2111   21.0970 F   0  0  0  0  0  0
  -21.5632   -3.4535   25.7736 F   0  0  0  0  0  0
  -30.0131  -13.3492   20.4376 N   0  0  0  0  0  0
  -26.2922  -12.9292   20.3277 N   0  0  0  0  0  0
  -25.9239  -11.6464   20.5738 N   0  0  0  0  0  0
  -22.0415  -12.8252   22.0416 N   0  0  0  0  0  0
  -25.4200  -15.1870   20.4056 N   0  0  0  0  0  0
  -31.8055  -14.7338   20.1960 O   0  0  0  0  0  0
  -21.6623   -6.8838   21.4241 O   0  0  0  0  0  0
  -22.3458  -14.5468   20.6596 O   0  0  0  0  0  0
  -24.6182  -31.8660   23.2118 C   0  0  0  0  0  0
  -25.9108  -32.4804   23.8395 C   0  0  1  0  0  0
  -27.2318  -27.4252   20.0915 C   0  0  0  0  0  0
  -25.5977  -33.8619   24.2325 N   0  0  0  0  0  0
  -23.4000  -30.4963   21.5529 C   0  0  2  0  0  0
  -24.8405  -28.9566   20.1220 C   0  0  0  0  0  0
  -22.7375  -29.4711   22.5019 C   0  0  0  0  0  0
  -18.0273  -28.1380   22.8520 C   0  0  0  0  0  0
  -24.1489  -36.7289   23.2624 C   0  0  0  0  0  0
  -25.9315  -30.8320   21.3613 C   0  0  0  0  0  0
  -26.0053  -29.4669   20.7051 C   0  0  0  0  0  0
  -27.2001  -28.7114   20.6850 C   0  0  0  0  0  0
  -26.0321  -26.9182   19.5302 C   0  0  0  0  0  0
  -24.8494  -27.6795   19.5356 C   0  0  0  0  0  0
  -23.6056  -29.8276   20.1673 C   0  0  0  0  0  0
  -25.4099  -36.3081   24.0307 C   0  0  1  0  0  0
  -20.5872  -28.3649   23.1361 C   0  0  2  0  0  0
  -20.6811  -26.9399   22.5414 C   0  0  0  0  0  0
  -19.5765  -26.6407   21.5231 C   0  0  0  0  0  0
  -18.1931  -26.7943   22.1635 C   0  0  0  0  0  0
  -19.1523  -28.8829   23.2939 C   0  0  0  0  0  0
  -18.9455  -30.1479   23.8881 C   0  0  0  0  0  0
  -17.6451  -30.6588   24.0596 C   0  0  0  0  0  0
  -25.9033  -34.9469   23.5080 C   0  0  0  0  0  0
  -16.5339  -29.9083   23.6377 C   0  0  0  0  0  0
  -16.7268  -28.6527   23.0342 C   0  0  0  0  0  0
  -26.4550  -31.6570   25.0714 C   0  0  0  0  0  0
  -25.3860  -31.3685   26.1487 C   0  0  0  0  0  0
  -27.0376  -30.2994   24.6117 C   0  0  0  0  0  0
  -27.6070  -32.4330   25.7507 C   0  0  0  0  0  0
  -27.5556  -37.1803   24.8449 C   0  0  0  0  0  0
  -21.4105  -29.3033   22.3760 N   0  0  0  0  0  0
  -26.4275  -37.3759   23.9394 N   0  0  0  0  0  0
  -24.6694  -31.0776   22.1012 N   0  0  0  0  0  0
  -23.4153  -28.8261   23.3058 O   0  0  0  0  0  0
  -28.4343  -26.7381   20.0905 O   0  0  0  0  0  0
  -26.5539  -34.8929   22.4616 O   0  0  0  0  0  0
  -23.5394  -32.1443   23.7523 O   0  0  0  0  0  0
  -30.3746  -19.5321   22.2273 C   0  0  0  0  0  0
  -29.4350  -17.9879   20.6371 C   0  0  0  0  0  0
  -29.6017  -19.3383   21.0624 C   0  0  0  0  0  0
  -30.9467  -18.4222   22.8750 C   0  0  0  0  0  0
  -30.0772  -16.9118   21.3137 C   0  0  0  0  0  0
  -27.2977  -22.2267   19.8811 C   0  0  0  0  0  0
  -29.4959  -21.9567   20.7169 C   0  0  0  0  0  0
  -27.5139  -20.7619   20.3435 C   0  0  2  0  0  0
  -29.0464  -20.5401   20.2380 C   0  0  2  0  0  0
  -31.7548  -18.6165   24.1457 C   0  0  0  0  0  0
  -26.5910  -19.7535   19.6338 C   0  0  0  0  0  0
  -29.5231  -20.3593   18.7732 C   0  0  0  0  0  0
  -28.5441  -24.3070   20.6048 C   0  0  0  0  0  0
  -28.5519  -25.4188   19.5235 C   0  0  0  0  0  0
  -30.8124  -17.1532   22.4249 N   0  0  0  0  0  0
  -29.8015  -15.5771   20.8775 N   0  0  0  0  0  0
  -28.5986  -22.9243   20.0314 N   0  3  2  0  0  0
  -31.4773  -12.4847   19.1451 H   0  0  0  0  0  0
  -30.3742  -11.3469   19.8634 H   0  0  0  0  0  0
  -29.7675  -11.7683   17.4575 H   0  0  0  0  0  0
  -29.6533  -13.4790   17.7594 H   0  0  0  0  0  0
  -27.8429  -11.2963   18.8356 H   0  0  0  0  0  0
  -27.3688  -12.6045   17.7860 H   0  0  0  0  0  0
  -27.6815  -14.2443   19.5428 H   0  0  0  0  0  0
  -28.6816  -11.9870   21.3479 H   0  0  0  0  0  0
  -28.4405  -13.6294   21.8578 H   0  0  0  0  0  0
  -25.2710   -9.5689   22.4734 H   0  0  0  0  0  0
  -23.9962   -7.4618   22.7502 H   0  0  0  0  0  0
  -21.0767   -8.8659   19.8979 H   0  0  0  0  0  0
  -22.3568  -10.9585   19.6134 H   0  0  0  0  0  0
  -21.2025   -7.6133   23.9692 H   0  0  0  0  0  0
  -21.1497   -6.0507   25.9058 H   0  0  0  0  0  0
  -22.0608   -2.7582   23.2830 H   0  0  0  0  0  0
  -22.3979  -11.9914   22.4855 H   0  0  0  0  0  0
  -21.1017  -13.1301   22.2611 H   0  0  0  0  0  0
  -24.6491  -15.8360   20.5211 H   0  0  0  0  0  0
  -26.2498  -15.6340   20.0402 H   0  0  0  0  0  0
  -26.7197  -32.5496   23.1172 H   0  0  0  0  0  0
  -25.0344  -33.9828   25.0614 H   0  0  0  0  0  0
  -22.6885  -31.3138   21.4162 H   0  0  0  0  0  0
  -23.3761  -35.9618   23.3271 H   0  0  0  0  0  0
  -24.3582  -36.8914   22.2045 H   0  0  0  0  0  0
  -23.7279  -37.6495   23.6661 H   0  0  0  0  0  0
  -26.0489  -31.6013   20.5966 H   0  0  0  0  0  0
  -26.8191  -30.8755   21.9823 H   0  0  0  0  0  0
  -28.0992  -29.1173   21.1289 H   0  0  0  0  0  0
  -25.9602  -25.9329   19.0929 H   0  0  0  0  0  0
  -23.9475  -27.2699   19.1019 H   0  0  0  0  0  0
  -23.7258  -30.6071   19.4122 H   0  0  0  0  0  0
  -22.7252  -29.2527   19.8711 H   0  0  0  0  0  0
  -25.1320  -36.1901   25.0799 H   0  0  0  0  0  0
  -20.9970  -28.3231   24.1490 H   0  0  0  0  0  0
  -20.5799  -26.2226   23.3581 H   0  0  0  0  0  0
  -21.6683  -26.7534   22.1150 H   0  0  0  0  0  0
  -19.6920  -25.6326   21.1239 H   0  0  0  0  0  0
  -19.6735  -27.3278   20.6810 H   0  0  0  0  0  0
  -17.4240  -26.6763   21.4002 H   0  0  0  0  0  0
  -18.0278  -26.0051   22.8989 H   0  0  0  0  0  0
  -19.7915  -30.7351   24.2174 H   0  0  0  0  0  0
  -17.4984  -31.6258   24.5210 H   0  0  0  0  0  0
  -15.5336  -30.2962   23.7695 H   0  0  0  0  0  0
  -15.8682  -28.0869   22.6973 H   0  0  0  0  0  0
  -24.6006  -30.7044   25.7880 H   0  0  0  0  0  0
  -24.9150  -32.2872   26.4978 H   0  0  0  0  0  0
  -25.8290  -30.8851   27.0201 H   0  0  0  0  0  0
  -26.2925  -29.6727   24.1212 H   0  0  0  0  0  0
  -27.4150  -29.7253   25.4588 H   0  0  0  0  0  0
  -27.8759  -30.4250   23.9263 H   0  0  0  0  0  0
  -27.2598  -33.3599   26.2071 H   0  0  0  0  0  0
  -28.3915  -32.6925   25.0395 H   0  0  0  0  0  0
  -28.0708  -31.8490   26.5463 H   0  0  0  0  0  0
  -28.2573  -38.0100   24.7501 H   0  0  0  0  0  0
  -28.1062  -36.2640   24.6290 H   0  0  0  0  0  0
  -27.2260  -37.1446   25.8844 H   0  0  0  0  0  0
  -20.9195  -29.8729   21.7015 H   0  0  0  0  0  0
  -26.0135  -38.2813   24.1437 H   0  0  0  0  0  0
  -30.5565  -20.5129   22.6384 H   0  0  0  0  0  0
  -28.8335  -17.7749   19.7645 H   0  0  0  0  0  0
  -26.4970  -22.6932   20.4552 H   0  0  0  0  0  0
  -27.0036  -22.2748   18.8316 H   0  0  0  0  0  0
  -30.5511  -22.1609   20.5230 H   0  0  0  0  0  0
  -29.3269  -22.0750   21.7888 H   0  0  0  0  0  0
  -27.2560  -20.7284   21.4043 H   0  0  0  0  0  0
  -32.1801  -19.6189   24.1934 H   0  0  0  0  0  0
  -32.5758  -17.9024   24.2159 H   0  0  0  0  0  0
  -31.1175  -18.4939   25.0203 H   0  0  0  0  0  0
  -26.7750  -19.6984   18.5600 H   0  0  0  0  0  0
  -25.5452  -20.0353   19.7688 H   0  0  0  0  0  0
  -26.7046  -18.7524   20.0525 H   0  0  0  0  0  0
  -30.6032  -20.2144   18.7456 H   0  0  0  0  0  0
  -29.3034  -21.2153   18.1363 H   0  0  0  0  0  0
  -29.0728  -19.4923   18.2965 H   0  0  0  0  0  0
  -27.6795  -24.4202   21.2586 H   0  0  0  0  0  0
  -29.4182  -24.4707   21.2368 H   0  0  0  0  0  0
  -27.8450  -25.2138   18.7253 H   0  0  0  0  0  0
  -29.5218  -25.3966   19.0290 H   0  0  0  0  0  0
  -28.8320  -15.3165   20.9029 H   0  0  0  0  0  0
  -28.9717  -23.0110   19.0963 H   0  0  0  0  0  0
  1 25  1  0  0  0
  1 30  2  0  0  0
  1 86  1  0  0  0
  2  3  1  0  0  0
  2 25  1  0  0  0
  2 88  1  0  0  0
  2 89  1  0  0  0
  3  4  1  0  0  0
  3 90  1  0  0  0
  3 91  1  0  0  0
  4  5  1  0  0  0
  4 92  1  0  0  0
  4 93  1  0  0  0
  5  6  1  0  0  0
  5 26  1  0  0  0
  5 94  1  0  0  0
  6 25  1  0  0  0
  6 95  1  0  0  0
  6 96  1  0  0  0
  7  8  2  0  0  0
  7 26  1  0  0  0
  7 29  1  0  0  0
  8  9  1  0  0  0
  8 22  1  0  0  0
  9 10  1  0  0  0
  9 27  2  0  0  0
 10 11  2  0  0  0
 10 15  1  0  0  0
 11 12  1  0  0  0
 11 97  1  0  0  0
 12 13  2  0  0  0
 12 98  1  0  0  0
 13 14  1  0  0  0
 13 31  1  0  0  0
 14 15  2  0  0  0
 14 99  1  0  0  0
 15100  1  0  0  0
 16 17  2  0  0  0
 16 21  1  0  0  0
 16 31  1  0  0  0
 17 18  1  0  0  0
 17101  1  0  0  0
 18 19  2  0  0  0
 18102  1  0  0  0
 19 20  1  0  0  0
 19 24  1  0  0  0
 20 21  2  0  0  0
 20103  1  0  0  0
 21 23  1  0  0  0
 22 28  1  0  0  0
 22 32  2  0  0  0
 26 27  1  0  0  0
 28104  1  0  0  0
 28105  1  0  0  0
 29106  1  0  0  0
 29107  1  0  0  0
 33 34  1  0  0  0
 33 66  1  0  0  0
 33 70  2  0  0  0
 34 36  1  0  0  0
 34 59  1  0  0  0
 34108  1  0  0  0
 35 44  2  0  0  0
 35 45  1  0  0  0
 35 68  1  0  0  0
 36 56  1  0  0  0
 36109  1  0  0  0
 37 39  1  0  0  0
 37 47  1  0  0  0
 37 66  1  0  0  0
 37110  1  0  0  0
 38 43  2  0  0  0
 38 46  1  0  0  0
 38 47  1  0  0  0
 39 64  1  0  0  0
 39 67  2  0  0  0
 40 52  1  0  0  0
 40 53  2  0  0  0
 40 58  1  0  0  0
 41111  1  0  0  0
 41112  1  0  0  0
 41113  1  0  0  0
 41 48  1  0  0  0
 42 43  1  0  0  0
 42 66  1  0  0  0
 42114  1  0  0  0
 42115  1  0  0  0
 43 44  1  0  0  0
 44116  1  0  0  0
 45 46  2  0  0  0
 45117  1  0  0  0
 46118  1  0  0  0
 47119  1  0  0  0
 47120  1  0  0  0
 48 56  1  0  0  0
 48 65  1  0  0  0
 48121  1  0  0  0
 49 50  1  0  0  0
 49 53  1  0  0  0
 49 64  1  0  0  0
 49122  1  0  0  0
 50 51  1  0  0  0
 50123  1  0  0  0
 50124  1  0  0  0
 51 52  1  0  0  0
 51125  1  0  0  0
 51126  1  0  0  0
 52127  1  0  0  0
 52128  1  0  0  0
 53 54  1  0  0  0
 54 55  2  0  0  0
 54129  1  0  0  0
 55 57  1  0  0  0
 55130  1  0  0  0
 56 69  2  0  0  0
 57 58  2  0  0  0
 57131  1  0  0  0
 58132  1  0  0  0
 59 60  1  0  0  0
 59 61  1  0  0  0
 59 62  1  0  0  0
 60133  1  0  0  0
 60134  1  0  0  0
 60135  1  0  0  0
 61136  1  0  0  0
 61137  1  0  0  0
 61138  1  0  0  0
 62139  1  0  0  0
 62140  1  0  0  0
 62141  1  0  0  0
 63 65  1  0  0  0
 63142  1  0  0  0
 63143  1  0  0  0
 63144  1  0  0  0
 64145  1  0  0  0
 65146  1  0  0  0
 68 84  1  0  0  0
 71 73  2  0  0  0
 71 74  1  0  0  0
 71147  1  0  0  0
 72 73  1  0  0  0
 72 75  2  0  0  0
 72148  1  0  0  0
 73 79  1  0  0  0
 74 80  1  0  0  0
 74 85  2  0  0  0
 75 85  1  0  0  0
 75 86  1  0  0  0
 76 78  1  0  0  0
 76 87  1  0  0  0
 76149  1  0  0  0
 76150  1  0  0  0
 77 79  1  0  0  0
 77 87  1  0  0  0
 77151  1  0  0  0
 77152  1  0  0  0
 78 79  1  0  0  0
 78 81  1  0  0  0
 78153  1  0  0  0
 79 82  1  0  0  0
 80154  1  0  0  0
 80155  1  0  0  0
 80156  1  0  0  0
 81157  1  0  0  0
 81158  1  0  0  0
 81159  1  0  0  0
 82160  1  0  0  0
 82161  1  0  0  0
 82162  1  0  0  0
 83 84  1  0  0  0
 83163  1  0  0  0
 83164  1  0  0  0
 83 87  1  0  0  0
 84165  1  0  0  0
 84166  1  0  0  0
 86167  1  0  0  0
 87168  1  0  0  0
M  CHG  1  87   1
M  ISO  4   1 100  68 101  84 101  86 100
M  END
> <chiral flag>
0

> <version>
0

> <s_m_source_file>
/data/baiqing/PycharmProjects/Reinvent-master-3.2/result/LINK_invent/BTK/process_docking_weight1_custom_sum_contain_oxygen_bond_distance_aromatic_linkinvent_7_9_3/rearranged_h_0169.sdf

> <i_m_source_file_index>
36

> <r_mmod_Potential_Energy-OPLS-2005>
-173.713165283203

> <r_mmod_Stretch_Energy-OPLS-2005>
47.131706237793

> <r_mmod_Bend_Energy-OPLS-2005>
154.931549072266

> <r_mmod_Torsional_Energy-OPLS-2005>
295.431213378906

> <r_mmod_Improper_Torsional_Energy-OPLS-2005>
7.07200717926025

> <r_mmod_Van_der_Waal_Energy-OPLS-2005>
153.206451416016

> <r_mmod_Electrostatic_Energy-OPLS-2005>
-391.397583007812

> <r_mmod_Solvation_Energy-OPLS-2005>
-462.273773193359

> <b_mmod_Minimization_Converged-OPLS-2005>
0

> <r_mmod_RMS_Derivative-OPLS-2005>
4.64864587783813

$$$$
36
                    3D
 Structure written by MMmdl.
160169  0  0  1  0            999 V2000
  -30.4892  -15.3704   20.3783 C   0  0  0  0  0  0
  -30.4140  -12.9112   19.4936 C   0  0  0  0  0  0
  -29.5222  -12.5937   18.2721 C   0  0  0  0  0  0
  -28.0870  -12.2914   18.7285 C   0  0  0  0  0  0
  -27.5983  -13.2897   19.8076 C   0  0  2  0  0  0
  -28.6376  -13.5611   20.9185 C   0  0  0  0  0  0
  -25.2354  -13.8273   20.5801 C   0  0  0  0  0  0
  -24.1715  -13.0440   20.9291 C   0  0  0  0  0  0
  -24.6391  -11.6941   20.8786 C   0  0  0  0  0  0
  -23.9096  -10.4288   21.0408 C   0  0  0  0  0  0
  -24.3636   -9.4202   21.9184 C   0  0  0  0  0  0
  -23.6307   -8.2242   22.0755 C   0  0  0  0  0  0
  -22.4288   -8.0283   21.3550 C   0  0  0  0  0  0
  -21.9938   -9.0247   20.4644 C   0  0  0  0  0  0
  -22.7272  -10.2121   20.3055 C   0  0  0  0  0  0
  -21.6857   -6.0732   22.5267 C   0  0  0  0  0  0
  -21.4031   -6.5638   23.8200 C   0  0  0  0  0  0
  -21.3676   -5.6789   24.9164 C   0  0  0  0  0  0
  -21.6048   -4.3046   24.7217 C   0  0  0  0  0  0
  -21.8806   -3.8142   23.4331 C   0  0  0  0  0  0
  -21.9184   -4.6959   22.3391 C   0  0  0  0  0  0
  -22.7722  -13.5181   21.1896 C   0  0  0  0  0  0
  -22.1645   -4.2142   21.0967 F   0  0  0  0  0  0
  -21.5638   -3.4534   25.7736 F   0  0  0  0  0  0
  -29.8279  -14.1042   20.2323 N   0  0  0  0  0  0
  -26.2787  -12.9574   20.3236 N   0  0  0  0  0  0
  -25.9339  -11.6658   20.5737 N   0  0  0  0  0  0
  -22.0368  -12.8180   22.0455 N   0  0  0  0  0  0
  -25.3949  -15.2017   20.4273 N   0  0  0  0  0  0
  -31.7173  -15.1732   20.3277 O   0  0  0  0  0  0
  -21.6658   -6.8878   21.4233 O   0  0  0  0  0  0
  -22.3414  -14.5468   20.6698 O   0  0  0  0  0  0
  -24.6691  -31.8171   23.1651 C   0  0  0  0  0  0
  -25.9350  -32.4551   23.8136 C   0  0  1  0  0  0
  -27.2147  -26.8605   20.1866 C   0  0  0  0  0  0
  -25.5979  -33.8370   24.2040 N   0  0  0  0  0  0
  -23.4878  -30.4275   21.5151 C   0  0  2  0  0  0
  -24.9413  -28.8010   20.1146 C   0  0  0  0  0  0
  -22.7700  -29.4413   22.4747 C   0  0  0  0  0  0
  -18.0325  -28.1415   22.8459 C   0  0  0  0  0  0
  -24.1493  -36.7193   23.2648 C   0  0  0  0  0  0
  -26.0612  -30.6028   21.4043 C   0  0  0  0  0  0
  -26.1282  -29.1844   20.7502 C   0  0  0  0  0  0
  -27.2591  -28.2369   20.7598 C   0  0  0  0  0  0
  -25.9972  -26.6475   19.5019 C   0  0  0  0  0  0
  -24.9037  -27.5551   19.4694 C   0  0  0  0  0  0
  -23.7324  -29.7384   20.1442 C   0  0  0  0  0  0
  -25.4133  -36.2947   24.0296 C   0  0  1  0  0  0
  -20.5963  -28.3763   23.1169 C   0  0  2  0  0  0
  -20.6803  -26.9436   22.5400 C   0  0  0  0  0  0
  -19.5775  -26.6375   21.5209 C   0  0  0  0  0  0
  -18.1956  -26.7942   22.1623 C   0  0  0  0  0  0
  -19.1593  -28.8904   23.2805 C   0  0  0  0  0  0
  -18.9502  -30.1495   23.8847 C   0  0  0  0  0  0
  -17.6491  -30.6601   24.0554 C   0  0  0  0  0  0
  -25.9103  -34.9333   23.4996 C   0  0  0  0  0  0
  -16.5380  -29.9088   23.6348 C   0  0  0  0  0  0
  -16.7302  -28.6513   23.0353 C   0  0  0  0  0  0
  -26.4566  -31.6520   25.0696 C   0  0  0  0  0  0
  -25.3664  -31.3794   26.1331 C   0  0  0  0  0  0
  -27.0461  -30.2874   24.6466 C   0  0  0  0  0  0
  -27.6055  -32.4330   25.7505 C   0  0  0  0  0  0
  -27.5571  -37.1746   24.8458 C   0  0  0  0  0  0
  -21.4364  -29.3045   22.3507 N   0  0  0  0  0  0
  -26.4267  -37.3700   23.9420 N   0  0  0  0  0  0
  -24.7615  -30.9776   22.0814 N   0  0  0  0  0  0
  -23.4218  -28.7980   23.3012 O   0  0  0  0  0  0
  -28.1972  -25.7132   20.2465 O   0  0  0  0  0  0
  -26.5725  -34.8882   22.4600 O   0  0  0  0  0  0
  -23.5750  -32.1167   23.6708 O   0  0  0  0  0  0
  -30.6257  -20.0739   19.9135 C   0  0  0  0  0  0
  -29.3025  -19.7799   20.2734 C   0  0  0  0  0  0
  -31.0788  -21.4334   19.7561 C   0  0  0  0  0  0
  -28.4440  -21.0694   20.3843 C   0  0  0  0  0  0
  -30.2220  -22.6029   19.8078 C   0  0  0  0  0  0
  -28.8367  -22.5575   20.1578 C   0  0  0  0  0  0
  -31.5579  -18.8513   19.7167 C   0  0  0  0  0  0
  -29.0483  -18.0620   20.5384 C   0  0  0  0  0  0
  -30.8843  -17.5555   19.1349 C   0  0  0  0  0  0
  -32.5831  -21.6319   19.5458 C   0  0  0  0  0  0
  -26.9928  -20.8414   20.7545 C   0  0  0  0  0  0
  -30.8034  -23.9672   19.4413 C   0  0  0  0  0  0
  -27.8736  -24.0651   20.1599 C   0  0  0  0  0  0
  -30.0090  -16.7853   20.0638 N   0  0  0  0  0  0
  -31.4248  -13.1085   19.1341 H   0  0  0  0  0  0
  -30.5034  -12.0412   20.1472 H   0  0  0  0  0  0
  -29.9278  -11.7558   17.7038 H   0  0  0  0  0  0
  -29.5180  -13.4518   17.5978 H   0  0  0  0  0  0
  -28.0778  -11.2808   19.1394 H   0  0  0  0  0  0
  -27.4063  -12.2817   17.8762 H   0  0  0  0  0  0
  -27.4809  -14.2306   19.2689 H   0  0  0  0  0  0
  -28.8533  -12.6653   21.5016 H   0  0  0  0  0  0
  -28.2570  -14.3078   21.6176 H   0  0  0  0  0  0
  -25.2764   -9.5709   22.4770 H   0  0  0  0  0  0
  -24.0011   -7.4653   22.7493 H   0  0  0  0  0  0
  -21.0861   -8.8770   19.8956 H   0  0  0  0  0  0
  -22.3714  -10.9664   19.6174 H   0  0  0  0  0  0
  -21.2039   -7.6150   23.9705 H   0  0  0  0  0  0
  -21.1522   -6.0524   25.9068 H   0  0  0  0  0  0
  -22.0578   -2.7607   23.2820 H   0  0  0  0  0  0
  -22.4017  -11.9895   22.4912 H   0  0  0  0  0  0
  -21.0963  -13.1179   22.2612 H   0  0  0  0  0  0
  -24.6273  -15.8515   20.5607 H   0  0  0  0  0  0
  -26.2414  -15.6494   20.1006 H   0  0  0  0  0  0
  -26.7418  -32.5079   23.0851 H   0  0  0  0  0  0
  -25.0057  -33.9430   25.0132 H   0  0  0  0  0  0
  -22.8046  -31.2621   21.3387 H   0  0  0  0  0  0
  -23.3782  -35.9496   23.3251 H   0  0  0  0  0  0
  -24.3574  -36.8908   22.2076 H   0  0  0  0  0  0
  -23.7222  -37.6345   23.6747 H   0  0  0  0  0  0
  -26.2447  -31.3386   20.6203 H   0  0  0  0  0  0
  -26.9205  -30.6652   22.0603 H   0  0  0  0  0  0
  -28.1574  -28.5295   21.2847 H   0  0  0  0  0  0
  -25.8514  -25.6998   19.0048 H   0  0  0  0  0  0
  -24.0019  -27.2553   18.9527 H   0  0  0  0  0  0
  -23.9003  -30.5047   19.3861 H   0  0  0  0  0  0
  -22.8398  -29.1998   19.8202 H   0  0  0  0  0  0
  -25.1336  -36.1725   25.0784 H   0  0  0  0  0  0
  -21.0049  -28.3381   24.1293 H   0  0  0  0  0  0
  -20.5676  -26.2381   23.3649 H   0  0  0  0  0  0
  -21.6665  -26.7399   22.1217 H   0  0  0  0  0  0
  -19.6933  -25.6266   21.1280 H   0  0  0  0  0  0
  -19.6718  -27.3154   20.6712 H   0  0  0  0  0  0
  -17.4226  -26.6679   21.4026 H   0  0  0  0  0  0
  -18.0361  -26.0100   22.9040 H   0  0  0  0  0  0
  -19.7979  -30.7319   24.2206 H   0  0  0  0  0  0
  -17.5042  -31.6272   24.5177 H   0  0  0  0  0  0
  -15.5375  -30.2965   23.7701 H   0  0  0  0  0  0
  -15.8713  -28.0808   22.7085 H   0  0  0  0  0  0
  -24.5837  -30.7164   25.7624 H   0  0  0  0  0  0
  -24.8855  -32.3002   26.4645 H   0  0  0  0  0  0
  -25.7858  -30.9010   27.0189 H   0  0  0  0  0  0
  -26.3116  -29.6525   24.1492 H   0  0  0  0  0  0
  -27.3985  -29.7283   25.5145 H   0  0  0  0  0  0
  -27.9074  -30.4047   23.9890 H   0  0  0  0  0  0
  -27.2615  -33.3666   26.1977 H   0  0  0  0  0  0
  -28.3923  -32.6830   25.0374 H   0  0  0  0  0  0
  -28.0654  -31.8514   26.5507 H   0  0  0  0  0  0
  -28.2543  -38.0088   24.7548 H   0  0  0  0  0  0
  -28.1112  -36.2613   24.6225 H   0  0  0  0  0  0
  -27.2294  -37.1326   25.8861 H   0  0  0  0  0  0
  -20.9622  -29.8711   21.6607 H   0  0  0  0  0  0
  -26.0107  -38.2750   24.1447 H   0  0  0  0  0  0
  -32.0489  -18.6205   20.6631 H   0  0  0  0  0  0
  -32.3540  -19.1160   19.0218 H   0  0  0  0  0  0
  -28.0590  -17.8426   20.1354 H   0  0  0  0  0  0
  -28.9358  -17.9519   21.6181 H   0  0  0  0  0  0
  -31.6732  -16.9306   18.7164 H   0  0  0  0  0  0
  -30.2920  -17.8318   18.2619 H   0  0  0  0  0  0
  -33.1583  -20.9121   20.1288 H   0  0  0  0  0  0
  -32.9388  -22.6019   19.8890 H   0  0  0  0  0  0
  -32.8493  -21.5135   18.4951 H   0  0  0  0  0  0
  -26.8120  -19.8069   21.0475 H   0  0  0  0  0  0
  -26.3440  -21.0703   19.9093 H   0  0  0  0  0  0
  -26.7055  -21.4778   21.5917 H   0  0  0  0  0  0
  -31.6091  -23.8913   18.7118 H   0  0  0  0  0  0
  -31.1800  -24.4776   20.3274 H   0  0  0  0  0  0
  -30.0669  -24.6088   18.9603 H   0  0  0  0  0  0
  -27.1144  -23.9016   20.9254 H   0  0  0  0  0  0
  -27.3256  -23.9720   19.2222 H   0  0  0  0  0  0
  1 25  1  0  0  0
  1 30  2  0  0  0
  1 84  1  0  0  0
  2  3  1  0  0  0
  2 25  1  0  0  0
  2 85  1  0  0  0
  2 86  1  0  0  0
  3  4  1  0  0  0
  3 87  1  0  0  0
  3 88  1  0  0  0
  4  5  1  0  0  0
  4 89  1  0  0  0
  4 90  1  0  0  0
  5  6  1  0  0  0
  5 26  1  0  0  0
  5 91  1  0  0  0
  6 25  1  0  0  0
  6 92  1  0  0  0
  6 93  1  0  0  0
  7  8  2  0  0  0
  7 26  1  0  0  0
  7 29  1  0  0  0
  8  9  1  0  0  0
  8 22  1  0  0  0
  9 10  1  0  0  0
  9 27  2  0  0  0
 10 11  2  0  0  0
 10 15  1  0  0  0
 11 12  1  0  0  0
 11 94  1  0  0  0
 12 13  2  0  0  0
 12 95  1  0  0  0
 13 14  1  0  0  0
 13 31  1  0  0  0
 14 15  2  0  0  0
 14 96  1  0  0  0
 15 97  1  0  0  0
 16 17  2  0  0  0
 16 21  1  0  0  0
 16 31  1  0  0  0
 17 18  1  0  0  0
 17 98  1  0  0  0
 18 19  2  0  0  0
 18 99  1  0  0  0
 19 20  1  0  0  0
 19 24  1  0  0  0
 20 21  2  0  0  0
 20100  1  0  0  0
 21 23  1  0  0  0
 22 28  1  0  0  0
 22 32  2  0  0  0
 26 27  1  0  0  0
 28101  1  0  0  0
 28102  1  0  0  0
 29103  1  0  0  0
 29104  1  0  0  0
 33 34  1  0  0  0
 33 66  1  0  0  0
 33 70  2  0  0  0
 34 36  1  0  0  0
 34 59  1  0  0  0
 34105  1  0  0  0
 35 44  2  0  0  0
 35 45  1  0  0  0
 35 68  1  0  0  0
 36 56  1  0  0  0
 36106  1  0  0  0
 37 39  1  0  0  0
 37 47  1  0  0  0
 37 66  1  0  0  0
 37107  1  0  0  0
 38 43  2  0  0  0
 38 46  1  0  0  0
 38 47  1  0  0  0
 39 64  1  0  0  0
 39 67  2  0  0  0
 40 52  1  0  0  0
 40 53  2  0  0  0
 40 58  1  0  0  0
 41108  1  0  0  0
 41109  1  0  0  0
 41110  1  0  0  0
 41 48  1  0  0  0
 42 43  1  0  0  0
 42 66  1  0  0  0
 42111  1  0  0  0
 42112  1  0  0  0
 43 44  1  0  0  0
 44113  1  0  0  0
 45 46  2  0  0  0
 45114  1  0  0  0
 46115  1  0  0  0
 47116  1  0  0  0
 47117  1  0  0  0
 48 56  1  0  0  0
 48 65  1  0  0  0
 48118  1  0  0  0
 49 50  1  0  0  0
 49 53  1  0  0  0
 49 64  1  0  0  0
 49119  1  0  0  0
 50 51  1  0  0  0
 50120  1  0  0  0
 50121  1  0  0  0
 51 52  1  0  0  0
 51122  1  0  0  0
 51123  1  0  0  0
 52124  1  0  0  0
 52125  1  0  0  0
 53 54  1  0  0  0
 54 55  2  0  0  0
 54126  1  0  0  0
 55 57  1  0  0  0
 55127  1  0  0  0
 56 69  2  0  0  0
 57 58  2  0  0  0
 57128  1  0  0  0
 58129  1  0  0  0
 59 60  1  0  0  0
 59 61  1  0  0  0
 59 62  1  0  0  0
 60130  1  0  0  0
 60131  1  0  0  0
 60132  1  0  0  0
 61133  1  0  0  0
 61134  1  0  0  0
 61135  1  0  0  0
 62136  1  0  0  0
 62137  1  0  0  0
 62138  1  0  0  0
 63 65  1  0  0  0
 63139  1  0  0  0
 63140  1  0  0  0
 63141  1  0  0  0
 64142  1  0  0  0
 65143  1  0  0  0
 68 83  1  0  0  0
 71 72  1  0  0  0
 71 73  2  0  0  0
 71 77  1  0  0  0
 72 74  2  0  0  0
 72 78  1  0  0  0
 73 75  1  0  0  0
 73 80  1  0  0  0
 74 76  1  0  0  0
 74 81  1  0  0  0
 75 76  2  0  0  0
 75 82  1  0  0  0
 76 83  1  0  0  0
 77 79  1  0  0  0
 77144  1  0  0  0
 77145  1  0  0  0
 78 84  1  0  0  0
 78146  1  0  0  0
 78147  1  0  0  0
 79 84  1  0  0  0
 79148  1  0  0  0
 79149  1  0  0  0
 80150  1  0  0  0
 80151  1  0  0  0
 80152  1  0  0  0
 81153  1  0  0  0
 81154  1  0  0  0
 81155  1  0  0  0
 82156  1  0  0  0
 82157  1  0  0  0
 82158  1  0  0  0
 83159  1  0  0  0
 83160  1  0  0  0
M  ISO  4   1 100  68 101  83 101  84 100
M  END
> <chiral flag>
0

> <version>
0

> <s_m_source_file>
/data/baiqing/PycharmProjects/Reinvent-master-3.2/result/LINK_invent/BTK/process_docking_weight1_custom_sum_contain_oxygen_bond_distance_aromatic_linkinvent_7_9_3/rearranged_h_0169.sdf

> <i_m_source_file_index>
37

> <r_mmod_Potential_Energy-OPLS-2005>
1668.14367675781

> <r_mmod_Stretch_Energy-OPLS-2005>
672.881958007812

> <r_mmod_Bend_Energy-OPLS-2005>
480.705444335938

> <r_mmod_Torsional_Energy-OPLS-2005>
301.033233642578

> <r_mmod_Improper_Torsional_Energy-OPLS-2005>
21.5810661315918

> <r_mmod_Van_der_Waal_Energy-OPLS-2005>
152.519348144531

> <r_mmod_Electrostatic_Energy-OPLS-2005>
-327.938629150391

> <r_mmod_Solvation_Energy-OPLS-2005>
-203.409484863281

> <b_mmod_Minimization_Converged-OPLS-2005>
0

> <r_mmod_RMS_Derivative-OPLS-2005>
2.33322858810425

$$$$
37
                    3D
 Structure written by MMmdl.
170179  0  0  1  0            999 V2000
  -30.6801  -14.5003   20.5064 C   0  0  0  0  0  0
  -30.4203  -12.3055   19.4206 C   0  0  0  0  0  0
  -29.4990  -12.4933   18.1956 C   0  0  0  0  0  0
  -28.0145  -12.3621   18.6017 C   0  0  0  0  0  0
  -27.6523  -13.2029   19.8576 C   0  0  2  0  0  0
  -28.7021  -13.0103   20.9783 C   0  0  0  0  0  0
  -25.2572  -13.8105   20.5697 C   0  0  0  0  0  0
  -24.1845  -13.0382   20.9201 C   0  0  0  0  0  0
  -24.6383  -11.6856   20.8717 C   0  0  0  0  0  0
  -23.9018  -10.4261   21.0370 C   0  0  0  0  0  0
  -24.3588   -9.4192   21.9160 C   0  0  0  0  0  0
  -23.6290   -8.2216   22.0724 C   0  0  0  0  0  0
  -22.4280   -8.0221   21.3522 C   0  0  0  0  0  0
  -21.9873   -9.0189   20.4622 C   0  0  0  0  0  0
  -22.7176  -10.2084   20.3041 C   0  0  0  0  0  0
  -21.6846   -6.0685   22.5273 C   0  0  0  0  0  0
  -21.4007   -6.5604   23.8202 C   0  0  0  0  0  0
  -21.3690   -5.6770   24.9177 C   0  0  0  0  0  0
  -21.6066   -4.3033   24.7234 C   0  0  0  0  0  0
  -21.8828   -3.8106   23.4358 C   0  0  0  0  0  0
  -21.9202   -4.6915   22.3412 C   0  0  0  0  0  0
  -22.7871  -13.5197   21.1873 C   0  0  0  0  0  0
  -22.1667   -4.2102   21.0982 F   0  0  0  0  0  0
  -21.5651   -3.4519   25.7749 F   0  0  0  0  0  0
  -30.0216  -13.3112   20.4147 N   0  0  0  0  0  0
  -26.2984  -12.9276   20.3287 N   0  0  0  0  0  0
  -25.9299  -11.6441   20.5724 N   0  0  0  0  0  0
  -22.0511  -12.8203   22.0418 N   0  0  0  0  0  0
  -25.4187  -15.1831   20.4112 N   0  0  0  0  0  0
  -31.8730  -14.6094   20.2060 O   0  0  0  0  0  0
  -21.6635   -6.8817   21.4230 O   0  0  0  0  0  0
  -22.3588  -14.5520   20.6728 O   0  0  0  0  0  0
  -24.6198  -31.8674   23.2102 C   0  0  0  0  0  0
  -25.9086  -32.4813   23.8388 C   0  0  1  0  0  0
  -27.2135  -27.4024   20.0847 C   0  0  0  0  0  0
  -25.5914  -33.8606   24.2324 N   0  0  0  0  0  0
  -23.4050  -30.5016   21.5496 C   0  0  2  0  0  0
  -24.8431  -28.9678   20.1117 C   0  0  0  0  0  0
  -22.7400  -29.4714   22.4920 C   0  0  0  0  0  0
  -18.0279  -28.1400   22.8482 C   0  0  0  0  0  0
  -24.1481  -36.7315   23.2638 C   0  0  0  0  0  0
  -25.9405  -30.8244   21.3660 C   0  0  0  0  0  0
  -26.0116  -29.4599   20.7061 C   0  0  0  0  0  0
  -27.2012  -28.6886   20.6837 C   0  0  0  0  0  0
  -26.0144  -26.9330   19.4951 C   0  0  0  0  0  0
  -24.8409  -27.7045   19.5042 C   0  0  0  0  0  0
  -23.6134  -29.8459   20.1605 C   0  0  0  0  0  0
  -25.4099  -36.3104   24.0337 C   0  0  1  0  0  0
  -20.5880  -28.3706   23.1268 C   0  0  2  0  0  0
  -20.6777  -26.9435   22.5394 C   0  0  0  0  0  0
  -19.5759  -26.6398   21.5197 C   0  0  0  0  0  0
  -18.1937  -26.7943   22.1618 C   0  0  0  0  0  0
  -19.1527  -28.8859   23.2890 C   0  0  0  0  0  0
  -18.9464  -30.1451   23.8926 C   0  0  0  0  0  0
  -17.6465  -30.6603   24.0576 C   0  0  0  0  0  0
  -25.9030  -34.9469   23.5123 C   0  0  0  0  0  0
  -16.5358  -29.9120   23.6314 C   0  0  0  0  0  0
  -16.7259  -28.6537   23.0334 C   0  0  0  0  0  0
  -26.4498  -31.6591   25.0719 C   0  0  0  0  0  0
  -25.3744  -31.3699   26.1441 C   0  0  0  0  0  0
  -27.0356  -30.3035   24.6123 C   0  0  0  0  0  0
  -27.6052  -32.4315   25.7503 C   0  0  0  0  0  0
  -27.5579  -37.1815   24.8460 C   0  0  0  0  0  0
  -21.4132  -29.3078   22.3652 N   0  0  0  0  0  0
  -26.4286  -37.3794   23.9411 N   0  0  0  0  0  0
  -24.6744  -31.0767   22.1016 N   0  0  0  0  0  0
  -23.4159  -28.8219   23.2953 O   0  0  0  0  0  0
  -28.3758  -26.6437   20.0803 O   0  0  0  0  0  0
  -26.5592  -34.8934   22.4690 O   0  0  0  0  0  0
  -23.5380  -32.1430   23.7494 O   0  0  0  0  0  0
  -29.7068  -22.3282   21.2304 C   0  0  0  0  0  0
  -29.4540  -17.8355   21.4401 C   0  0  0  0  0  0
  -30.3229  -17.7403   19.1294 C   0  0  0  0  0  0
  -29.1249  -16.3082   21.3679 C   0  0  0  0  0  0
  -29.8922  -16.2694   19.0188 C   0  0  0  0  0  0
  -29.3610  -22.2547   18.8077 C   0  0  0  0  0  0
  -29.9413  -20.7848   21.2451 C   0  0  2  0  0  0
  -29.3924  -18.5545   20.0508 C   0  0  0  0  0  0
  -28.8643  -20.7970   18.9764 C   0  0  1  0  0  0
  -31.3937  -20.5789   21.7447 C   0  0  0  0  0  0
  -28.7855  -20.1652   17.5683 C   0  0  0  0  0  0
  -29.5891  -24.4650   19.9518 C   0  0  0  0  0  0
  -28.2319  -25.2060   19.9944 C   0  0  0  0  0  0
  -29.4905  -22.9839   20.0667 N   0  0  0  0  0  0
  -29.8769  -15.5851   20.3210 N   0  0  0  0  0  0
  -29.7221  -20.0402   19.9534 N   0  3  1  0  0  0
  -29.7560  -22.9353   22.3051 O   0  0  0  0  0  0
  -31.4684  -12.3941   19.1272 H   0  0  0  0  0  0
  -30.3064  -11.3000   19.8272 H   0  0  0  0  0  0
  -29.7394  -11.7569   17.4276 H   0  0  0  0  0  0
  -29.6758  -13.4685   17.7408 H   0  0  0  0  0  0
  -27.8136  -11.3070   18.7888 H   0  0  0  0  0  0
  -27.3731  -12.6440   17.7669 H   0  0  0  0  0  0
  -27.6722  -14.2424   19.5387 H   0  0  0  0  0  0
  -28.6885  -11.9816   21.3442 H   0  0  0  0  0  0
  -28.4828  -13.6443   21.8361 H   0  0  0  0  0  0
  -25.2717   -9.5696   22.4742 H   0  0  0  0  0  0
  -24.0016   -7.4608   22.7448 H   0  0  0  0  0  0
  -21.0788   -8.8657   19.8954 H   0  0  0  0  0  0
  -22.3579  -10.9601   19.6152 H   0  0  0  0  0  0
  -21.1962   -7.6103   23.9692 H   0  0  0  0  0  0
  -21.1535   -6.0496   25.9088 H   0  0  0  0  0  0
  -22.0594   -2.7563   23.2867 H   0  0  0  0  0  0
  -22.4129  -11.9857   22.4794 H   0  0  0  0  0  0
  -21.1116  -13.1193   22.2603 H   0  0  0  0  0  0
  -24.6257  -15.8101   20.4963 H   0  0  0  0  0  0
  -26.2529  -15.6373   20.0644 H   0  0  0  0  0  0
  -26.7141  -32.5510   23.1130 H   0  0  0  0  0  0
  -25.0043  -33.9759   25.0453 H   0  0  0  0  0  0
  -22.6989  -31.3243   21.4153 H   0  0  0  0  0  0
  -23.3751  -35.9645   23.3293 H   0  0  0  0  0  0
  -24.3577  -36.8937   22.2057 H   0  0  0  0  0  0
  -23.7224  -37.6515   23.6650 H   0  0  0  0  0  0
  -26.0566  -31.5934   20.6010 H   0  0  0  0  0  0
  -26.8291  -30.8718   21.9844 H   0  0  0  0  0  0
  -28.1049  -29.0689   21.1392 H   0  0  0  0  0  0
  -25.9448  -25.9736   19.0079 H   0  0  0  0  0  0
  -23.9416  -27.3213   19.0410 H   0  0  0  0  0  0
  -23.7368  -30.6291   19.4109 H   0  0  0  0  0  0
  -22.7311  -29.2819   19.8517 H   0  0  0  0  0  0
  -25.1284  -36.1977   25.0832 H   0  0  0  0  0  0
  -21.0005  -28.3304   24.1376 H   0  0  0  0  0  0
  -20.5665  -26.2333   23.3599 H   0  0  0  0  0  0
  -21.6651  -26.7464   22.1200 H   0  0  0  0  0  0
  -19.6931  -25.6303   21.1239 H   0  0  0  0  0  0
  -19.6711  -27.3195   20.6718 H   0  0  0  0  0  0
  -17.4205  -26.6669   21.4030 H   0  0  0  0  0  0
  -18.0365  -26.0083   22.9014 H   0  0  0  0  0  0
  -19.7938  -30.7248   24.2329 H   0  0  0  0  0  0
  -17.5028  -31.6285   24.5173 H   0  0  0  0  0  0
  -15.5361  -30.3048   23.7605 H   0  0  0  0  0  0
  -15.8659  -28.0863   22.7036 H   0  0  0  0  0  0
  -24.5915  -30.7061   25.7754 H   0  0  0  0  0  0
  -24.8940  -32.2859   26.4883 H   0  0  0  0  0  0
  -25.8067  -30.8848   27.0198 H   0  0  0  0  0  0
  -26.2935  -29.6767   24.1165 H   0  0  0  0  0  0
  -27.4117  -29.7292   25.4598 H   0  0  0  0  0  0
  -27.8759  -30.4357   23.9306 H   0  0  0  0  0  0
  -27.2661  -33.3608   26.2090 H   0  0  0  0  0  0
  -28.3875  -32.6882   25.0350 H   0  0  0  0  0  0
  -28.0701  -31.8425   26.5415 H   0  0  0  0  0  0
  -28.2586  -38.0120   24.7517 H   0  0  0  0  0  0
  -28.1084  -36.2655   24.6275 H   0  0  0  0  0  0
  -27.2291  -37.1446   25.8858 H   0  0  0  0  0  0
  -20.9263  -29.8831   21.6917 H   0  0  0  0  0  0
  -26.0181  -38.2873   24.1419 H   0  0  0  0  0  0
  -30.4435  -17.9247   21.8830 H   0  0  0  0  0  0
  -28.7581  -18.2950   22.1435 H   0  0  0  0  0  0
  -30.3510  -18.1456   18.1218 H   0  0  0  0  0  0
  -31.3464  -17.7959   19.5059 H   0  0  0  0  0  0
  -28.0594  -16.1773   21.1778 H   0  0  0  0  0  0
  -29.3051  -15.8563   22.3448 H   0  0  0  0  0  0
  -30.5527  -15.7624   18.3124 H   0  0  0  0  0  0
  -28.8945  -16.1979   18.5839 H   0  0  0  0  0  0
  -28.6765  -22.7954   18.1518 H   0  0  0  0  0  0
  -30.3334  -22.2683   18.3109 H   0  0  0  0  0  0
  -29.2319  -20.4194   21.9845 H   0  0  0  0  0  0
  -28.3597  -18.4291   19.7178 H   0  0  0  0  0  0
  -27.8500  -20.8270   19.3797 H   0  0  0  0  0  0
  -32.0947  -21.2181   21.2062 H   0  0  0  0  0  0
  -31.7675  -19.5651   21.6279 H   0  0  0  0  0  0
  -31.4736  -20.8296   22.8038 H   0  0  0  0  0  0
  -29.7752  -20.0502   17.1234 H   0  0  0  0  0  0
  -28.2135  -20.7986   16.8897 H   0  0  0  0  0  0
  -28.2895  -19.1953   17.5662 H   0  0  0  0  0  0
  -30.2389  -24.8599   20.7337 H   0  0  0  0  0  0
  -30.0922  -24.7133   19.0156 H   0  0  0  0  0  0
  -27.6407  -24.8553   20.8432 H   0  0  0  0  0  0
  -27.7066  -24.9197   19.0858 H   0  0  0  0  0  0
  -30.6365  -20.0634   19.5289 H   0  0  0  0  0  0
  1 25  1  0  0  0
  1 30  2  0  0  0
  1 85  1  0  0  0
  2  3  1  0  0  0
  2 25  1  0  0  0
  2 88  1  0  0  0
  2 89  1  0  0  0
  3  4  1  0  0  0
  3 90  1  0  0  0
  3 91  1  0  0  0
  4  5  1  0  0  0
  4 92  1  0  0  0
  4 93  1  0  0  0
  5  6  1  0  0  0
  5 26  1  0  0  0
  5 94  1  0  0  0
  6 25  1  0  0  0
  6 95  1  0  0  0
  6 96  1  0  0  0
  7  8  2  0  0  0
  7 26  1  0  0  0
  7 29  1  0  0  0
  8  9  1  0  0  0
  8 22  1  0  0  0
  9 10  1  0  0  0
  9 27  2  0  0  0
 10 11  2  0  0  0
 10 15  1  0  0  0
 11 12  1  0  0  0
 11 97  1  0  0  0
 12 13  2  0  0  0
 12 98  1  0  0  0
 13 14  1  0  0  0
 13 31  1  0  0  0
 14 15  2  0  0  0
 14 99  1  0  0  0
 15100  1  0  0  0
 16 17  2  0  0  0
 16 21  1  0  0  0
 16 31  1  0  0  0
 17 18  1  0  0  0
 17101  1  0  0  0
 18 19  2  0  0  0
 18102  1  0  0  0
 19 20  1  0  0  0
 19 24  1  0  0  0
 20 21  2  0  0  0
 20103  1  0  0  0
 21 23  1  0  0  0
 22 28  1  0  0  0
 22 32  2  0  0  0
 26 27  1  0  0  0
 28104  1  0  0  0
 28105  1  0  0  0
 29106  1  0  0  0
 29107  1  0  0  0
 33 34  1  0  0  0
 33 66  1  0  0  0
 33 70  2  0  0  0
 34 36  1  0  0  0
 34 59  1  0  0  0
 34108  1  0  0  0
 35 44  2  0  0  0
 35 45  1  0  0  0
 35 68  1  0  0  0
 36 56  1  0  0  0
 36109  1  0  0  0
 37 39  1  0  0  0
 37 47  1  0  0  0
 37 66  1  0  0  0
 37110  1  0  0  0
 38 43  2  0  0  0
 38 46  1  0  0  0
 38 47  1  0  0  0
 39 64  1  0  0  0
 39 67  2  0  0  0
 40 52  1  0  0  0
 40 53  2  0  0  0
 40 58  1  0  0  0
 41111  1  0  0  0
 41112  1  0  0  0
 41113  1  0  0  0
 41 48  1  0  0  0
 42 43  1  0  0  0
 42 66  1  0  0  0
 42114  1  0  0  0
 42115  1  0  0  0
 43 44  1  0  0  0
 44116  1  0  0  0
 45 46  2  0  0  0
 45117  1  0  0  0
 46118  1  0  0  0
 47119  1  0  0  0
 47120  1  0  0  0
 48 56  1  0  0  0
 48 65  1  0  0  0
 48121  1  0  0  0
 49 50  1  0  0  0
 49 53  1  0  0  0
 49 64  1  0  0  0
 49122  1  0  0  0
 50 51  1  0  0  0
 50123  1  0  0  0
 50124  1  0  0  0
 51 52  1  0  0  0
 51125  1  0  0  0
 51126  1  0  0  0
 52127  1  0  0  0
 52128  1  0  0  0
 53 54  1  0  0  0
 54 55  2  0  0  0
 54129  1  0  0  0
 55 57  1  0  0  0
 55130  1  0  0  0
 56 69  2  0  0  0
 57 58  2  0  0  0
 57131  1  0  0  0
 58132  1  0  0  0
 59 60  1  0  0  0
 59 61  1  0  0  0
 59 62  1  0  0  0
 60133  1  0  0  0
 60134  1  0  0  0
 60135  1  0  0  0
 61136  1  0  0  0
 61137  1  0  0  0
 61138  1  0  0  0
 62139  1  0  0  0
 62140  1  0  0  0
 62141  1  0  0  0
 63 65  1  0  0  0
 63142  1  0  0  0
 63143  1  0  0  0
 63144  1  0  0  0
 64145  1  0  0  0
 65146  1  0  0  0
 68 83  1  0  0  0
 71 77  1  0  0  0
 71 84  1  0  0  0
 71 87  2  0  0  0
 72 74  1  0  0  0
 72147  1  0  0  0
 72148  1  0  0  0
 72 78  1  0  0  0
 73 75  1  0  0  0
 73 78  1  0  0  0
 73149  1  0  0  0
 73150  1  0  0  0
 74 85  1  0  0  0
 74151  1  0  0  0
 74152  1  0  0  0
 75 85  1  0  0  0
 75153  1  0  0  0
 75154  1  0  0  0
 76 79  1  0  0  0
 76 84  1  0  0  0
 76155  1  0  0  0
 76156  1  0  0  0
 77 80  1  0  0  0
 77 86  1  0  0  0
 77157  1  0  0  0
 78158  1  0  0  0
 78 86  1  0  0  0
 79 81  1  0  0  0
 79 86  1  0  0  0
 79159  1  0  0  0
 80160  1  0  0  0
 80161  1  0  0  0
 80162  1  0  0  0
 81163  1  0  0  0
 81164  1  0  0  0
 81165  1  0  0  0
 82 83  1  0  0  0
 82 84  1  0  0  0
 82166  1  0  0  0
 82167  1  0  0  0
 83168  1  0  0  0
 83169  1  0  0  0
 86170  1  0  0  0
M  CHG  1  86   1
M  ISO  4   1 100  68 101  83 101  85 100
M  END
> <chiral flag>
0

> <version>
0

> <s_m_source_file>
/data/baiqing/PycharmProjects/Reinvent-master-3.2/result/LINK_invent/BTK/process_docking_weight1_custom_sum_contain_oxygen_bond_distance_aromatic_linkinvent_7_9_3/rearranged_h_0169.sdf

> <i_m_source_file_index>
38

> <r_mmod_Potential_Energy-OPLS-2005>
175.238098144531

> <r_mmod_Stretch_Energy-OPLS-2005>
54.5182723999023

> <r_mmod_Bend_Energy-OPLS-2005>
131.458389282227

> <r_mmod_Torsional_Energy-OPLS-2005>
413.622436523438

> <r_mmod_Improper_Torsional_Energy-OPLS-2005>
22.3175258636475

> <r_mmod_Van_der_Waal_Energy-OPLS-2005>
153.817031860352

> <r_mmod_Electrostatic_Energy-OPLS-2005>
-163.33251953125

> <r_mmod_Solvation_Energy-OPLS-2005>
-459.302398681641

> <b_mmod_Minimization_Converged-OPLS-2005>
0

> <r_mmod_RMS_Derivative-OPLS-2005>
3.35622358322144

$$$$
38
                    3D
 Structure written by MMmdl.
181191  0  0  1  0            999 V2000
  -30.6594  -14.4904   19.9523 C   0  0  0  0  0  0
  -30.6955  -12.1508   19.4561 C   0  0  0  0  0  0
  -29.6139  -12.0659   18.3905 C   0  0  0  0  0  0
  -28.2502  -12.0611   19.1072 C   0  0  0  0  0  0
  -28.0848  -13.0099   20.4328 C   0  0  2  0  0  0
  -29.2504  -12.8872   21.3084 C   0  0  0  0  0  0
  -24.8868  -15.0982   20.0861 C   0  0  0  0  0  0
  -23.8539  -14.0244   19.7818 C   0  0  0  0  0  0
  -24.5518  -12.3366   19.9414 C   0  0  0  0  0  0
  -23.9861  -10.9738   20.2467 C   0  0  0  0  0  0
  -25.2360   -9.6427   21.0422 C   0  0  0  0  0  0
  -24.5136   -8.1423   21.9610 C   0  0  0  0  0  0
  -22.7055   -7.8248   22.1319 C   0  0  0  0  0  0
  -21.4034   -8.8667   21.5975 C   0  0  0  0  0  0
  -21.6892  -10.3538   20.7583 C   0  0  0  0  0  0
  -21.7343   -5.9021   22.6956 C   0  0  0  0  0  0
  -21.3533   -6.4198   23.9510 C   0  0  0  0  0  0
  -21.2876   -5.5374   25.0254 C   0  0  0  0  0  0
  -21.5494   -4.1747   24.8089 C   0  0  0  0  0  0
  -21.8190   -3.6677   23.5227 C   0  0  0  0  0  0
  -21.8970   -4.5473   22.4430 C   0  0  0  0  0  0
  -22.6684  -14.8274   20.5837 C   0  0  0  0  0  0
  -22.1931   -4.1217   21.1870 F   0  0  0  0  0  0
  -21.5357   -3.3352   25.8601 F   0  0  0  0  0  0
  -30.3384  -13.2331   20.3598 N   0  0  0  0  0  0
  -26.7727  -13.5104   20.8972 N   0  0  0  0  0  0
  -25.9743  -12.1196   20.5787 N   0  0  0  0  0  0
  -22.1389  -14.5932   21.8129 N   0  0  0  0  0  0
  -24.8385  -16.4047   19.6796 N   0  0  0  0  0  0
  -31.7883  -14.9109   20.1836 O   0  0  0  0  0  0
  -22.1471   -6.6782   21.7128 O   0  0  0  0  0  0
  -21.9713  -15.5389   19.9455 O   0  0  0  0  0  0
  -24.7022  -31.7687   23.1419 C   0  0  0  0  0  0
  -25.9535  -32.4256   23.7976 C   0  0  1  0  0  0
  -26.7101  -26.1845   20.5419 C   0  0  0  0  0  0
  -25.6053  -33.8126   24.1809 N   0  0  0  0  0  0
  -23.5229  -30.3857   21.4985 C   0  0  2  0  0  0
  -24.9154  -28.6556   20.1177 C   0  0  0  0  0  0
  -22.7762  -29.4188   22.4595 C   0  0  0  0  0  0
  -18.0347  -28.1420   22.8460 C   0  0  0  0  0  0
  -24.1515  -36.7056   23.2659 C   0  0  0  0  0  0
  -26.0991  -30.3311   21.4871 C   0  0  0  0  0  0
  -26.0663  -28.8486   20.8815 C   0  0  0  0  0  0
  -26.9685  -27.6374   21.0536 C   0  0  0  0  0  0
  -25.7080  -26.3465   19.5558 C   0  0  0  0  0  0
  -24.8271  -27.4588   19.3918 C   0  0  0  0  0  0
  -23.7847  -29.7005   20.1219 C   0  0  0  0  0  0
  -25.4175  -36.2772   24.0260 C   0  0  1  0  0  0
  -20.5983  -28.3777   23.1101 C   0  0  2  0  0  0
  -20.6788  -26.9414   22.5404 C   0  0  0  0  0  0
  -19.5763  -26.6355   21.5219 C   0  0  0  0  0  0
  -18.1954  -26.7949   22.1624 C   0  0  0  0  0  0
  -19.1616  -28.8926   23.2772 C   0  0  0  0  0  0
  -18.9522  -30.1512   23.8817 C   0  0  0  0  0  0
  -17.6508  -30.6598   24.0551 C   0  0  0  0  0  0
  -25.9171  -34.9170   23.4879 C   0  0  0  0  0  0
  -16.5399  -29.9076   23.6351 C   0  0  0  0  0  0
  -16.7329  -28.6501   23.0367 C   0  0  0  0  0  0
  -26.4642  -31.6444   25.0730 C   0  0  0  0  0  0
  -25.3636  -31.3856   26.1298 C   0  0  0  0  0  0
  -27.0619  -30.2735   24.6913 C   0  0  0  0  0  0
  -27.6041  -32.4397   25.7531 C   0  0  0  0  0  0
  -27.5561  -37.1683   24.8466 C   0  0  0  0  0  0
  -21.4403  -29.2986   22.3353 N   0  0  0  0  0  0
  -26.4264  -37.3572   23.9409 N   0  0  0  0  0  0
  -24.8055  -30.8806   22.0885 N   0  0  0  0  0  0
  -23.4120  -28.7800   23.3020 O   0  0  0  0  0  0
  -27.1895  -24.6513   20.8959 O   0  0  0  0  0  0
  -26.5839  -34.8787   22.4517 O   0  0  0  0  0  0
  -23.6010  -32.1002   23.6184 O   0  0  0  0  0  0
  -24.8813  -13.8096   21.7831 C   0  0  0  0  0  0
  -25.6599  -15.5260   22.2603 C   0  0  0  0  0  0
  -26.0774  -13.8138   18.9309 C   0  0  0  0  0  0
  -26.8347  -16.2081   21.4152 C   0  0  0  0  0  0
  -27.1542  -15.0181   18.9350 C   0  0  0  0  0  0
  -27.2402  -17.8068   21.6136 C   0  0  0  0  0  0
  -21.9861  -12.4795   20.1009 C   0  0  0  0  0  0
  -23.3605  -10.2166   22.1932 C   0  0  0  0  0  0
  -22.1580  -11.3274   18.5850 C   0  0  0  0  0  0
  -23.2250   -8.9075   20.1499 C   0  0  0  0  0  0
  -23.2317  -12.3796   21.9432 C   0  0  1  0  0  0
  -25.2799  -17.4081   22.4265 C   0  0  2  0  0  0
  -25.6493  -13.2011   17.5629 C   0  0  0  0  0  0
  -23.7630  -17.6603   22.4357 C   0  0  0  0  0  0
  -21.7681   -8.8027   17.8692 C   0  0  0  0  0  0
  -28.5378  -15.0436   18.2037 C   0  0  0  0  0  0
  -26.4500  -20.7531   21.8135 C   0  0  0  0  0  0
  -26.5835  -22.7573   20.9059 C   0  0  0  0  0  0
  -27.3899  -15.9292   20.0782 N   0  0  0  0  0  0
  -29.8504  -15.1722   19.0344 N   0  0  0  0  0  0
  -26.0919  -18.8281   21.6321 N   0  3  1  0  0  0
  -22.6704   -9.6819   18.6446 N   0  3  1  0  0  0
  -31.6726  -12.3114   18.9960 H   0  0  0  0  0  0
  -30.7705  -11.2125   20.0085 H   0  0  0  0  0  0
  -29.7213  -11.1229   17.8515 H   0  0  0  0  0  0
  -29.7813  -12.8085   17.6237 H   0  0  0  0  0  0
  -28.1521  -11.0494   19.5048 H   0  0  0  0  0  0
  -27.5150  -12.0280   18.3351 H   0  0  0  0  0  0
  -28.3801  -13.9753   20.3957 H   0  0  0  0  0  0
  -29.3534  -11.8752   21.7020 H   0  0  0  0  0  0
  -29.2353  -13.5746   22.1590 H   0  0  0  0  0  0
  -26.3106   -9.7529   20.9878 H   0  0  0  0  0  0
  -25.1992   -7.3623   22.2604 H   0  0  0  0  0  0
  -20.3863   -8.5046   21.6552 H   0  0  0  0  0  0
  -20.6987  -10.7113   20.4917 H   0  0  0  0  0  0
  -21.2040   -7.4749   24.1287 H   0  0  0  0  0  0
  -21.0610   -5.8985   26.0180 H   0  0  0  0  0  0
  -21.9893   -2.6116   23.3772 H   0  0  0  0  0  0
  -22.5831  -13.9870   22.4795 H   0  0  0  0  0  0
  -21.3235  -15.1165   22.0989 H   0  0  0  0  0  0
  -24.2180  -16.5731   18.8975 H   0  0  0  0  0  0
  -25.8106  -16.6097   19.4534 H   0  0  0  0  0  0
  -26.7590  -32.4565   23.0633 H   0  0  0  0  0  0
  -25.0092  -33.9149   24.9890 H   0  0  0  0  0  0
  -22.8658  -31.2384   21.3131 H   0  0  0  0  0  0
  -23.3797  -35.9361   23.3247 H   0  0  0  0  0  0
  -24.3571  -36.8810   22.2085 H   0  0  0  0  0  0
  -23.7258  -37.6195   23.6813 H   0  0  0  0  0  0
  -26.3640  -30.9994   20.6673 H   0  0  0  0  0  0
  -26.9444  -30.3912   22.1570 H   0  0  0  0  0  0
  -27.7862  -27.7570   21.7504 H   0  0  0  0  0  0
  -25.4439  -25.4585   18.9987 H   0  0  0  0  0  0
  -23.9914  -27.3310   18.7163 H   0  0  0  0  0  0
  -24.0399  -30.4615   19.3839 H   0  0  0  0  0  0
  -22.8664  -29.2380   19.7572 H   0  0  0  0  0  0
  -25.1397  -36.1489   25.0748 H   0  0  0  0  0  0
  -21.0101  -28.3447   24.1219 H   0  0  0  0  0  0
  -20.5628  -26.2414   23.3691 H   0  0  0  0  0  0
  -21.6645  -26.7312   22.1233 H   0  0  0  0  0  0
  -19.6890  -25.6247   21.1292 H   0  0  0  0  0  0
  -19.6708  -27.3133   20.6725 H   0  0  0  0  0  0
  -17.4220  -26.6731   21.4027 H   0  0  0  0  0  0
  -18.0313  -26.0115   22.9036 H   0  0  0  0  0  0
  -19.7997  -30.7355   24.2143 H   0  0  0  0  0  0
  -17.5049  -31.6262   24.5171 H   0  0  0  0  0  0
  -15.5390  -30.2934   23.7705 H   0  0  0  0  0  0
  -15.8747  -28.0773   22.7113 H   0  0  0  0  0  0
  -24.5901  -30.7105   25.7617 H   0  0  0  0  0  0
  -24.8733  -32.3095   26.4375 H   0  0  0  0  0  0
  -25.7759  -30.9271   27.0299 H   0  0  0  0  0  0
  -26.3351  -29.6206   24.2072 H   0  0  0  0  0  0
  -27.4027  -29.7368   25.5777 H   0  0  0  0  0  0
  -27.9373  -30.3750   24.0498 H   0  0  0  0  0  0
  -27.2544  -33.3802   26.1806 H   0  0  0  0  0  0
  -28.3989  -32.6799   25.0452 H   0  0  0  0  0  0
  -28.0577  -31.8754   26.5694 H   0  0  0  0  0  0
  -28.2514  -38.0035   24.7520 H   0  0  0  0  0  0
  -28.1122  -36.2549   24.6292 H   0  0  0  0  0  0
  -27.2275  -37.1305   25.8867 H   0  0  0  0  0  0
  -20.9712  -29.8670   21.6439 H   0  0  0  0  0  0
  -26.0056  -38.2600   24.1427 H   0  0  0  0  0  0
  -27.9479  -18.1243   20.8475 H   0  0  0  0  0  0
  -27.7925  -17.8831   22.5502 H   0  0  0  0  0  0
  -20.9781  -12.5922   20.5206 H   0  0  0  0  0  0
  -21.6367  -13.2333   19.3957 H   0  0  0  0  0  0
  -23.3712   -9.1584   20.6042 H   0  0  0  0  0  0
  -24.1846  -10.1701   23.0903 H   0  0  0  0  0  0
  -21.1885  -11.3302   18.0835 H   0  0  0  0  0  0
  -22.8052  -11.8168   17.8554 H   0  0  0  0  0  0
  -23.2114   -9.7688   21.8693 H   0  0  0  0  0  0
  -23.2861   -7.7124   19.9019 H   0  0  0  0  0  0
  -22.6952  -12.6048   22.8660 H   0  0  0  0  0  0
  -25.5558  -17.5666   23.4720 H   0  0  0  0  0  0
  -24.7354  -13.6769   17.2046 H   0  0  0  0  0  0
  -25.4800  -12.1246   17.5857 H   0  0  0  0  0  0
  -26.4113  -13.3917   16.8070 H   0  0  0  0  0  0
  -23.3122  -17.5062   21.4584 H   0  0  0  0  0  0
  -23.5439  -18.6883   22.7218 H   0  0  0  0  0  0
  -23.2599  -17.0030   23.1437 H   0  0  0  0  0  0
  -21.6358   -9.1901   16.8578 H   0  0  0  0  0  0
  -20.7860   -8.7359   18.3375 H   0  0  0  0  0  0
  -22.1759   -7.7953   17.7853 H   0  0  0  0  0  0
  -28.5129  -15.9738   17.6350 H   0  0  0  0  0  0
  -28.5411  -14.3133   17.4063 H   0  0  0  0  0  0
  -25.8777  -20.9680   22.7150 H   0  0  0  0  0  0
  -27.4722  -20.6668   22.1795 H   0  0  0  0  0  0
  -25.5508  -22.9093   20.5928 H   0  0  0  0  0  0
  -27.0807  -22.4746   19.9780 H   0  0  0  0  0  0
  -30.2880  -16.0549   18.8211 H   0  0  0  0  0  0
  -25.7171  -18.7765   20.6958 H   0  0  0  0  0  0
  -23.5133   -9.6880   18.0890 H   0  0  0  0  0  0
  1 25  1  0  0  0
  1 30  2  0  0  0
  1 90  1  0  0  0
  2  3  1  0  0  0
  2 25  1  0  0  0
  2 93  1  0  0  0
  2 94  1  0  0  0
  3  4  1  0  0  0
  3 95  1  0  0  0
  3 96  1  0  0  0
  4  5  1  0  0  0
  4 97  1  0  0  0
  4 98  1  0  0  0
  5  6  1  0  0  0
  5 26  1  0  0  0
  5 99  1  0  0  0
  6 25  1  0  0  0
  6100  1  0  0  0
  6101  1  0  0  0
  7  8  2  0  0  0
  7 26  1  0  0  0
  7 29  1  0  0  0
  8  9  1  0  0  0
  8 22  1  0  0  0
  9 10  1  0  0  0
  9 27  2  0  0  0
 10 11  2  0  0  0
 10 15  1  0  0  0
 11 12  1  0  0  0
 11102  1  0  0  0
 12 13  2  0  0  0
 12103  1  0  0  0
 13 14  1  0  0  0
 13 31  1  0  0  0
 14 15  2  0  0  0
 14104  1  0  0  0
 15105  1  0  0  0
 16 17  2  0  0  0
 16 21  1  0  0  0
 16 31  1  0  0  0
 17 18  1  0  0  0
 17106  1  0  0  0
 18 19  2  0  0  0
 18107  1  0  0  0
 19 20  1  0  0  0
 19 24  1  0  0  0
 20 21  2  0  0  0
 20108  1  0  0  0
 21 23  1  0  0  0
 22 28  1  0  0  0
 22 32  2  0  0  0
 26 27  1  0  0  0
 28109  1  0  0  0
 28110  1  0  0  0
 29111  1  0  0  0
 29112  1  0  0  0
 33 34  1  0  0  0
 33 66  1  0  0  0
 33 70  2  0  0  0
 34 36  1  0  0  0
 34 59  1  0  0  0
 34113  1  0  0  0
 35 44  2  0  0  0
 35 45  1  0  0  0
 35 68  1  0  0  0
 36 56  1  0  0  0
 36114  1  0  0  0
 37 39  1  0  0  0
 37 47  1  0  0  0
 37 66  1  0  0  0
 37115  1  0  0  0
 38 43  2  0  0  0
 38 46  1  0  0  0
 38 47  1  0  0  0
 39 64  1  0  0  0
 39 67  2  0  0  0
 40 52  1  0  0  0
 40 53  2  0  0  0
 40 58  1  0  0  0
 41116  1  0  0  0
 41117  1  0  0  0
 41118  1  0  0  0
 41 48  1  0  0  0
 42 43  1  0  0  0
 42 66  1  0  0  0
 42119  1  0  0  0
 42120  1  0  0  0
 43 44  1  0  0  0
 44121  1  0  0  0
 45 46  2  0  0  0
 45122  1  0  0  0
 46123  1  0  0  0
 47124  1  0  0  0
 47125  1  0  0  0
 48 56  1  0  0  0
 48 65  1  0  0  0
 48126  1  0  0  0
 49 50  1  0  0  0
 49 53  1  0  0  0
 49 64  1  0  0  0
 49127  1  0  0  0
 50 51  1  0  0  0
 50128  1  0  0  0
 50129  1  0  0  0
 51 52  1  0  0  0
 51130  1  0  0  0
 51131  1  0  0  0
 52132  1  0  0  0
 52133  1  0  0  0
 53 54  1  0  0  0
 54 55  2  0  0  0
 54134  1  0  0  0
 55 57  1  0  0  0
 55135  1  0  0  0
 56 69  2  0  0  0
 57 58  2  0  0  0
 57136  1  0  0  0
 58137  1  0  0  0
 59 60  1  0  0  0
 59 61  1  0  0  0
 59 62  1  0  0  0
 60138  1  0  0  0
 60139  1  0  0  0
 60140  1  0  0  0
 61141  1  0  0  0
 61142  1  0  0  0
 61143  1  0  0  0
 62144  1  0  0  0
 62145  1  0  0  0
 62146  1  0  0  0
 63 65  1  0  0  0
 63147  1  0  0  0
 63148  1  0  0  0
 63149  1  0  0  0
 64150  1  0  0  0
 65151  1  0  0  0
 68 88  1  0  0  0
 71 72  1  0  0  0
 71 73  2  0  0  0
 71 81  1  0  0  0
 72 74  2  0  0  0
 72 82  1  0  0  0
 73 75  1  0  0  0
 73 83  1  0  0  0
 74 76  1  0  0  0
 74 89  1  0  0  0
 75 86  1  0  0  0
 75 89  2  0  0  0
 76 91  1  0  0  0
 76152  1  0  0  0
 76153  1  0  0  0
 77 79  1  0  0  0
 77 81  1  0  0  0
 77154  1  0  0  0
 77155  1  0  0  0
 78 80  1  0  0  0
 78 81  1  0  0  0
 78156  1  0  0  0
 78157  1  0  0  0
 79 92  1  0  0  0
 79158  1  0  0  0
 79159  1  0  0  0
 80 92  1  0  0  0
 80160  1  0  0  0
 80161  1  0  0  0
 81162  1  0  0  0
 82 84  1  0  0  0
 82 91  1  0  0  0
 82163  1  0  0  0
 83164  1  0  0  0
 83165  1  0  0  0
 83166  1  0  0  0
 84167  1  0  0  0
 84168  1  0  0  0
 84169  1  0  0  0
 85170  1  0  0  0
 85171  1  0  0  0
 85172  1  0  0  0
 85 92  1  0  0  0
 86 90  1  0  0  0
 86173  1  0  0  0
 86174  1  0  0  0
 87 88  1  0  0  0
 87175  1  0  0  0
 87176  1  0  0  0
 87 91  1  0  0  0
 88177  1  0  0  0
 88178  1  0  0  0
 90179  1  0  0  0
 91180  1  0  0  0
 92181  1  0  0  0
M  CHG  2  91   1  92   1
M  ISO  4   1 100  68 101  88 101  90 100
M  END
> <chiral flag>
0

> <version>
0

> <s_m_source_file>
/data/baiqing/PycharmProjects/Reinvent-master-3.2/result/LINK_invent/BTK/process_docking_weight1_custom_sum_contain_oxygen_bond_distance_aromatic_linkinvent_7_9_3/rearranged_h_0169.sdf

> <i_m_source_file_index>
39

> <r_mmod_Potential_Energy-OPLS-2005>
36591.78515625

> <r_mmod_Stretch_Energy-OPLS-2005>
20975.30859375

> <r_mmod_Bend_Energy-OPLS-2005>
3275.66821289062

> <r_mmod_Torsional_Energy-OPLS-2005>
812.98388671875

> <r_mmod_Improper_Torsional_Energy-OPLS-2005>
138.2685546875

> <r_mmod_Van_der_Waal_Energy-OPLS-2005>
8724.5791015625

> <r_mmod_Electrostatic_Energy-OPLS-2005>
-381.310791015625

> <r_mmod_Solvation_Energy-OPLS-2005>
-779.699401855469

> <b_mmod_Minimization_Converged-OPLS-2005>
0

> <r_mmod_RMS_Derivative-OPLS-2005>
4.83275699615479

$$$$
39
                    3D
 Structure written by MMmdl.
161170  0  0  1  0            999 V2000
  -30.7216  -14.5814   20.5129 C   0  0  0  0  0  0
  -30.4194  -12.3671   19.4404 C   0  0  0  0  0  0
  -29.4888  -12.4739   18.2155 C   0  0  0  0  0  0
  -28.0206  -12.2794   18.6399 C   0  0  0  0  0  0
  -27.6360  -13.1710   19.8443 C   0  0  2  0  0  0
  -28.6945  -13.0971   20.9771 C   0  0  0  0  0  0
  -25.2513  -13.8028   20.5650 C   0  0  0  0  0  0
  -24.1774  -13.0356   20.9221 C   0  0  0  0  0  0
  -24.6314  -11.6822   20.8798 C   0  0  0  0  0  0
  -23.8989  -10.4241   21.0453 C   0  0  0  0  0  0
  -24.3564   -9.4163   21.9216 C   0  0  0  0  0  0
  -23.6256   -8.2196   22.0764 C   0  0  0  0  0  0
  -22.4243   -8.0245   21.3546 C   0  0  0  0  0  0
  -21.9868   -9.0215   20.4652 C   0  0  0  0  0  0
  -22.7180  -10.2098   20.3080 C   0  0  0  0  0  0
  -21.6833   -6.0718   22.5280 C   0  0  0  0  0  0
  -21.4002   -6.5630   23.8213 C   0  0  0  0  0  0
  -21.3656   -5.6786   24.9177 C   0  0  0  0  0  0
  -21.6045   -4.3049   24.7231 C   0  0  0  0  0  0
  -21.8820   -3.8138   23.4353 C   0  0  0  0  0  0
  -21.9186   -4.6950   22.3406 C   0  0  0  0  0  0
  -22.7816  -13.5200   21.1870 C   0  0  0  0  0  0
  -22.1656   -4.2138   21.0983 F   0  0  0  0  0  0
  -21.5632   -3.4535   25.7745 F   0  0  0  0  0  0
  -30.0111  -13.4125   20.3998 N   0  0  0  0  0  0
  -26.2890  -12.9113   20.3292 N   0  0  0  0  0  0
  -25.9220  -11.6331   20.5822 N   0  0  0  0  0  0
  -22.0439  -12.8226   22.0435 N   0  0  0  0  0  0
  -25.4157  -15.1742   20.3958 N   0  0  0  0  0  0
  -31.9052  -14.6314   20.1689 O   0  0  0  0  0  0
  -21.6610   -6.8847   21.4238 O   0  0  0  0  0  0
  -22.3531  -14.5513   20.6703 O   0  0  0  0  0  0
  -24.6177  -31.8663   23.2084 C   0  0  0  0  0  0
  -25.9062  -32.4812   23.8385 C   0  0  1  0  0  0
  -27.2350  -27.4054   20.1001 C   0  0  0  0  0  0
  -25.5911  -33.8611   24.2318 N   0  0  0  0  0  0
  -23.4062  -30.4907   21.5497 C   0  0  2  0  0  0
  -24.8519  -28.9552   20.1139 C   0  0  0  0  0  0
  -22.7423  -29.4658   22.4981 C   0  0  0  0  0  0
  -18.0277  -28.1376   22.8492 C   0  0  0  0  0  0
  -24.1487  -36.7312   23.2638 C   0  0  0  0  0  0
  -25.9381  -30.8244   21.3646 C   0  0  0  0  0  0
  -26.0147  -29.4572   20.7102 C   0  0  0  0  0  0
  -27.2072  -28.6917   20.6968 C   0  0  0  0  0  0
  -26.0464  -26.9281   19.4958 C   0  0  0  0  0  0
  -24.8647  -27.6916   19.5025 C   0  0  0  0  0  0
  -23.6150  -29.8242   20.1641 C   0  0  0  0  0  0
  -25.4109  -36.3105   24.0335 C   0  0  1  0  0  0
  -20.5868  -28.3669   23.1310 C   0  0  2  0  0  0
  -20.6769  -26.9404   22.5414 C   0  0  0  0  0  0
  -19.5748  -26.6385   21.5211 C   0  0  0  0  0  0
  -18.1926  -26.7923   22.1622 C   0  0  0  0  0  0
  -19.1526  -28.8839   23.2898 C   0  0  0  0  0  0
  -18.9453  -30.1445   23.8908 C   0  0  0  0  0  0
  -17.6455  -30.6583   24.0564 C   0  0  0  0  0  0
  -25.9038  -34.9471   23.5123 C   0  0  0  0  0  0
  -16.5346  -29.9083   23.6326 C   0  0  0  0  0  0
  -16.7266  -28.6499   23.0349 C   0  0  0  0  0  0
  -26.4480  -31.6593   25.0719 C   0  0  0  0  0  0
  -25.3743  -31.3699   26.1464 C   0  0  0  0  0  0
  -27.0313  -30.3035   24.6102 C   0  0  0  0  0  0
  -27.6054  -32.4310   25.7485 C   0  0  0  0  0  0
  -27.5580  -37.1811   24.8465 C   0  0  0  0  0  0
  -21.4148  -29.3036   22.3717 N   0  0  0  0  0  0
  -26.4294  -37.3790   23.9407 N   0  0  0  0  0  0
  -24.6725  -31.0749   22.0992 N   0  0  0  0  0  0
  -23.4185  -28.8202   23.3033 O   0  0  0  0  0  0
  -28.4043  -26.6556   20.1309 O   0  0  0  0  0  0
  -26.5599  -34.8926   22.4684 O   0  0  0  0  0  0
  -23.5365  -32.1424   23.7469 O   0  0  0  0  0  0
  -29.9447  -21.9252   20.4905 C   0  0  0  0  0  0
  -29.9530  -20.4455   18.5928 C   0  0  0  0  0  0
  -29.7227  -23.0164   19.6016 C   0  0  0  0  0  0
  -30.0873  -20.5981   19.9931 C   0  0  0  0  0  0
  -29.6642  -22.7190   18.2183 C   0  0  0  0  0  0
  -28.7642  -17.7004   20.3054 C   0  0  0  0  0  0
  -28.8255  -16.1760   20.2908 C   0  0  0  0  0  0
  -30.8057  -16.9853   21.2680 C   0  0  0  0  0  0
  -30.2177  -18.1116   20.3834 C   0  0  2  0  0  0
  -29.5309  -23.7789   17.1379 C   0  0  0  0  0  0
  -29.6462  -24.4735   20.1205 C   0  0  0  0  0  0
  -28.3158  -25.2396   19.8510 C   0  0  0  0  0  0
  -29.7523  -21.4652   17.7373 N   0  0  0  0  0  0
  -30.0852  -15.7345   20.9050 N   0  0  0  0  0  0
  -30.3694  -19.5009   20.8545 N   0  0  0  0  0  0
  -31.4599  -12.4629   19.1251 H   0  0  0  0  0  0
  -30.3403  -11.3813   19.9014 H   0  0  0  0  0  0
  -29.7620  -11.7265   17.4693 H   0  0  0  0  0  0
  -29.6123  -13.4463   17.7356 H   0  0  0  0  0  0
  -27.8851  -11.2288   18.9004 H   0  0  0  0  0  0
  -27.3545  -12.4717   17.7978 H   0  0  0  0  0  0
  -27.5977  -14.1598   19.4138 H   0  0  0  0  0  0
  -28.7137  -12.0981   21.4149 H   0  0  0  0  0  0
  -28.4457  -13.7715   21.7971 H   0  0  0  0  0  0
  -25.2706   -9.5647   22.4793 H   0  0  0  0  0  0
  -23.9971   -7.4581   22.7472 H   0  0  0  0  0  0
  -21.0805   -8.8724   19.8952 H   0  0  0  0  0  0
  -22.3639  -10.9646   19.6197 H   0  0  0  0  0  0
  -21.1991   -7.6138   23.9712 H   0  0  0  0  0  0
  -21.1480   -6.0519   25.9079 H   0  0  0  0  0  0
  -22.0606   -2.7602   23.2854 H   0  0  0  0  0  0
  -22.4028  -11.9883   22.4838 H   0  0  0  0  0  0
  -21.1069  -13.1290   22.2638 H   0  0  0  0  0  0
  -24.6436  -15.8224   20.5064 H   0  0  0  0  0  0
  -26.2585  -15.6176   20.0564 H   0  0  0  0  0  0
  -26.7133  -32.5515   23.1147 H   0  0  0  0  0  0
  -25.0071  -33.9767   25.0471 H   0  0  0  0  0  0
  -22.6964  -31.3087   21.4107 H   0  0  0  0  0  0
  -23.3742  -35.9653   23.3309 H   0  0  0  0  0  0
  -24.3582  -36.8918   22.2050 H   0  0  0  0  0  0
  -23.7246  -37.6523   23.6647 H   0  0  0  0  0  0
  -26.0538  -31.5904   20.5965 H   0  0  0  0  0  0
  -26.8248  -30.8767   21.9846 H   0  0  0  0  0  0
  -28.1040  -29.0775   21.1615 H   0  0  0  0  0  0
  -26.0026  -25.9636   19.0128 H   0  0  0  0  0  0
  -23.9709  -27.2993   19.0371 H   0  0  0  0  0  0
  -23.7240  -30.5995   19.4047 H   0  0  0  0  0  0
  -22.7379  -29.2455   19.8683 H   0  0  0  0  0  0
  -25.1286  -36.1968   25.0827 H   0  0  0  0  0  0
  -20.9961  -28.3234   24.1431 H   0  0  0  0  0  0
  -20.5675  -26.2276   23.3600 H   0  0  0  0  0  0
  -21.6640  -26.7449   22.1205 H   0  0  0  0  0  0
  -19.6912  -25.6298   21.1234 H   0  0  0  0  0  0
  -19.6687  -27.3202   20.6746 H   0  0  0  0  0  0
  -17.4198  -26.6672   21.4022 H   0  0  0  0  0  0
  -18.0329  -26.0057   22.9012 H   0  0  0  0  0  0
  -19.7929  -30.7258   24.2281 H   0  0  0  0  0  0
  -17.5010  -31.6265   24.5161 H   0  0  0  0  0  0
  -15.5347  -30.2989   23.7643 H   0  0  0  0  0  0
  -15.8666  -28.0823   22.7057 H   0  0  0  0  0  0
  -24.5921  -30.7040   25.7800 H   0  0  0  0  0  0
  -24.8929  -32.2852   26.4916 H   0  0  0  0  0  0
  -25.8097  -30.8867   27.0220 H   0  0  0  0  0  0
  -26.2859  -29.6793   24.1159 H   0  0  0  0  0  0
  -27.4085  -29.7274   25.4562 H   0  0  0  0  0  0
  -27.8694  -30.4353   23.9253 H   0  0  0  0  0  0
  -27.2675  -33.3602   26.2086 H   0  0  0  0  0  0
  -28.3856  -32.6879   25.0308 H   0  0  0  0  0  0
  -28.0730  -31.8417   26.5383 H   0  0  0  0  0  0
  -28.2604  -38.0102   24.7508 H   0  0  0  0  0  0
  -28.1070  -36.2635   24.6296 H   0  0  0  0  0  0
  -27.2300  -37.1468   25.8869 H   0  0  0  0  0  0
  -20.9311  -29.8757   21.6936 H   0  0  0  0  0  0
  -26.0182  -38.2871   24.1397 H   0  0  0  0  0  0
  -30.0319  -22.1110   21.5514 H   0  0  0  0  0  0
  -30.0304  -19.4839   18.1107 H   0  0  0  0  0  0
  -28.2237  -18.0326   21.1939 H   0  0  0  0  0  0
  -28.2483  -18.1059   19.4337 H   0  0  0  0  0  0
  -28.7995  -15.8562   19.2480 H   0  0  0  0  0  0
  -27.9719  -15.7809   20.8345 H   0  0  0  0  0  0
  -30.6156  -17.1808   22.3241 H   0  0  0  0  0  0
  -31.8884  -16.9190   21.1479 H   0  0  0  0  0  0
  -30.6833  -17.9938   19.4041 H   0  0  0  0  0  0
  -29.9904  -24.7231   17.4255 H   0  0  0  0  0  0
  -28.4808  -23.9548   16.9048 H   0  0  0  0  0  0
  -30.0203  -23.4585   16.2176 H   0  0  0  0  0  0
  -30.4719  -25.0283   19.6740 H   0  0  0  0  0  0
  -29.8435  -24.4829   21.1931 H   0  0  0  0  0  0
  -27.5229  -24.7847   20.4473 H   0  0  0  0  0  0
  -28.0310  -25.1306   18.8078 H   0  0  0  0  0  0
  -30.3909  -19.6626   21.8592 H   0  0  0  0  0  0
  1 25  1  0  0  0
  1 30  2  0  0  0
  1 84  1  0  0  0
  2  3  1  0  0  0
  2 25  1  0  0  0
  2 86  1  0  0  0
  2 87  1  0  0  0
  3  4  1  0  0  0
  3 88  1  0  0  0
  3 89  1  0  0  0
  4  5  1  0  0  0
  4 90  1  0  0  0
  4 91  1  0  0  0
  5  6  1  0  0  0
  5 26  1  0  0  0
  5 92  1  0  0  0
  6 25  1  0  0  0
  6 93  1  0  0  0
  6 94  1  0  0  0
  7  8  2  0  0  0
  7 26  1  0  0  0
  7 29  1  0  0  0
  8  9  1  0  0  0
  8 22  1  0  0  0
  9 10  1  0  0  0
  9 27  2  0  0  0
 10 11  2  0  0  0
 10 15  1  0  0  0
 11 12  1  0  0  0
 11 95  1  0  0  0
 12 13  2  0  0  0
 12 96  1  0  0  0
 13 14  1  0  0  0
 13 31  1  0  0  0
 14 15  2  0  0  0
 14 97  1  0  0  0
 15 98  1  0  0  0
 16 17  2  0  0  0
 16 21  1  0  0  0
 16 31  1  0  0  0
 17 18  1  0  0  0
 17 99  1  0  0  0
 18 19  2  0  0  0
 18100  1  0  0  0
 19 20  1  0  0  0
 19 24  1  0  0  0
 20 21  2  0  0  0
 20101  1  0  0  0
 21 23  1  0  0  0
 22 28  1  0  0  0
 22 32  2  0  0  0
 26 27  1  0  0  0
 28102  1  0  0  0
 28103  1  0  0  0
 29104  1  0  0  0
 29105  1  0  0  0
 33 34  1  0  0  0
 33 66  1  0  0  0
 33 70  2  0  0  0
 34 36  1  0  0  0
 34 59  1  0  0  0
 34106  1  0  0  0
 35 44  2  0  0  0
 35 45  1  0  0  0
 35 68  1  0  0  0
 36 56  1  0  0  0
 36107  1  0  0  0
 37 39  1  0  0  0
 37 47  1  0  0  0
 37 66  1  0  0  0
 37108  1  0  0  0
 38 43  2  0  0  0
 38 46  1  0  0  0
 38 47  1  0  0  0
 39 64  1  0  0  0
 39 67  2  0  0  0
 40 52  1  0  0  0
 40 53  2  0  0  0
 40 58  1  0  0  0
 41109  1  0  0  0
 41110  1  0  0  0
 41111  1  0  0  0
 41 48  1  0  0  0
 42 43  1  0  0  0
 42 66  1  0  0  0
 42112  1  0  0  0
 42113  1  0  0  0
 43 44  1  0  0  0
 44114  1  0  0  0
 45 46  2  0  0  0
 45115  1  0  0  0
 46116  1  0  0  0
 47117  1  0  0  0
 47118  1  0  0  0
 48 56  1  0  0  0
 48 65  1  0  0  0
 48119  1  0  0  0
 49 50  1  0  0  0
 49 53  1  0  0  0
 49 64  1  0  0  0
 49120  1  0  0  0
 50 51  1  0  0  0
 50121  1  0  0  0
 50122  1  0  0  0
 51 52  1  0  0  0
 51123  1  0  0  0
 51124  1  0  0  0
 52125  1  0  0  0
 52126  1  0  0  0
 53 54  1  0  0  0
 54 55  2  0  0  0
 54127  1  0  0  0
 55 57  1  0  0  0
 55128  1  0  0  0
 56 69  2  0  0  0
 57 58  2  0  0  0
 57129  1  0  0  0
 58130  1  0  0  0
 59 60  1  0  0  0
 59 61  1  0  0  0
 59 62  1  0  0  0
 60131  1  0  0  0
 60132  1  0  0  0
 60133  1  0  0  0
 61134  1  0  0  0
 61135  1  0  0  0
 61136  1  0  0  0
 62137  1  0  0  0
 62138  1  0  0  0
 62139  1  0  0  0
 63 65  1  0  0  0
 63140  1  0  0  0
 63141  1  0  0  0
 63142  1  0  0  0
 64143  1  0  0  0
 65144  1  0  0  0
 68 82  1  0  0  0
 71 73  2  0  0  0
 71 74  1  0  0  0
 71145  1  0  0  0
 72 74  2  0  0  0
 72 83  1  0  0  0
 72146  1  0  0  0
 73 75  1  0  0  0
 73 81  1  0  0  0
 74 85  1  0  0  0
 75 80  1  0  0  0
 75 83  2  0  0  0
 76 77  1  0  0  0
 76 79  1  0  0  0
 76147  1  0  0  0
 76148  1  0  0  0
 77 84  1  0  0  0
 77149  1  0  0  0
 77150  1  0  0  0
 78 79  1  0  0  0
 78 84  1  0  0  0
 78151  1  0  0  0
 78152  1  0  0  0
 79 85  1  0  0  0
 79153  1  0  0  0
 80154  1  0  0  0
 80155  1  0  0  0
 80156  1  0  0  0
 81 82  1  0  0  0
 81157  1  0  0  0
 81158  1  0  0  0
 82159  1  0  0  0
 82160  1  0  0  0
 85161  1  0  0  0
M  ISO  4   1 100  68 101  82 101  84 100
M  END
> <chiral flag>
0

> <version>
0

> <s_m_source_file>
/data/baiqing/PycharmProjects/Reinvent-master-3.2/result/LINK_invent/BTK/process_docking_weight1_custom_sum_contain_oxygen_bond_distance_aromatic_linkinvent_7_9_3/rearranged_h_0169.sdf

> <i_m_source_file_index>
40

> <r_mmod_Potential_Energy-OPLS-2005>
40.3635787963867

> <r_mmod_Stretch_Energy-OPLS-2005>
50.6997718811035

> <r_mmod_Bend_Energy-OPLS-2005>
149.012405395508

> <r_mmod_Torsional_Energy-OPLS-2005>
296.596954345703

> <r_mmod_Improper_Torsional_Energy-OPLS-2005>
6.69611024856567

> <r_mmod_Van_der_Waal_Energy-OPLS-2005>
166.797561645508

> <r_mmod_Electrostatic_Energy-OPLS-2005>
-432.974395751953

> <r_mmod_Solvation_Energy-OPLS-2005>
-228.349029541016

> <b_mmod_Minimization_Converged-OPLS-2005>
0

> <r_mmod_RMS_Derivative-OPLS-2005>
0.368757516145706

$$$$
40
                    3D
 Structure written by MMmdl.
178189  0  0  1  0            999 V2000
  -30.5016  -15.2046   20.3468 C   0  0  0  0  0  0
  -30.4202  -12.7654   19.5011 C   0  0  0  0  0  0
  -29.5139  -12.5540   18.2672 C   0  0  0  0  0  0
  -28.0615  -12.3017   18.7020 C   0  0  0  0  0  0
  -27.6062  -13.2769   19.8171 C   0  0  2  0  0  0
  -28.6493  -13.4581   20.9401 C   0  0  0  0  0  0
  -25.2398  -13.8287   20.5773 C   0  0  0  0  0  0
  -24.1734  -13.0458   20.9262 C   0  0  0  0  0  0
  -24.6388  -11.6956   20.8772 C   0  0  0  0  0  0
  -23.9092  -10.4299   21.0411 C   0  0  0  0  0  0
  -24.3633   -9.4209   21.9188 C   0  0  0  0  0  0
  -23.6311   -8.2242   22.0757 C   0  0  0  0  0  0
  -22.4294   -8.0278   21.3537 C   0  0  0  0  0  0
  -21.9925   -9.0255   20.4644 C   0  0  0  0  0  0
  -22.7261  -10.2138   20.3057 C   0  0  0  0  0  0
  -21.6867   -6.0732   22.5263 C   0  0  0  0  0  0
  -21.4030   -6.5637   23.8196 C   0  0  0  0  0  0
  -21.3668   -5.6791   24.9160 C   0  0  0  0  0  0
  -21.6050   -4.3052   24.7215 C   0  0  0  0  0  0
  -21.8825   -3.8142   23.4338 C   0  0  0  0  0  0
  -21.9203   -4.6957   22.3391 C   0  0  0  0  0  0
  -22.7751  -13.5204   21.1885 C   0  0  0  0  0  0
  -22.1662   -4.2139   21.0970 F   0  0  0  0  0  0
  -21.5624   -3.4542   25.7735 F   0  0  0  0  0  0
  -29.8787  -13.9316   20.2891 N   0  0  0  0  0  0
  -26.2806  -12.9547   20.3253 N   0  0  0  0  0  0
  -25.9333  -11.6648   20.5754 N   0  0  0  0  0  0
  -22.0409  -12.8178   22.0444 N   0  0  0  0  0  0
  -25.4091  -15.2011   20.4221 N   0  0  0  0  0  0
  -31.7245  -15.1319   20.1507 O   0  0  0  0  0  0
  -21.6655   -6.8874   21.4226 O   0  0  0  0  0  0
  -22.3424  -14.5494   20.6725 O   0  0  0  0  0  0
  -24.6585  -31.8284   23.1727 C   0  0  0  0  0  0
  -25.9286  -32.4613   23.8180 C   0  0  1  0  0  0
  -27.2021  -26.9711   20.1685 C   0  0  0  0  0  0
  -25.5968  -33.8428   24.2095 N   0  0  0  0  0  0
  -23.4680  -30.4425   21.5221 C   0  0  2  0  0  0
  -24.9145  -28.8343   20.1101 C   0  0  0  0  0  0
  -22.7633  -29.4471   22.4796 C   0  0  0  0  0  0
  -18.0324  -28.1401   22.8472 C   0  0  0  0  0  0
  -24.1494  -36.7225   23.2643 C   0  0  0  0  0  0
  -26.0336  -30.6491   21.3916 C   0  0  0  0  0  0
  -26.0987  -29.2432   20.7365 C   0  0  0  0  0  0
  -27.2403  -28.3317   20.7381 C   0  0  0  0  0  0
  -25.9903  -26.6993   19.4987 C   0  0  0  0  0  0
  -24.8826  -27.5839   19.4724 C   0  0  0  0  0  0
  -23.7024  -29.7610   20.1464 C   0  0  0  0  0  0
  -25.4133  -36.2983   24.0301 C   0  0  1  0  0  0
  -20.5941  -28.3743   23.1208 C   0  0  2  0  0  0
  -20.6798  -26.9431   22.5405 C   0  0  0  0  0  0
  -19.5771  -26.6374   21.5214 C   0  0  0  0  0  0
  -18.1956  -26.7937   22.1625 C   0  0  0  0  0  0
  -19.1582  -28.8891   23.2834 C   0  0  0  0  0  0
  -18.9490  -30.1479   23.8871 C   0  0  0  0  0  0
  -17.6485  -30.6594   24.0555 C   0  0  0  0  0  0
  -25.9094  -34.9365   23.5020 C   0  0  0  0  0  0
  -16.5377  -29.9085   23.6337 C   0  0  0  0  0  0
  -16.7308  -28.6502   23.0365 C   0  0  0  0  0  0
  -26.4550  -31.6536   25.0691 C   0  0  0  0  0  0
  -25.3684  -31.3780   26.1354 C   0  0  0  0  0  0
  -27.0417  -30.2904   24.6366 C   0  0  0  0  0  0
  -27.6042  -32.4334   25.7501 C   0  0  0  0  0  0
  -27.5581  -37.1767   24.8461 C   0  0  0  0  0  0
  -21.4309  -29.3046   22.3557 N   0  0  0  0  0  0
  -26.4282  -37.3716   23.9413 N   0  0  0  0  0  0
  -24.7412  -30.9993   22.0829 N   0  0  0  0  0  0
  -23.4217  -28.8049   23.3022 O   0  0  0  0  0  0
  -28.2277  -25.9079   20.2334 O   0  0  0  0  0  0
  -26.5700  -34.8884   22.4614 O   0  0  0  0  0  0
  -23.5671  -32.1232   23.6855 O   0  0  0  0  0  0
  -31.0642  -22.2123   20.3535 C   0  0  0  0  0  0
  -31.2397  -23.4705   20.9943 C   0  0  0  0  0  0
  -29.7236  -21.8360   20.3950 C   0  0  0  0  0  0
  -30.0330  -23.8159   21.5063 C   0  0  0  0  0  0
  -32.8349  -20.1881   20.4987 C   0  0  0  0  0  0
  -33.6406  -21.4422   20.3611 C   0  0  0  0  0  0
  -32.7096  -25.6579   20.7893 C   0  0  0  0  0  0
  -33.4731  -24.5644   20.0963 C   0  0  0  0  0  0
  -28.6906  -19.0115   21.1486 C   0  0  0  0  0  0
  -29.7906  -19.1424   19.0423 C   0  0  0  0  0  0
  -29.2562  -17.4319   21.3273 C   0  0  0  0  0  0
  -30.3969  -17.6072   19.2604 C   0  0  0  0  0  0
  -32.2287  -21.3908   19.7960 C   0  0  0  0  0  0
  -32.5345  -24.2214   21.2387 C   0  0  0  0  0  0
  -29.4894  -20.1073   20.2804 C   0  0  0  0  0  0
  -28.3776  -24.1691   23.4256 C   0  0  0  0  0  0
  -29.8815  -26.1244   22.7731 C   0  0  0  0  0  0
  -27.9606  -24.3315   20.1539 C   0  0  0  0  0  0
  -29.7028  -24.5959   22.7693 C   0  0  0  0  0  0
  -29.1172  -23.2667   20.6061 N   0  0  0  0  0  0
  -29.8416  -16.5337   20.2152 N   0  0  0  0  0  0
  -31.4412  -12.9352   19.1601 H   0  0  0  0  0  0
  -30.4662  -11.8627   20.1131 H   0  0  0  0  0  0
  -29.8698  -11.7162   17.6657 H   0  0  0  0  0  0
  -29.5616  -13.4359   17.6249 H   0  0  0  0  0  0
  -27.9977  -11.2742   19.0623 H   0  0  0  0  0  0
  -27.3904  -12.3630   17.8444 H   0  0  0  0  0  0
  -27.5185  -14.2434   19.3183 H   0  0  0  0  0  0
  -28.8114  -12.5360   21.5010 H   0  0  0  0  0  0
  -28.3093  -14.2105   21.6540 H   0  0  0  0  0  0
  -25.2772   -9.5693   22.4779 H   0  0  0  0  0  0
  -24.0018   -7.4634   22.7486 H   0  0  0  0  0  0
  -21.0856   -8.8775   19.8944 H   0  0  0  0  0  0
  -22.3712  -10.9677   19.6168 H   0  0  0  0  0  0
  -21.2025   -7.6146   23.9708 H   0  0  0  0  0  0
  -21.1485   -6.0510   25.9063 H   0  0  0  0  0  0
  -22.0604   -2.7604   23.2841 H   0  0  0  0  0  0
  -22.4058  -11.9855   22.4829 H   0  0  0  0  0  0
  -21.1019  -13.1174   22.2648 H   0  0  0  0  0  0
  -24.6518  -15.8633   20.5494 H   0  0  0  0  0  0
  -26.2716  -15.6400   20.1238 H   0  0  0  0  0  0
  -26.7357  -32.5165   23.0898 H   0  0  0  0  0  0
  -25.0060  -33.9521   25.0206 H   0  0  0  0  0  0
  -22.7787  -31.2734   21.3566 H   0  0  0  0  0  0
  -23.3766  -35.9545   23.3256 H   0  0  0  0  0  0
  -24.3571  -36.8922   22.2066 H   0  0  0  0  0  0
  -23.7241  -37.6396   23.6731 H   0  0  0  0  0  0
  -26.2040  -31.3911   20.6112 H   0  0  0  0  0  0
  -26.8978  -30.7066   22.0412 H   0  0  0  0  0  0
  -28.1423  -28.6415   21.2456 H   0  0  0  0  0  0
  -25.8671  -25.7444   19.0085 H   0  0  0  0  0  0
  -23.9807  -27.2705   18.9643 H   0  0  0  0  0  0
  -23.8547  -30.5301   19.3885 H   0  0  0  0  0  0
  -22.8106  -29.2166   19.8321 H   0  0  0  0  0  0
  -25.1324  -36.1773   25.0792 H   0  0  0  0  0  0
  -21.0040  -28.3339   24.1326 H   0  0  0  0  0  0
  -20.5671  -26.2364   23.3638 H   0  0  0  0  0  0
  -21.6662  -26.7407   22.1213 H   0  0  0  0  0  0
  -19.6925  -25.6275   21.1275 H   0  0  0  0  0  0
  -19.6704  -27.3157   20.6723 H   0  0  0  0  0  0
  -17.4221  -26.6690   21.4033 H   0  0  0  0  0  0
  -18.0345  -26.0084   22.9027 H   0  0  0  0  0  0
  -19.7968  -30.7302   24.2232 H   0  0  0  0  0  0
  -17.5038  -31.6269   24.5162 H   0  0  0  0  0  0
  -15.5378  -30.2979   23.7662 H   0  0  0  0  0  0
  -15.8710  -28.0802   22.7106 H   0  0  0  0  0  0
  -24.5865  -30.7135   25.7661 H   0  0  0  0  0  0
  -24.8874  -32.2981   26.4683 H   0  0  0  0  0  0
  -25.7910  -30.9002   27.0202 H   0  0  0  0  0  0
  -26.3044  -29.6612   24.1365 H   0  0  0  0  0  0
  -27.3961  -29.7238   25.4990 H   0  0  0  0  0  0
  -27.8992  -30.4100   23.9740 H   0  0  0  0  0  0
  -27.2603  -33.3667   26.1981 H   0  0  0  0  0  0
  -28.3907  -32.6852   25.0372 H   0  0  0  0  0  0
  -28.0650  -31.8529   26.5508 H   0  0  0  0  0  0
  -28.2552  -38.0106   24.7520 H   0  0  0  0  0  0
  -28.1118  -36.2627   24.6253 H   0  0  0  0  0  0
  -27.2300  -37.1367   25.8864 H   0  0  0  0  0  0
  -20.9545  -29.8756   21.6712 H   0  0  0  0  0  0
  -26.0125  -38.2773   24.1424 H   0  0  0  0  0  0
  -32.5057  -19.9422   21.5066 H   0  0  0  0  0  0
  -33.1290  -19.3413   19.8828 H   0  0  0  0  0  0
  -34.4641  -21.4444   19.6503 H   0  0  0  0  0  0
  -33.8390  -21.9590   21.2956 H   0  0  0  0  0  0
  -31.8926  -26.1227   20.2393 H   0  0  0  0  0  0
  -33.2754  -26.3263   21.4351 H   0  0  0  0  0  0
  -34.5433  -24.4952   20.2850 H   0  0  0  0  0  0
  -33.1631  -24.3140   19.0834 H   0  0  0  0  0  0
  -28.5645  -19.4170   22.1525 H   0  0  0  0  0  0
  -27.6728  -18.9629   20.7575 H   0  0  0  0  0  0
  -28.8722  -19.0647   18.4574 H   0  0  0  0  0  0
  -30.4786  -19.6662   18.3797 H   0  0  0  0  0  0
  -30.0396  -17.4645   22.0856 H   0  0  0  0  0  0
  -28.4532  -16.8547   21.7855 H   0  0  0  0  0  0
  -31.4489  -17.7191   19.5249 H   0  0  0  0  0  0
  -30.4081  -17.1337   18.2771 H   0  0  0  0  0  0
  -32.1451  -21.3426   18.7126 H   0  0  0  0  0  0
  -32.9701  -23.9506   22.1988 H   0  0  0  0  0  0
  -30.3850  -19.8778   20.8411 H   0  0  0  0  0  0
  -28.3128  -23.0825   23.4976 H   0  0  0  0  0  0
  -27.5064  -24.5179   22.8749 H   0  0  0  0  0  0
  -28.2954  -24.5646   24.4378 H   0  0  0  0  0  0
  -30.8613  -26.4289   22.4190 H   0  0  0  0  0  0
  -29.7964  -26.5043   23.7911 H   0  0  0  0  0  0
  -29.1339  -26.6573   22.2009 H   0  0  0  0  0  0
  -27.0626  -24.0946   20.7247 H   0  0  0  0  0  0
  -27.7261  -24.1008   19.1150 H   0  0  0  0  0  0
  -30.4563  -24.2582   23.4832 H   0  0  0  0  0  0
  1 25  1  0  0  0
  1 30  2  0  0  0
  1 91  1  0  0  0
  2  3  1  0  0  0
  2 25  1  0  0  0
  2 92  1  0  0  0
  2 93  1  0  0  0
  3  4  1  0  0  0
  3 94  1  0  0  0
  3 95  1  0  0  0
  4  5  1  0  0  0
  4 96  1  0  0  0
  4 97  1  0  0  0
  5  6  1  0  0  0
  5 26  1  0  0  0
  5 98  1  0  0  0
  6 25  1  0  0  0
  6 99  1  0  0  0
  6100  1  0  0  0
  7  8  2  0  0  0
  7 26  1  0  0  0
  7 29  1  0  0  0
  8  9  1  0  0  0
  8 22  1  0  0  0
  9 10  1  0  0  0
  9 27  2  0  0  0
 10 11  2  0  0  0
 10 15  1  0  0  0
 11 12  1  0  0  0
 11101  1  0  0  0
 12 13  2  0  0  0
 12102  1  0  0  0
 13 14  1  0  0  0
 13 31  1  0  0  0
 14 15  2  0  0  0
 14103  1  0  0  0
 15104  1  0  0  0
 16 17  2  0  0  0
 16 21  1  0  0  0
 16 31  1  0  0  0
 17 18  1  0  0  0
 17105  1  0  0  0
 18 19  2  0  0  0
 18106  1  0  0  0
 19 20  1  0  0  0
 19 24  1  0  0  0
 20 21  2  0  0  0
 20107  1  0  0  0
 21 23  1  0  0  0
 22 28  1  0  0  0
 22 32  2  0  0  0
 26 27  1  0  0  0
 28108  1  0  0  0
 28109  1  0  0  0
 29110  1  0  0  0
 29111  1  0  0  0
 33 34  1  0  0  0
 33 66  1  0  0  0
 33 70  2  0  0  0
 34 36  1  0  0  0
 34 59  1  0  0  0
 34112  1  0  0  0
 35 44  2  0  0  0
 35 45  1  0  0  0
 35 68  1  0  0  0
 36 56  1  0  0  0
 36113  1  0  0  0
 37 39  1  0  0  0
 37 47  1  0  0  0
 37 66  1  0  0  0
 37114  1  0  0  0
 38 43  2  0  0  0
 38 46  1  0  0  0
 38 47  1  0  0  0
 39 64  1  0  0  0
 39 67  2  0  0  0
 40 52  1  0  0  0
 40 53  2  0  0  0
 40 58  1  0  0  0
 41115  1  0  0  0
 41116  1  0  0  0
 41117  1  0  0  0
 41 48  1  0  0  0
 42 43  1  0  0  0
 42 66  1  0  0  0
 42118  1  0  0  0
 42119  1  0  0  0
 43 44  1  0  0  0
 44120  1  0  0  0
 45 46  2  0  0  0
 45121  1  0  0  0
 46122  1  0  0  0
 47123  1  0  0  0
 47124  1  0  0  0
 48 56  1  0  0  0
 48 65  1  0  0  0
 48125  1  0  0  0
 49 50  1  0  0  0
 49 53  1  0  0  0
 49 64  1  0  0  0
 49126  1  0  0  0
 50 51  1  0  0  0
 50127  1  0  0  0
 50128  1  0  0  0
 51 52  1  0  0  0
 51129  1  0  0  0
 51130  1  0  0  0
 52131  1  0  0  0
 52132  1  0  0  0
 53 54  1  0  0  0
 54 55  2  0  0  0
 54133  1  0  0  0
 55 57  1  0  0  0
 55134  1  0  0  0
 56 69  2  0  0  0
 57 58  2  0  0  0
 57135  1  0  0  0
 58136  1  0  0  0
 59 60  1  0  0  0
 59 61  1  0  0  0
 59 62  1  0  0  0
 60137  1  0  0  0
 60138  1  0  0  0
 60139  1  0  0  0
 61140  1  0  0  0
 61141  1  0  0  0
 61142  1  0  0  0
 62143  1  0  0  0
 62144  1  0  0  0
 62145  1  0  0  0
 63 65  1  0  0  0
 63146  1  0  0  0
 63147  1  0  0  0
 63148  1  0  0  0
 64149  1  0  0  0
 65150  1  0  0  0
 68 88  1  0  0  0
 71 72  1  0  0  0
 71 73  2  0  0  0
 71 83  1  0  0  0
 72 74  2  0  0  0
 72 84  1  0  0  0
 73 90  1  0  0  0
 73 85  1  0  0  0
 74 89  1  0  0  0
 74 90  1  0  0  0
 75 76  1  0  0  0
 75 83  1  0  0  0
 75151  1  0  0  0
 75152  1  0  0  0
 76 83  1  0  0  0
 76153  1  0  0  0
 76154  1  0  0  0
 77 78  1  0  0  0
 77 84  1  0  0  0
 77155  1  0  0  0
 77156  1  0  0  0
 78 84  1  0  0  0
 78157  1  0  0  0
 78158  1  0  0  0
 79 81  1  0  0  0
 79 85  1  0  0  0
 79159  1  0  0  0
 79160  1  0  0  0
 80 82  1  0  0  0
 80 85  1  0  0  0
 80161  1  0  0  0
 80162  1  0  0  0
 81 91  1  0  0  0
 81163  1  0  0  0
 81164  1  0  0  0
 82 91  1  0  0  0
 82165  1  0  0  0
 82166  1  0  0  0
 83167  1  0  0  0
 84168  1  0  0  0
 85169  1  0  0  0
 86170  1  0  0  0
 86171  1  0  0  0
 86172  1  0  0  0
 86 89  1  0  0  0
 87 89  1  0  0  0
 87173  1  0  0  0
 87174  1  0  0  0
 87175  1  0  0  0
 88 90  1  0  0  0
 88176  1  0  0  0
 88177  1  0  0  0
 89178  1  0  0  0
M  ISO  4   1 100  68 101  88 101  91 100
M  END
> <chiral flag>
0

> <version>
0

> <s_m_source_file>
/data/baiqing/PycharmProjects/Reinvent-master-3.2/result/LINK_invent/BTK/process_docking_weight1_custom_sum_contain_oxygen_bond_distance_aromatic_linkinvent_7_9_3/rearranged_h_0169.sdf

> <i_m_source_file_index>
41

> <r_mmod_Potential_Energy-OPLS-2005>
1640.18737792969

> <r_mmod_Stretch_Energy-OPLS-2005>
498.922698974609

> <r_mmod_Bend_Energy-OPLS-2005>
590.678527832031

> <r_mmod_Torsional_Energy-OPLS-2005>
561.946960449219

> <r_mmod_Improper_Torsional_Energy-OPLS-2005>
16.7378196716309

> <r_mmod_Van_der_Waal_Energy-OPLS-2005>
107.403717041016

> <r_mmod_Electrostatic_Energy-OPLS-2005>
-332.644256591797

> <r_mmod_Solvation_Energy-OPLS-2005>
-193.772491455078

> <b_mmod_Minimization_Converged-OPLS-2005>
0

> <r_mmod_RMS_Derivative-OPLS-2005>
2.50327062606812

$$$$
41
                    3D
 Structure written by MMmdl.
169178  0  0  1  0            999 V2000
  -30.7260  -14.4535   20.6731 C   0  0  0  0  0  0
  -30.4269  -12.3391   19.4106 C   0  0  0  0  0  0
  -29.4879  -12.5254   18.2013 C   0  0  0  0  0  0
  -28.0136  -12.3531   18.6145 C   0  0  0  0  0  0
  -27.6598  -13.1838   19.8722 C   0  0  2  0  0  0
  -28.7028  -12.9350   20.9907 C   0  0  0  0  0  0
  -25.2603  -13.8108   20.5661 C   0  0  0  0  0  0
  -24.1830  -13.0419   20.9177 C   0  0  0  0  0  0
  -24.6360  -11.6878   20.8751 C   0  0  0  0  0  0
  -23.9036  -10.4274   21.0424 C   0  0  0  0  0  0
  -24.3595   -9.4193   21.9198 C   0  0  0  0  0  0
  -23.6275   -8.2227   22.0758 C   0  0  0  0  0  0
  -22.4260   -8.0266   21.3546 C   0  0  0  0  0  0
  -21.9887   -9.0236   20.4649 C   0  0  0  0  0  0
  -22.7215  -10.2115   20.3070 C   0  0  0  0  0  0
  -21.6844   -6.0731   22.5288 C   0  0  0  0  0  0
  -21.3995   -6.5638   23.8219 C   0  0  0  0  0  0
  -21.3658   -5.6791   24.9177 C   0  0  0  0  0  0
  -21.6048   -4.3046   24.7231 C   0  0  0  0  0  0
  -21.8818   -3.8138   23.4353 C   0  0  0  0  0  0
  -21.9183   -4.6962   22.3411 C   0  0  0  0  0  0
  -22.7860  -13.5246   21.1856 C   0  0  0  0  0  0
  -22.1655   -4.2150   21.0988 F   0  0  0  0  0  0
  -21.5642   -3.4534   25.7744 F   0  0  0  0  0  0
  -30.0293  -13.2945   20.4634 N   0  0  0  0  0  0
  -26.2999  -12.9224   20.3335 N   0  0  0  0  0  0
  -25.9270  -11.6417   20.5760 N   0  0  0  0  0  0
  -22.0480  -12.8251   22.0413 N   0  0  0  0  0  0
  -25.4346  -15.1830   20.4054 N   0  0  0  0  0  0
  -31.7926  -14.6721   20.0858 O   0  0  0  0  0  0
  -21.6628   -6.8865   21.4242 O   0  0  0  0  0  0
  -22.3560  -14.5559   20.6712 O   0  0  0  0  0  0
  -24.6118  -31.8700   23.2130 C   0  0  0  0  0  0
  -25.9029  -32.4839   23.8407 C   0  0  1  0  0  0
  -27.2393  -27.4566   20.1007 C   0  0  0  0  0  0
  -25.5891  -33.8632   24.2356 N   0  0  0  0  0  0
  -23.3986  -30.4923   21.5520 C   0  0  2  0  0  0
  -24.8492  -28.9564   20.1199 C   0  0  0  0  0  0
  -22.7390  -29.4662   22.5009 C   0  0  0  0  0  0
  -18.0270  -28.1378   22.8470 C   0  0  0  0  0  0
  -24.1491  -36.7310   23.2640 C   0  0  0  0  0  0
  -25.9241  -30.8406   21.3650 C   0  0  0  0  0  0
  -26.0049  -29.4719   20.7227 C   0  0  0  0  0  0
  -27.2032  -28.7258   20.7200 C   0  0  0  0  0  0
  -26.0753  -26.9537   19.4878 C   0  0  0  0  0  0
  -24.8771  -27.6923   19.5017 C   0  0  0  0  0  0
  -23.6098  -29.8210   20.1670 C   0  0  0  0  0  0
  -25.4102  -36.3116   24.0356 C   0  0  1  0  0  0
  -20.5853  -28.3647   23.1338 C   0  0  2  0  0  0
  -20.6770  -26.9387   22.5411 C   0  0  0  0  0  0
  -19.5750  -26.6371   21.5205 C   0  0  0  0  0  0
  -18.1922  -26.7930   22.1604 C   0  0  0  0  0  0
  -19.1513  -28.8820   23.2915 C   0  0  0  0  0  0
  -18.9450  -30.1430   23.8923 C   0  0  0  0  0  0
  -17.6458  -30.6584   24.0552 C   0  0  0  0  0  0
  -25.9013  -34.9483   23.5142 C   0  0  0  0  0  0
  -16.5347  -29.9085   23.6327 C   0  0  0  0  0  0
  -16.7261  -28.6507   23.0332 C   0  0  0  0  0  0
  -26.4472  -31.6600   25.0717 C   0  0  0  0  0  0
  -25.3767  -31.3721   26.1495 C   0  0  0  0  0  0
  -27.0276  -30.3044   24.6057 C   0  0  0  0  0  0
  -27.6064  -32.4297   25.7466 C   0  0  0  0  0  0
  -27.5593  -37.1796   24.8461 C   0  0  0  0  0  0
  -21.4120  -29.3033   22.3759 N   0  0  0  0  0  0
  -26.4297  -37.3791   23.9427 N   0  0  0  0  0  0
  -24.6629  -31.0802   22.1034 N   0  0  0  0  0  0
  -23.4179  -28.8200   23.3036 O   0  0  0  0  0  0
  -28.3876  -26.7064   20.0243 O   0  0  0  0  0  0
  -26.5560  -34.8923   22.4695 O   0  0  0  0  0  0
  -23.5321  -32.1437   23.7542 O   0  0  0  0  0  0
  -29.5844  -24.2940   22.6612 C   0  0  0  0  0  0
  -28.4354  -23.9244   20.5604 C   0  0  0  0  0  0
  -28.9979  -24.8183   21.4930 C   0  0  0  0  0  0
  -29.6116  -22.9020   22.9087 C   0  0  0  0  0  0
  -29.0403  -21.9986   21.9689 C   0  0  0  0  0  0
  -28.4498  -22.5338   20.7912 C   0  0  0  0  0  0
  -31.4563  -17.4763   22.1631 C   0  0  0  0  0  0
  -29.0855  -17.4509   21.3349 C   0  0  0  0  0  0
  -31.2951  -15.9811   22.5388 C   0  0  0  0  0  0
  -29.0078  -15.9664   21.7533 C   0  0  0  0  0  0
  -30.1040  -18.2344   22.1971 C   0  0  0  0  0  0
  -30.2399  -22.4202   24.2072 C   0  0  0  0  0  0
  -30.7086  -19.9835   20.4875 C   0  0  0  0  0  0
  -28.9919  -20.4807   22.2414 C   0  0  0  0  0  0
  -28.9873  -26.3289   21.2637 C   0  0  0  0  0  0
  -30.3182  -15.2894   21.6756 N   0  0  0  0  0  0
  -30.2116  -19.6986   21.8597 N   0  3  1  0  0  0
  -27.7250  -21.5141   19.5970 Cl  0  0  0  0  0  0
  -31.4660  -12.4608   19.0988 H   0  0  0  0  0  0
  -30.3619  -11.3179   19.7904 H   0  0  0  0  0  0
  -29.7417  -11.8122   17.4164 H   0  0  0  0  0  0
  -29.6347  -13.5178   17.7721 H   0  0  0  0  0  0
  -27.8387  -11.2941   18.8069 H   0  0  0  0  0  0
  -27.3569  -12.6237   17.7870 H   0  0  0  0  0  0
  -27.7027  -14.2233   19.5538 H   0  0  0  0  0  0
  -28.7001  -11.8780   21.2618 H   0  0  0  0  0  0
  -28.4484  -13.4455   21.9175 H   0  0  0  0  0  0
  -25.2742   -9.5670   22.4775 H   0  0  0  0  0  0
  -23.9993   -7.4610   22.7461 H   0  0  0  0  0  0
  -21.0831   -8.8747   19.8945 H   0  0  0  0  0  0
  -22.3685  -10.9656   19.6183 H   0  0  0  0  0  0
  -21.1973   -7.6146   23.9726 H   0  0  0  0  0  0
  -21.1491   -6.0516   25.9081 H   0  0  0  0  0  0
  -22.0599   -2.7603   23.2855 H   0  0  0  0  0  0
  -22.4043  -11.9890   22.4806 H   0  0  0  0  0  0
  -21.1091  -13.1292   22.2596 H   0  0  0  0  0  0
  -24.6720  -15.8405   20.5208 H   0  0  0  0  0  0
  -26.2803  -15.6164   20.0598 H   0  0  0  0  0  0
  -26.7099  -32.5555   23.1172 H   0  0  0  0  0  0
  -25.0097  -33.9806   25.0536 H   0  0  0  0  0  0
  -22.6850  -31.3069   21.4094 H   0  0  0  0  0  0
  -23.3764  -35.9628   23.3275 H   0  0  0  0  0  0
  -24.3603  -36.8926   22.2056 H   0  0  0  0  0  0
  -23.7220  -37.6507   23.6650 H   0  0  0  0  0  0
  -26.0286  -31.6054   20.5948 H   0  0  0  0  0  0
  -26.8151  -30.9019   21.9786 H   0  0  0  0  0  0
  -28.0983  -29.1256   21.1757 H   0  0  0  0  0  0
  -26.0989  -25.9883   19.0018 H   0  0  0  0  0  0
  -23.9910  -27.2901   19.0298 H   0  0  0  0  0  0
  -23.7179  -30.5942   19.4053 H   0  0  0  0  0  0
  -22.7364  -29.2377   19.8709 H   0  0  0  0  0  0
  -25.1279  -36.1989   25.0853 H   0  0  0  0  0  0
  -20.9925  -28.3201   24.1468 H   0  0  0  0  0  0
  -20.5646  -26.2259   23.3588 H   0  0  0  0  0  0
  -21.6648  -26.7423   22.1212 H   0  0  0  0  0  0
  -19.6913  -25.6282   21.1233 H   0  0  0  0  0  0
  -19.6721  -27.3190   20.6746 H   0  0  0  0  0  0
  -17.4192  -26.6679   21.4003 H   0  0  0  0  0  0
  -18.0299  -26.0071   22.8989 H   0  0  0  0  0  0
  -19.7935  -30.7234   24.2303 H   0  0  0  0  0  0
  -17.5022  -31.6271   24.5140 H   0  0  0  0  0  0
  -15.5353  -30.3003   23.7659 H   0  0  0  0  0  0
  -15.8648  -28.0844   22.7038 H   0  0  0  0  0  0
  -24.5922  -30.7084   25.7840 H   0  0  0  0  0  0
  -24.9001  -32.2890   26.4959 H   0  0  0  0  0  0
  -25.8133  -30.8869   27.0231 H   0  0  0  0  0  0
  -26.2790  -29.6814   24.1147 H   0  0  0  0  0  0
  -27.4103  -29.7269   25.4480 H   0  0  0  0  0  0
  -27.8602  -30.4350   23.9147 H   0  0  0  0  0  0
  -27.2697  -33.3581   26.2074 H   0  0  0  0  0  0
  -28.3865  -32.6856   25.0288 H   0  0  0  0  0  0
  -28.0745  -31.8404   26.5357 H   0  0  0  0  0  0
  -28.2577  -38.0123   24.7537 H   0  0  0  0  0  0
  -28.1130  -36.2659   24.6240 H   0  0  0  0  0  0
  -27.2331  -37.1382   25.8868 H   0  0  0  0  0  0
  -20.9267  -29.8769   21.7000 H   0  0  0  0  0  0
  -26.0198  -38.2870   24.1453 H   0  0  0  0  0  0
  -30.0131  -24.9787   23.3813 H   0  0  0  0  0  0
  -27.9802  -24.2995   19.6554 H   0  0  0  0  0  0
  -31.9008  -17.5157   21.1696 H   0  0  0  0  0  0
  -32.1687  -17.9473   22.8414 H   0  0  0  0  0  0
  -28.0886  -17.8810   21.4251 H   0  0  0  0  0  0
  -29.3514  -17.5088   20.2795 H   0  0  0  0  0  0
  -30.9636  -15.8930   23.5743 H   0  0  0  0  0  0
  -32.2683  -15.4868   22.5053 H   0  0  0  0  0  0
  -28.2544  -15.5027   21.1321 H   0  0  0  0  0  0
  -28.6359  -15.8852   22.7759 H   0  0  0  0  0  0
  -29.7547  -18.1869   23.2313 H   0  0  0  0  0  0
  -30.8143  -23.2149   24.6861 H   0  0  0  0  0  0
  -30.9244  -21.5901   24.0377 H   0  0  0  0  0  0
  -29.4693  -22.1033   24.9114 H   0  0  0  0  0  0
  -31.6556  -19.4873   20.2849 H   0  0  0  0  0  0
  -30.9037  -21.0474   20.3493 H   0  0  0  0  0  0
  -29.9976  -19.6716   19.7234 H   0  0  0  0  0  0
  -28.1128  -20.0660   21.7523 H   0  0  0  0  0  0
  -28.7946  -20.3320   23.3032 H   0  0  0  0  0  0
  -30.0196  -26.6799   21.2525 H   0  0  0  0  0  0
  -28.5101  -26.8034   22.1225 H   0  0  0  0  0  0
  -30.9328  -20.0518   22.4702 H   0  0  0  0  0  0
  1 25  1  0  0  0
  1 30  2  0  0  0
  1 86  1  0  0  0
  2  3  1  0  0  0
  2 25  1  0  0  0
  2 89  1  0  0  0
  2 90  1  0  0  0
  3  4  1  0  0  0
  3 91  1  0  0  0
  3 92  1  0  0  0
  4  5  1  0  0  0
  4 93  1  0  0  0
  4 94  1  0  0  0
  5  6  1  0  0  0
  5 26  1  0  0  0
  5 95  1  0  0  0
  6 25  1  0  0  0
  6 96  1  0  0  0
  6 97  1  0  0  0
  7  8  2  0  0  0
  7 26  1  0  0  0
  7 29  1  0  0  0
  8  9  1  0  0  0
  8 22  1  0  0  0
  9 10  1  0  0  0
  9 27  2  0  0  0
 10 11  2  0  0  0
 10 15  1  0  0  0
 11 12  1  0  0  0
 11 98  1  0  0  0
 12 13  2  0  0  0
 12 99  1  0  0  0
 13 14  1  0  0  0
 13 31  1  0  0  0
 14 15  2  0  0  0
 14100  1  0  0  0
 15101  1  0  0  0
 16 17  2  0  0  0
 16 21  1  0  0  0
 16 31  1  0  0  0
 17 18  1  0  0  0
 17102  1  0  0  0
 18 19  2  0  0  0
 18103  1  0  0  0
 19 20  1  0  0  0
 19 24  1  0  0  0
 20 21  2  0  0  0
 20104  1  0  0  0
 21 23  1  0  0  0
 22 28  1  0  0  0
 22 32  2  0  0  0
 26 27  1  0  0  0
 28105  1  0  0  0
 28106  1  0  0  0
 29107  1  0  0  0
 29108  1  0  0  0
 33 34  1  0  0  0
 33 66  1  0  0  0
 33 70  2  0  0  0
 34 36  1  0  0  0
 34 59  1  0  0  0
 34109  1  0  0  0
 35 44  2  0  0  0
 35 45  1  0  0  0
 35 68  1  0  0  0
 36 56  1  0  0  0
 36110  1  0  0  0
 37 39  1  0  0  0
 37 47  1  0  0  0
 37 66  1  0  0  0
 37111  1  0  0  0
 38 43  2  0  0  0
 38 46  1  0  0  0
 38 47  1  0  0  0
 39 64  1  0  0  0
 39 67  2  0  0  0
 40 52  1  0  0  0
 40 53  2  0  0  0
 40 58  1  0  0  0
 41112  1  0  0  0
 41113  1  0  0  0
 41114  1  0  0  0
 41 48  1  0  0  0
 42 43  1  0  0  0
 42 66  1  0  0  0
 42115  1  0  0  0
 42116  1  0  0  0
 43 44  1  0  0  0
 44117  1  0  0  0
 45 46  2  0  0  0
 45118  1  0  0  0
 46119  1  0  0  0
 47120  1  0  0  0
 47121  1  0  0  0
 48 56  1  0  0  0
 48 65  1  0  0  0
 48122  1  0  0  0
 49 50  1  0  0  0
 49 53  1  0  0  0
 49 64  1  0  0  0
 49123  1  0  0  0
 50 51  1  0  0  0
 50124  1  0  0  0
 50125  1  0  0  0
 51 52  1  0  0  0
 51126  1  0  0  0
 51127  1  0  0  0
 52128  1  0  0  0
 52129  1  0  0  0
 53 54  1  0  0  0
 54 55  2  0  0  0
 54130  1  0  0  0
 55 57  1  0  0  0
 55131  1  0  0  0
 56 69  2  0  0  0
 57 58  2  0  0  0
 57132  1  0  0  0
 58133  1  0  0  0
 59 60  1  0  0  0
 59 61  1  0  0  0
 59 62  1  0  0  0
 60134  1  0  0  0
 60135  1  0  0  0
 60136  1  0  0  0
 61137  1  0  0  0
 61138  1  0  0  0
 61139  1  0  0  0
 62140  1  0  0  0
 62141  1  0  0  0
 62142  1  0  0  0
 63 65  1  0  0  0
 63143  1  0  0  0
 63144  1  0  0  0
 63145  1  0  0  0
 64146  1  0  0  0
 65147  1  0  0  0
 68 85  1  0  0  0
 71 73  2  0  0  0
 71 74  1  0  0  0
 71148  1  0  0  0
 72 73  1  0  0  0
 72 76  2  0  0  0
 72149  1  0  0  0
 73 85  1  0  0  0
 74 75  2  0  0  0
 74 82  1  0  0  0
 75 76  1  0  0  0
 75 84  1  0  0  0
 76 88  1  0  0  0
 77 79  1  0  0  0
 77150  1  0  0  0
 77151  1  0  0  0
 77 81  1  0  0  0
 78 80  1  0  0  0
 78 81  1  0  0  0
 78152  1  0  0  0
 78153  1  0  0  0
 79 86  1  0  0  0
 79154  1  0  0  0
 79155  1  0  0  0
 80 86  1  0  0  0
 80156  1  0  0  0
 80157  1  0  0  0
 81 87  1  0  0  0
 81158  1  0  0  0
 82159  1  0  0  0
 82160  1  0  0  0
 82161  1  0  0  0
 83162  1  0  0  0
 83163  1  0  0  0
 83164  1  0  0  0
 83 87  1  0  0  0
 84 87  1  0  0  0
 84165  1  0  0  0
 84166  1  0  0  0
 85167  1  0  0  0
 85168  1  0  0  0
 87169  1  0  0  0
M  CHG  1  87   1
M  ISO  4   1 100  68 101  85 101  86 100
M  END
> <chiral flag>
0

> <version>
0

> <s_m_source_file>
/data/baiqing/PycharmProjects/Reinvent-master-3.2/result/LINK_invent/BTK/process_docking_weight1_custom_sum_contain_oxygen_bond_distance_aromatic_linkinvent_7_9_3/rearranged_h_0169.sdf

> <i_m_source_file_index>
42

> <r_mmod_Potential_Energy-OPLS-2005>
65.0076141357422

> <r_mmod_Stretch_Energy-OPLS-2005>
44.7477684020996

> <r_mmod_Bend_Energy-OPLS-2005>
114.57405090332

> <r_mmod_Torsional_Energy-OPLS-2005>
324.243560791016

> <r_mmod_Improper_Torsional_Energy-OPLS-2005>
4.9538106918335

> <r_mmod_Van_der_Waal_Energy-OPLS-2005>
162.215042114258

> <r_mmod_Electrostatic_Energy-OPLS-2005>
-175.050720214844

> <r_mmod_Solvation_Energy-OPLS-2005>
-420.104949951172

> <b_mmod_Minimization_Converged-OPLS-2005>
0

> <r_mmod_RMS_Derivative-OPLS-2005>
2.10410475730896

$$$$
42
                    3D
 Structure written by MMmdl.
162171  0  0  1  0            999 V2000
  -30.6319  -14.7599   20.4401 C   0  0  0  0  0  0
  -30.4212  -12.4696   19.4664 C   0  0  0  0  0  0
  -29.5015  -12.5081   18.2290 C   0  0  0  0  0  0
  -28.0289  -12.3367   18.6467 C   0  0  0  0  0  0
  -27.6347  -13.2430   19.8445 C   0  0  2  0  0  0
  -28.6819  -13.2107   20.9774 C   0  0  0  0  0  0
  -25.2496  -13.8240   20.5718 C   0  0  0  0  0  0
  -24.1791  -13.0462   20.9211 C   0  0  0  0  0  0
  -24.6398  -11.6943   20.8758 C   0  0  0  0  0  0
  -23.9082  -10.4305   21.0411 C   0  0  0  0  0  0
  -24.3623   -9.4217   21.9191 C   0  0  0  0  0  0
  -23.6294   -8.2252   22.0760 C   0  0  0  0  0  0
  -22.4278   -8.0287   21.3542 C   0  0  0  0  0  0
  -21.9926   -9.0267   20.4646 C   0  0  0  0  0  0
  -22.7255  -10.2147   20.3056 C   0  0  0  0  0  0
  -21.6857   -6.0740   22.5279 C   0  0  0  0  0  0
  -21.4019   -6.5639   23.8214 C   0  0  0  0  0  0
  -21.3657   -5.6794   24.9177 C   0  0  0  0  0  0
  -21.6041   -4.3055   24.7226 C   0  0  0  0  0  0
  -21.8823   -3.8151   23.4346 C   0  0  0  0  0  0
  -21.9194   -4.6966   22.3400 C   0  0  0  0  0  0
  -22.7811  -13.5233   21.1859 C   0  0  0  0  0  0
  -22.1660   -4.2148   21.0977 F   0  0  0  0  0  0
  -21.5624   -3.4541   25.7738 F   0  0  0  0  0  0
  -29.9740  -13.5507   20.3759 N   0  0  0  0  0  0
  -26.2913  -12.9458   20.3294 N   0  0  0  0  0  0
  -25.9331  -11.6586   20.5775 N   0  0  0  0  0  0
  -22.0457  -12.8206   22.0406 N   0  0  0  0  0  0
  -25.4223  -15.1957   20.4180 N   0  0  0  0  0  0
  -31.8375  -14.7961   20.1723 O   0  0  0  0  0  0
  -21.6638   -6.8886   21.4240 O   0  0  0  0  0  0
  -22.3500  -14.5544   20.6721 O   0  0  0  0  0  0
  -24.6326  -31.8554   23.1989 C   0  0  0  0  0  0
  -25.9146  -32.4756   23.8343 C   0  0  1  0  0  0
  -27.2119  -27.2642   20.1300 C   0  0  0  0  0  0
  -25.5945  -33.8561   24.2266 N   0  0  0  0  0  0
  -23.4293  -30.4769   21.5443 C   0  0  2  0  0  0
  -24.8755  -28.9240   20.1106 C   0  0  0  0  0  0
  -22.7508  -29.4599   22.4938 C   0  0  0  0  0  0
  -18.0290  -28.1388   22.8501 C   0  0  0  0  0  0
  -24.1487  -36.7277   23.2640 C   0  0  0  0  0  0
  -25.9746  -30.7701   21.3765 C   0  0  0  0  0  0
  -26.0491  -29.3929   20.7174 C   0  0  0  0  0  0
  -27.2267  -28.5757   20.7135 C   0  0  0  0  0  0
  -26.0202  -26.8610   19.4959 C   0  0  0  0  0  0
  -24.8652  -27.6663   19.4877 C   0  0  0  0  0  0
  -23.6453  -29.8102   20.1615 C   0  0  0  0  0  0
  -25.4113  -36.3069   24.0327 C   0  0  1  0  0  0
  -20.5894  -28.3702   23.1277 C   0  0  2  0  0  0
  -20.6775  -26.9425   22.5411 C   0  0  0  0  0  0
  -19.5740  -26.6387   21.5219 C   0  0  0  0  0  0
  -18.1920  -26.7935   22.1627 C   0  0  0  0  0  0
  -19.1545  -28.8863   23.2876 C   0  0  0  0  0  0
  -18.9462  -30.1464   23.8888 C   0  0  0  0  0  0
  -17.6463  -30.6595   24.0560 C   0  0  0  0  0  0
  -25.9063  -34.9442   23.5100 C   0  0  0  0  0  0
  -16.5354  -29.9090   23.6340 C   0  0  0  0  0  0
  -16.7275  -28.6500   23.0376 C   0  0  0  0  0  0
  -26.4509  -31.6589   25.0736 C   0  0  0  0  0  0
  -25.3730  -31.3718   26.1449 C   0  0  0  0  0  0
  -27.0376  -30.3018   24.6224 C   0  0  0  0  0  0
  -27.6064  -32.4335   25.7505 C   0  0  0  0  0  0
  -27.5587  -37.1775   24.8452 C   0  0  0  0  0  0
  -21.4214  -29.3045   22.3676 N   0  0  0  0  0  0
  -26.4274  -37.3783   23.9435 N   0  0  0  0  0  0
  -24.6982  -31.0511   22.0971 N   0  0  0  0  0  0
  -23.4201  -28.8139   23.3044 O   0  0  0  0  0  0
  -28.2653  -26.3257   20.1570 O   0  0  0  0  0  0
  -26.5635  -34.8914   22.4667 O   0  0  0  0  0  0
  -23.5473  -32.1376   23.7282 O   0  0  0  0  0  0
  -27.4986  -22.5344   21.0952 C   0  0  0  0  0  0
  -29.0668  -20.7228   20.4195 C   0  0  0  0  0  0
  -27.8409  -21.1470   21.0193 C   0  0  0  0  0  0
  -28.3294  -23.5706   20.5924 C   0  0  0  0  0  0
  -29.8253  -21.8348   19.8972 C   0  0  0  0  0  0
  -29.5923  -18.3363   21.6862 C   0  0  0  0  0  0
  -28.9764  -18.1727   19.3635 C   0  0  0  0  0  0
  -30.3511  -16.9459   21.5927 C   0  0  0  0  0  0
  -29.6930  -16.7488   19.2864 C   0  0  0  0  0  0
  -29.5967  -19.1852   20.3769 C   0  0  0  0  0  0
  -26.8751  -20.1610   21.6482 C   0  0  0  0  0  0
  -31.1452  -21.6061   19.1840 C   0  0  0  0  0  0
  -28.0042  -25.0981   20.9795 C   0  0  0  0  0  0
  -29.4855  -23.1744   19.9896 N   0  0  0  0  0  0
  -29.9177  -15.9638   20.5475 N   0  0  0  0  0  0
  -31.4604  -12.5893   19.1562 H   0  0  0  0  0  0
  -30.3643  -11.5013   19.9652 H   0  0  0  0  0  0
  -29.7818  -11.7274   17.5201 H   0  0  0  0  0  0
  -29.6272  -13.4574   17.7070 H   0  0  0  0  0  0
  -27.8834  -11.2898   18.9113 H   0  0  0  0  0  0
  -27.3726  -12.5292   17.7973 H   0  0  0  0  0  0
  -27.6178  -14.2606   19.4540 H   0  0  0  0  0  0
  -28.7241  -12.2304   21.4539 H   0  0  0  0  0  0
  -28.4216  -13.9297   21.7567 H   0  0  0  0  0  0
  -25.2761   -9.5691   22.4778 H   0  0  0  0  0  0
  -23.9998   -7.4648   22.7487 H   0  0  0  0  0  0
  -21.0862   -8.8792   19.8949 H   0  0  0  0  0  0
  -22.3710  -10.9694   19.6170 H   0  0  0  0  0  0
  -21.2014   -7.6150   23.9709 H   0  0  0  0  0  0
  -21.1470   -6.0527   25.9076 H   0  0  0  0  0  0
  -22.0599   -2.7611   23.2848 H   0  0  0  0  0  0
  -22.4069  -11.9852   22.4772 H   0  0  0  0  0  0
  -21.1080  -13.1235   22.2621 H   0  0  0  0  0  0
  -24.6664  -15.8597   20.5430 H   0  0  0  0  0  0
  -26.2907  -15.6328   20.1367 H   0  0  0  0  0  0
  -26.7219  -32.5407   23.1093 H   0  0  0  0  0  0
  -25.0088  -33.9704   25.0409 H   0  0  0  0  0  0
  -22.7255  -31.2985   21.3994 H   0  0  0  0  0  0
  -23.3790  -35.9561   23.3214 H   0  0  0  0  0  0
  -24.3596  -36.9003   22.2074 H   0  0  0  0  0  0
  -23.7170  -37.6415   23.6731 H   0  0  0  0  0  0
  -26.1091  -31.5317   20.6060 H   0  0  0  0  0  0
  -26.8536  -30.8217   22.0086 H   0  0  0  0  0  0
  -28.1272  -28.9277   21.1965 H   0  0  0  0  0  0
  -25.9708  -25.8881   19.0261 H   0  0  0  0  0  0
  -23.9656  -27.3012   19.0108 H   0  0  0  0  0  0
  -23.7648  -30.5852   19.4039 H   0  0  0  0  0  0
  -22.7626  -29.2418   19.8611 H   0  0  0  0  0  0
  -25.1281  -36.1908   25.0814 H   0  0  0  0  0  0
  -20.9975  -28.3278   24.1395 H   0  0  0  0  0  0
  -20.5695  -26.2313   23.3612 H   0  0  0  0  0  0
  -21.6636  -26.7450   22.1194 H   0  0  0  0  0  0
  -19.6903  -25.6299   21.1244 H   0  0  0  0  0  0
  -19.6663  -27.3193   20.6745 H   0  0  0  0  0  0
  -17.4196  -26.6712   21.4018 H   0  0  0  0  0  0
  -18.0291  -26.0065   22.9006 H   0  0  0  0  0  0
  -19.7933  -30.7283   24.2253 H   0  0  0  0  0  0
  -17.5014  -31.6273   24.5167 H   0  0  0  0  0  0
  -15.5351  -30.2988   23.7656 H   0  0  0  0  0  0
  -15.8678  -28.0803   22.7110 H   0  0  0  0  0  0
  -24.5884  -30.7109   25.7748 H   0  0  0  0  0  0
  -24.8945  -32.2882   26.4918 H   0  0  0  0  0  0
  -25.8033  -30.8836   27.0207 H   0  0  0  0  0  0
  -26.2972  -29.6739   24.1253 H   0  0  0  0  0  0
  -27.4079  -29.7300   25.4746 H   0  0  0  0  0  0
  -27.8837  -30.4313   23.9467 H   0  0  0  0  0  0
  -27.2703  -33.3685   26.2002 H   0  0  0  0  0  0
  -28.3908  -32.6814   25.0342 H   0  0  0  0  0  0
  -28.0693  -31.8508   26.5479 H   0  0  0  0  0  0
  -28.2523  -38.0157   24.7635 H   0  0  0  0  0  0
  -28.1166  -36.2691   24.6112 H   0  0  0  0  0  0
  -27.2326  -37.1230   25.8855 H   0  0  0  0  0  0
  -20.9417  -29.8778   21.6879 H   0  0  0  0  0  0
  -26.0143  -38.2834   24.1527 H   0  0  0  0  0  0
  -26.5906  -22.8163   21.6107 H   0  0  0  0  0  0
  -30.0331  -18.9250   22.4907 H   0  0  0  0  0  0
  -28.5708  -18.1270   21.9989 H   0  0  0  0  0  0
  -27.9234  -18.0145   19.5938 H   0  0  0  0  0  0
  -28.9889  -18.6182   18.3676 H   0  0  0  0  0  0
  -30.2792  -16.4523   22.5636 H   0  0  0  0  0  0
  -31.4138  -17.1525   21.4478 H   0  0  0  0  0  0
  -30.6630  -16.8921   18.8061 H   0  0  0  0  0  0
  -29.1250  -16.1186   18.5996 H   0  0  0  0  0  0
  -30.6475  -19.2555   20.1029 H   0  0  0  0  0  0
  -25.8690  -20.5777   21.6980 H   0  0  0  0  0  0
  -27.1868  -19.9252   22.6662 H   0  0  0  0  0  0
  -26.8021  -19.2377   21.0788 H   0  0  0  0  0  0
  -31.8795  -21.1724   19.8628 H   0  0  0  0  0  0
  -31.5635  -22.5384   18.8014 H   0  0  0  0  0  0
  -31.0112  -20.9334   18.3365 H   0  0  0  0  0  0
  -28.5561  -25.2678   21.9041 H   0  0  0  0  0  0
  -26.9607  -25.1091   21.2990 H   0  0  0  0  0  0
  1 25  1  0  0  0
  1 30  2  0  0  0
  1 85  1  0  0  0
  2  3  1  0  0  0
  2 25  1  0  0  0
  2 86  1  0  0  0
  2 87  1  0  0  0
  3  4  1  0  0  0
  3 88  1  0  0  0
  3 89  1  0  0  0
  4  5  1  0  0  0
  4 90  1  0  0  0
  4 91  1  0  0  0
  5  6  1  0  0  0
  5 26  1  0  0  0
  5 92  1  0  0  0
  6 25  1  0  0  0
  6 93  1  0  0  0
  6 94  1  0  0  0
  7  8  2  0  0  0
  7 26  1  0  0  0
  7 29  1  0  0  0
  8  9  1  0  0  0
  8 22  1  0  0  0
  9 10  1  0  0  0
  9 27  2  0  0  0
 10 11  2  0  0  0
 10 15  1  0  0  0
 11 12  1  0  0  0
 11 95  1  0  0  0
 12 13  2  0  0  0
 12 96  1  0  0  0
 13 14  1  0  0  0
 13 31  1  0  0  0
 14 15  2  0  0  0
 14 97  1  0  0  0
 15 98  1  0  0  0
 16 17  2  0  0  0
 16 21  1  0  0  0
 16 31  1  0  0  0
 17 18  1  0  0  0
 17 99  1  0  0  0
 18 19  2  0  0  0
 18100  1  0  0  0
 19 20  1  0  0  0
 19 24  1  0  0  0
 20 21  2  0  0  0
 20101  1  0  0  0
 21 23  1  0  0  0
 22 28  1  0  0  0
 22 32  2  0  0  0
 26 27  1  0  0  0
 28102  1  0  0  0
 28103  1  0  0  0
 29104  1  0  0  0
 29105  1  0  0  0
 33 34  1  0  0  0
 33 66  1  0  0  0
 33 70  2  0  0  0
 34 36  1  0  0  0
 34 59  1  0  0  0
 34106  1  0  0  0
 35 44  2  0  0  0
 35 45  1  0  0  0
 35 68  1  0  0  0
 36 56  1  0  0  0
 36107  1  0  0  0
 37 39  1  0  0  0
 37 47  1  0  0  0
 37 66  1  0  0  0
 37108  1  0  0  0
 38 43  2  0  0  0
 38 46  1  0  0  0
 38 47  1  0  0  0
 39 64  1  0  0  0
 39 67  2  0  0  0
 40 52  1  0  0  0
 40 53  2  0  0  0
 40 58  1  0  0  0
 41109  1  0  0  0
 41110  1  0  0  0
 41111  1  0  0  0
 41 48  1  0  0  0
 42 43  1  0  0  0
 42 66  1  0  0  0
 42112  1  0  0  0
 42113  1  0  0  0
 43 44  1  0  0  0
 44114  1  0  0  0
 45 46  2  0  0  0
 45115  1  0  0  0
 46116  1  0  0  0
 47117  1  0  0  0
 47118  1  0  0  0
 48 56  1  0  0  0
 48 65  1  0  0  0
 48119  1  0  0  0
 49 50  1  0  0  0
 49 53  1  0  0  0
 49 64  1  0  0  0
 49120  1  0  0  0
 50 51  1  0  0  0
 50121  1  0  0  0
 50122  1  0  0  0
 51 52  1  0  0  0
 51123  1  0  0  0
 51124  1  0  0  0
 52125  1  0  0  0
 52126  1  0  0  0
 53 54  1  0  0  0
 54 55  2  0  0  0
 54127  1  0  0  0
 55 57  1  0  0  0
 55128  1  0  0  0
 56 69  2  0  0  0
 57 58  2  0  0  0
 57129  1  0  0  0
 58130  1  0  0  0
 59 60  1  0  0  0
 59 61  1  0  0  0
 59 62  1  0  0  0
 60131  1  0  0  0
 60132  1  0  0  0
 60133  1  0  0  0
 61134  1  0  0  0
 61135  1  0  0  0
 61136  1  0  0  0
 62137  1  0  0  0
 62138  1  0  0  0
 62139  1  0  0  0
 63 65  1  0  0  0
 63140  1  0  0  0
 63141  1  0  0  0
 63142  1  0  0  0
 64143  1  0  0  0
 65144  1  0  0  0
 68 83  1  0  0  0
 71 73  2  0  0  0
 71 74  1  0  0  0
 71145  1  0  0  0
 72 73  1  0  0  0
 72 75  2  0  0  0
 72 80  1  0  0  0
 73 81  1  0  0  0
 74 83  1  0  0  0
 74 84  2  0  0  0
 75 82  1  0  0  0
 75 84  1  0  0  0
 76 78  1  0  0  0
 76 80  1  0  0  0
 76146  1  0  0  0
 76147  1  0  0  0
 77 79  1  0  0  0
 77 80  1  0  0  0
 77148  1  0  0  0
 77149  1  0  0  0
 78 85  1  0  0  0
 78150  1  0  0  0
 78151  1  0  0  0
 79 85  1  0  0  0
 79152  1  0  0  0
 79153  1  0  0  0
 80154  1  0  0  0
 81155  1  0  0  0
 81156  1  0  0  0
 81157  1  0  0  0
 82158  1  0  0  0
 82159  1  0  0  0
 82160  1  0  0  0
 83161  1  0  0  0
 83162  1  0  0  0
M  ISO  4   1 100  68 101  83 101  85 100
M  END
> <chiral flag>
0

> <version>
0

> <s_m_source_file>
/data/baiqing/PycharmProjects/Reinvent-master-3.2/result/LINK_invent/BTK/process_docking_weight1_custom_sum_contain_oxygen_bond_distance_aromatic_linkinvent_7_9_3/rearranged_h_0169.sdf

> <i_m_source_file_index>
43

> <r_mmod_Potential_Energy-OPLS-2005>
320.865081787109

> <r_mmod_Stretch_Energy-OPLS-2005>
125.741653442383

> <r_mmod_Bend_Energy-OPLS-2005>
206.114715576172

> <r_mmod_Torsional_Energy-OPLS-2005>
355.559387207031

> <r_mmod_Improper_Torsional_Energy-OPLS-2005>
11.8374128341675

> <r_mmod_Van_der_Waal_Energy-OPLS-2005>
142.443893432617

> <r_mmod_Electrostatic_Energy-OPLS-2005>
-404.858062744141

> <r_mmod_Solvation_Energy-OPLS-2005>
-210.89338684082

> <b_mmod_Minimization_Converged-OPLS-2005>
0

> <r_mmod_RMS_Derivative-OPLS-2005>
1.74376153945923

$$$$
43
                    3D
 Structure written by MMmdl.
171181  0  0  1  0            999 V2000
  -30.7202  -14.5355   20.5466 C   0  0  0  0  0  0
  -30.4224  -12.3448   19.4337 C   0  0  0  0  0  0
  -29.4883  -12.4775   18.2143 C   0  0  0  0  0  0
  -28.0182  -12.2956   18.6381 C   0  0  0  0  0  0
  -27.6424  -13.1731   19.8574 C   0  0  2  0  0  0
  -28.6969  -13.0593   20.9868 C   0  0  0  0  0  0
  -25.2548  -13.8039   20.5682 C   0  0  0  0  0  0
  -24.1789  -13.0374   20.9216 C   0  0  0  0  0  0
  -24.6316  -11.6838   20.8799 C   0  0  0  0  0  0
  -23.8984  -10.4249   21.0446 C   0  0  0  0  0  0
  -24.3565   -9.4171   21.9209 C   0  0  0  0  0  0
  -23.6263   -8.2204   22.0762 C   0  0  0  0  0  0
  -22.4244   -8.0244   21.3551 C   0  0  0  0  0  0
  -21.9859   -9.0206   20.4656 C   0  0  0  0  0  0
  -22.7171  -10.2094   20.3079 C   0  0  0  0  0  0
  -21.6836   -6.0709   22.5291 C   0  0  0  0  0  0
  -21.3989   -6.5617   23.8219 C   0  0  0  0  0  0
  -21.3654   -5.6785   24.9187 C   0  0  0  0  0  0
  -21.6049   -4.3045   24.7243 C   0  0  0  0  0  0
  -21.8819   -3.8125   23.4371 C   0  0  0  0  0  0
  -21.9187   -4.6938   22.3423 C   0  0  0  0  0  0
  -22.7834  -13.5220   21.1866 C   0  0  0  0  0  0
  -22.1659   -4.2121   21.1000 F   0  0  0  0  0  0
  -21.5633   -3.4528   25.7759 F   0  0  0  0  0  0
  -30.0210  -13.3669   20.4180 N   0  0  0  0  0  0
  -26.2923  -12.9123   20.3344 N   0  0  0  0  0  0
  -25.9227  -11.6338   20.5844 N   0  0  0  0  0  0
  -22.0456  -12.8254   22.0431 N   0  0  0  0  0  0
  -25.4259  -15.1743   20.4019 N   0  0  0  0  0  0
  -31.8817  -14.6339   20.1440 O   0  0  0  0  0  0
  -21.6619   -6.8840   21.4247 O   0  0  0  0  0  0
  -22.3567  -14.5537   20.6702 O   0  0  0  0  0  0
  -24.6156  -31.8672   23.2078 C   0  0  0  0  0  0
  -25.9043  -32.4820   23.8381 C   0  0  1  0  0  0
  -27.2327  -27.4167   20.1057 C   0  0  0  0  0  0
  -25.5899  -33.8611   24.2319 N   0  0  0  0  0  0
  -23.4037  -30.4914   21.5495 C   0  0  2  0  0  0
  -24.8495  -28.9555   20.1137 C   0  0  0  0  0  0
  -22.7415  -29.4661   22.4986 C   0  0  0  0  0  0
  -18.0272  -28.1381   22.8493 C   0  0  0  0  0  0
  -24.1486  -36.7300   23.2640 C   0  0  0  0  0  0
  -25.9330  -30.8308   21.3593 C   0  0  0  0  0  0
  -26.0106  -29.4635   20.7082 C   0  0  0  0  0  0
  -27.2048  -28.7034   20.6969 C   0  0  0  0  0  0
  -26.0505  -26.9298   19.4993 C   0  0  0  0  0  0
  -24.8661  -27.6898   19.5040 C   0  0  0  0  0  0
  -23.6116  -29.8226   20.1646 C   0  0  0  0  0  0
  -25.4102  -36.3106   24.0344 C   0  0  1  0  0  0
  -20.5863  -28.3663   23.1322 C   0  0  2  0  0  0
  -20.6759  -26.9403   22.5421 C   0  0  0  0  0  0
  -19.5746  -26.6384   21.5218 C   0  0  0  0  0  0
  -18.1921  -26.7933   22.1613 C   0  0  0  0  0  0
  -19.1521  -28.8835   23.2907 C   0  0  0  0  0  0
  -18.9443  -30.1435   23.8917 C   0  0  0  0  0  0
  -17.6449  -30.6589   24.0559 C   0  0  0  0  0  0
  -25.9033  -34.9480   23.5131 C   0  0  0  0  0  0
  -16.5339  -29.9091   23.6327 C   0  0  0  0  0  0
  -16.7260  -28.6503   23.0353 C   0  0  0  0  0  0
  -26.4461  -31.6593   25.0707 C   0  0  0  0  0  0
  -25.3730  -31.3705   26.1464 C   0  0  0  0  0  0
  -27.0261  -30.3033   24.6059 C   0  0  0  0  0  0
  -27.6056  -32.4289   25.7462 C   0  0  0  0  0  0
  -27.5587  -37.1799   24.8456 C   0  0  0  0  0  0
  -21.4141  -29.3030   22.3724 N   0  0  0  0  0  0
  -26.4282  -37.3801   23.9433 N   0  0  0  0  0  0
  -24.6697  -31.0771   22.0978 N   0  0  0  0  0  0
  -23.4185  -28.8206   23.3032 O   0  0  0  0  0  0
  -28.3993  -26.6725   20.1464 O   0  0  0  0  0  0
  -26.5602  -34.8935   22.4694 O   0  0  0  0  0  0
  -23.5347  -32.1417   23.7474 O   0  0  0  0  0  0
  -29.9098  -23.0329   20.0136 C   0  0  0  0  0  0
  -30.5786  -22.2355   19.0447 C   0  0  0  0  0  0
  -30.9343  -20.8959   19.3614 C   0  0  0  0  0  0
  -29.6351  -22.4170   21.2611 C   0  0  0  0  0  0
  -30.6081  -20.3866   20.6380 C   0  0  0  0  0  0
  -29.1886  -17.7104   20.1479 C   0  0  0  0  0  0
  -28.6230  -24.8299   18.5864 C   0  0  0  0  0  0
  -28.9647  -16.2084   20.2527 C   0  0  0  0  0  0
  -29.5896  -24.5005   19.7142 C   0  0  1  0  0  0
  -30.0211  -18.0925   21.3632 C   0  0  1  0  0  0
  -28.2837  -25.2452   19.9893 C   0  0  1  0  0  0
  -30.5911  -16.7329   21.8807 C   0  0  2  0  0  0
  -30.9294  -22.8135   17.6749 C   0  0  0  0  0  0
  -31.6665  -20.0324   18.3326 C   0  0  0  0  0  0
  -29.0013  -23.1816   22.4086 C   0  0  0  0  0  0
  -32.1015  -16.7140   22.2055 C   0  0  0  0  0  0
  -29.9548  -21.1303   21.5502 N   0  0  0  0  0  0
  -30.0554  -15.6254   21.0392 N   0  0  0  0  0  0
  -31.0285  -19.1058   21.0361 N   0  0  0  0  0  0
  -31.4625  -12.4473   19.1187 H   0  0  0  0  0  0
  -30.3446  -11.3496   19.8743 H   0  0  0  0  0  0
  -29.7507  -11.7332   17.4606 H   0  0  0  0  0  0
  -29.6227  -13.4538   17.7468 H   0  0  0  0  0  0
  -27.8723  -11.2431   18.8837 H   0  0  0  0  0  0
  -27.3520  -12.5057   17.8004 H   0  0  0  0  0  0
  -27.6246  -14.1796   19.4659 H   0  0  0  0  0  0
  -28.7008  -12.0501   21.4026 H   0  0  0  0  0  0
  -28.4478  -13.7215   21.8171 H   0  0  0  0  0  0
  -25.2708   -9.5640   22.4793 H   0  0  0  0  0  0
  -23.9966   -7.4569   22.7468 H   0  0  0  0  0  0
  -21.0790   -8.8703   19.8967 H   0  0  0  0  0  0
  -22.3613  -10.9629   19.6191 H   0  0  0  0  0  0
  -21.1962   -7.6125   23.9705 H   0  0  0  0  0  0
  -21.1484   -6.0524   25.9091 H   0  0  0  0  0  0
  -22.0601   -2.7594   23.2881 H   0  0  0  0  0  0
  -22.4027  -11.9892   22.4820 H   0  0  0  0  0  0
  -21.1093  -13.1327   22.2644 H   0  0  0  0  0  0
  -24.6563  -15.8279   20.5002 H   0  0  0  0  0  0
  -26.2745  -15.6090   20.0646 H   0  0  0  0  0  0
  -26.7112  -32.5533   23.1145 H   0  0  0  0  0  0
  -25.0056  -33.9771   25.0472 H   0  0  0  0  0  0
  -22.6928  -31.3086   21.4100 H   0  0  0  0  0  0
  -23.3773  -35.9604   23.3254 H   0  0  0  0  0  0
  -24.3591  -36.8955   22.2062 H   0  0  0  0  0  0
  -23.7194  -37.6475   23.6669 H   0  0  0  0  0  0
  -26.0402  -31.5955   20.5883 H   0  0  0  0  0  0
  -26.8235  -30.8881   21.9737 H   0  0  0  0  0  0
  -28.1003  -29.0922   21.1621 H   0  0  0  0  0  0
  -26.0236  -25.9631   19.0174 H   0  0  0  0  0  0
  -23.9737  -27.2945   19.0387 H   0  0  0  0  0  0
  -23.7168  -30.5955   19.4023 H   0  0  0  0  0  0
  -22.7358  -29.2403   19.8726 H   0  0  0  0  0  0
  -25.1275  -36.1963   25.0837 H   0  0  0  0  0  0
  -20.9957  -28.3228   24.1442 H   0  0  0  0  0  0
  -20.5656  -26.2279   23.3609 H   0  0  0  0  0  0
  -21.6632  -26.7450   22.1216 H   0  0  0  0  0  0
  -19.6907  -25.6300   21.1240 H   0  0  0  0  0  0
  -19.6698  -27.3196   20.6753 H   0  0  0  0  0  0
  -17.4205  -26.6699   21.4001 H   0  0  0  0  0  0
  -18.0301  -26.0061   22.8991 H   0  0  0  0  0  0
  -19.7916  -30.7240   24.2311 H   0  0  0  0  0  0
  -17.5007  -31.6279   24.5143 H   0  0  0  0  0  0
  -15.5341  -30.2997   23.7642 H   0  0  0  0  0  0
  -15.8657  -28.0829   22.7065 H   0  0  0  0  0  0
  -24.5894  -30.7063   25.7796 H   0  0  0  0  0  0
  -24.8937  -32.2866   26.4925 H   0  0  0  0  0  0
  -25.8087  -30.8854   27.0210 H   0  0  0  0  0  0
  -26.2779  -29.6819   24.1124 H   0  0  0  0  0  0
  -27.4041  -29.7239   25.4490 H   0  0  0  0  0  0
  -27.8616  -30.4335   23.9180 H   0  0  0  0  0  0
  -27.2712  -33.3616   26.2013 H   0  0  0  0  0  0
  -28.3885  -32.6791   25.0291 H   0  0  0  0  0  0
  -28.0692  -31.8413   26.5394 H   0  0  0  0  0  0
  -28.2577  -38.0125   24.7557 H   0  0  0  0  0  0
  -28.1110  -36.2664   24.6200 H   0  0  0  0  0  0
  -27.2324  -37.1348   25.8862 H   0  0  0  0  0  0
  -20.9298  -29.8753   21.6951 H   0  0  0  0  0  0
  -26.0168  -38.2873   24.1460 H   0  0  0  0  0  0
  -28.2524  -18.2668   20.0949 H   0  0  0  0  0  0
  -29.7279  -17.9101   19.2223 H   0  0  0  0  0  0
  -28.0233  -24.0248   18.1659 H   0  0  0  0  0  0
  -28.9117  -25.6102   17.8845 H   0  0  0  0  0  0
  -28.9186  -15.8049   19.2399 H   0  0  0  0  0  0
  -28.0245  -16.0101   20.7660 H   0  0  0  0  0  0
  -30.5000  -25.0926   19.7913 H   0  0  0  0  0  0
  -29.3620  -18.5018   22.1320 H   0  0  0  0  0  0
  -27.4757  -24.7569   20.5317 H   0  0  0  0  0  0
  -30.1035  -16.5630   22.8432 H   0  0  0  0  0  0
  -31.1033  -23.8873   17.7067 H   0  0  0  0  0  0
  -30.1186  -22.6216   16.9716 H   0  0  0  0  0  0
  -31.8430  -22.3855   17.2658 H   0  0  0  0  0  0
  -31.1928  -20.1169   17.3545 H   0  0  0  0  0  0
  -31.6743  -18.9712   18.5746 H   0  0  0  0  0  0
  -32.7045  -20.3534   18.2416 H   0  0  0  0  0  0
  -29.4260  -24.1823   22.4916 H   0  0  0  0  0  0
  -29.1712  -22.6779   23.3604 H   0  0  0  0  0  0
  -27.9253  -23.2666   22.2650 H   0  0  0  0  0  0
  -32.7131  -16.8497   21.3135 H   0  0  0  0  0  0
  -32.3928  -15.7748   22.6758 H   0  0  0  0  0  0
  -32.3562  -17.5117   22.9032 H   0  0  0  0  0  0
  -31.7549  -18.7286   20.4422 H   0  0  0  0  0  0
  1 25  1  0  0  0
  1 30  2  0  0  0
  1 88  1  0  0  0
  2  3  1  0  0  0
  2 25  1  0  0  0
  2 90  1  0  0  0
  2 91  1  0  0  0
  3  4  1  0  0  0
  3 92  1  0  0  0
  3 93  1  0  0  0
  4  5  1  0  0  0
  4 94  1  0  0  0
  4 95  1  0  0  0
  5  6  1  0  0  0
  5 26  1  0  0  0
  5 96  1  0  0  0
  6 25  1  0  0  0
  6 97  1  0  0  0
  6 98  1  0  0  0
  7  8  2  0  0  0
  7 26  1  0  0  0
  7 29  1  0  0  0
  8  9  1  0  0  0
  8 22  1  0  0  0
  9 10  1  0  0  0
  9 27  2  0  0  0
 10 11  2  0  0  0
 10 15  1  0  0  0
 11 12  1  0  0  0
 11 99  1  0  0  0
 12 13  2  0  0  0
 12100  1  0  0  0
 13 14  1  0  0  0
 13 31  1  0  0  0
 14 15  2  0  0  0
 14101  1  0  0  0
 15102  1  0  0  0
 16 17  2  0  0  0
 16 21  1  0  0  0
 16 31  1  0  0  0
 17 18  1  0  0  0
 17103  1  0  0  0
 18 19  2  0  0  0
 18104  1  0  0  0
 19 20  1  0  0  0
 19 24  1  0  0  0
 20 21  2  0  0  0
 20105  1  0  0  0
 21 23  1  0  0  0
 22 28  1  0  0  0
 22 32  2  0  0  0
 26 27  1  0  0  0
 28106  1  0  0  0
 28107  1  0  0  0
 29108  1  0  0  0
 29109  1  0  0  0
 33 34  1  0  0  0
 33 66  1  0  0  0
 33 70  2  0  0  0
 34 36  1  0  0  0
 34 59  1  0  0  0
 34110  1  0  0  0
 35 44  2  0  0  0
 35 45  1  0  0  0
 35 68  1  0  0  0
 36 56  1  0  0  0
 36111  1  0  0  0
 37 39  1  0  0  0
 37 47  1  0  0  0
 37 66  1  0  0  0
 37112  1  0  0  0
 38 43  2  0  0  0
 38 46  1  0  0  0
 38 47  1  0  0  0
 39 64  1  0  0  0
 39 67  2  0  0  0
 40 52  1  0  0  0
 40 53  2  0  0  0
 40 58  1  0  0  0
 41113  1  0  0  0
 41114  1  0  0  0
 41115  1  0  0  0
 41 48  1  0  0  0
 42 43  1  0  0  0
 42 66  1  0  0  0
 42116  1  0  0  0
 42117  1  0  0  0
 43 44  1  0  0  0
 44118  1  0  0  0
 45 46  2  0  0  0
 45119  1  0  0  0
 46120  1  0  0  0
 47121  1  0  0  0
 47122  1  0  0  0
 48 56  1  0  0  0
 48 65  1  0  0  0
 48123  1  0  0  0
 49 50  1  0  0  0
 49 53  1  0  0  0
 49 64  1  0  0  0
 49124  1  0  0  0
 50 51  1  0  0  0
 50125  1  0  0  0
 50126  1  0  0  0
 51 52  1  0  0  0
 51127  1  0  0  0
 51128  1  0  0  0
 52129  1  0  0  0
 52130  1  0  0  0
 53 54  1  0  0  0
 54 55  2  0  0  0
 54131  1  0  0  0
 55 57  1  0  0  0
 55132  1  0  0  0
 56 69  2  0  0  0
 57 58  2  0  0  0
 57133  1  0  0  0
 58134  1  0  0  0
 59 60  1  0  0  0
 59 61  1  0  0  0
 59 62  1  0  0  0
 60135  1  0  0  0
 60136  1  0  0  0
 60137  1  0  0  0
 61138  1  0  0  0
 61139  1  0  0  0
 61140  1  0  0  0
 62141  1  0  0  0
 62142  1  0  0  0
 62143  1  0  0  0
 63 65  1  0  0  0
 63144  1  0  0  0
 63145  1  0  0  0
 63146  1  0  0  0
 64147  1  0  0  0
 65148  1  0  0  0
 68 81  1  0  0  0
 71 72  2  0  0  0
 71 74  1  0  0  0
 71 79  1  0  0  0
 72 73  1  0  0  0
 72 83  1  0  0  0
 73 75  2  0  0  0
 73 84  1  0  0  0
 74 85  1  0  0  0
 74 87  2  0  0  0
 75 87  1  0  0  0
 75 89  1  0  0  0
 76 78  1  0  0  0
 76 80  1  0  0  0
 76149  1  0  0  0
 76150  1  0  0  0
 77 79  1  0  0  0
 77 81  1  0  0  0
 77151  1  0  0  0
 77152  1  0  0  0
 78 88  1  0  0  0
 78153  1  0  0  0
 78154  1  0  0  0
 79 81  1  0  0  0
 79155  1  0  0  0
 80 82  1  0  0  0
 80 89  1  0  0  0
 80156  1  0  0  0
 81157  1  0  0  0
 82 86  1  0  0  0
 82 88  1  0  0  0
 82158  1  0  0  0
 83159  1  0  0  0
 83160  1  0  0  0
 83161  1  0  0  0
 84162  1  0  0  0
 84163  1  0  0  0
 84164  1  0  0  0
 85165  1  0  0  0
 85166  1  0  0  0
 85167  1  0  0  0
 86168  1  0  0  0
 86169  1  0  0  0
 86170  1  0  0  0
 89171  1  0  0  0
M  ISO  4   1 100  68 101  81 101  88 100
M  END
> <chiral flag>
0

> <version>
0

> <s_m_source_file>
/data/baiqing/PycharmProjects/Reinvent-master-3.2/result/LINK_invent/BTK/process_docking_weight1_custom_sum_contain_oxygen_bond_distance_aromatic_linkinvent_7_9_3/rearranged_h_0169.sdf

> <i_m_source_file_index>
44

> <r_mmod_Potential_Energy-OPLS-2005>
-30.0993690490723

> <r_mmod_Stretch_Energy-OPLS-2005>
46.9235916137695

> <r_mmod_Bend_Energy-OPLS-2005>
143.327575683594

> <r_mmod_Torsional_Energy-OPLS-2005>
381.303100585938

> <r_mmod_Improper_Torsional_Energy-OPLS-2005>
9.56708335876465

> <r_mmod_Van_der_Waal_Energy-OPLS-2005>
165.895889282227

> <r_mmod_Electrostatic_Energy-OPLS-2005>
-579.768310546875

> <r_mmod_Solvation_Energy-OPLS-2005>
-220.85188293457

> <b_mmod_Minimization_Converged-OPLS-2005>
0

> <r_mmod_RMS_Derivative-OPLS-2005>
1.90024816989899

$$$$
44
                    3D
 Structure written by MMmdl.
161170  0  0  1  0            999 V2000
  -30.5805  -14.7173   20.4806 C   0  0  0  0  0  0
  -30.4471  -12.4378   19.4593 C   0  0  0  0  0  0
  -29.5142  -12.5137   18.2292 C   0  0  0  0  0  0
  -28.0387  -12.3376   18.6424 C   0  0  0  0  0  0
  -27.6504  -13.2202   19.8580 C   0  0  2  0  0  0
  -28.6960  -13.1039   20.9894 C   0  0  0  0  0  0
  -25.2554  -13.8173   20.5676 C   0  0  0  0  0  0
  -24.1831  -13.0431   20.9197 C   0  0  0  0  0  0
  -24.6408  -11.6904   20.8742 C   0  0  0  0  0  0
  -23.9078  -10.4289   21.0411 C   0  0  0  0  0  0
  -24.3624   -9.4203   21.9188 C   0  0  0  0  0  0
  -23.6294   -8.2243   22.0761 C   0  0  0  0  0  0
  -22.4275   -8.0286   21.3553 C   0  0  0  0  0  0
  -21.9913   -9.0262   20.4655 C   0  0  0  0  0  0
  -22.7250  -10.2138   20.3061 C   0  0  0  0  0  0
  -21.6848   -6.0738   22.5285 C   0  0  0  0  0  0
  -21.4012   -6.5640   23.8218 C   0  0  0  0  0  0
  -21.3659   -5.6795   24.9179 C   0  0  0  0  0  0
  -21.6042   -4.3056   24.7231 C   0  0  0  0  0  0
  -21.8817   -3.8148   23.4349 C   0  0  0  0  0  0
  -21.9192   -4.6966   22.3405 C   0  0  0  0  0  0
  -22.7851  -13.5224   21.1858 C   0  0  0  0  0  0
  -22.1661   -4.2148   21.0983 F   0  0  0  0  0  0
  -21.5631   -3.4541   25.7743 F   0  0  0  0  0  0
  -30.0024  -13.4698   20.4205 N   0  0  0  0  0  0
  -26.2980  -12.9356   20.3293 N   0  0  0  0  0  0
  -25.9335  -11.6509   20.5744 N   0  0  0  0  0  0
  -22.0494  -12.8220   22.0420 N   0  0  0  0  0  0
  -25.4248  -15.1898   20.4093 N   0  0  0  0  0  0
  -31.7540  -14.8849   20.1326 O   0  0  0  0  0  0
  -21.6637   -6.8883   21.4247 O   0  0  0  0  0  0
  -22.3535  -14.5530   20.6704 O   0  0  0  0  0  0
  -24.6287  -31.8541   23.1969 C   0  0  0  0  0  0
  -25.9106  -32.4752   23.8319 C   0  0  1  0  0  0
  -27.2329  -27.2851   20.1369 C   0  0  0  0  0  0
  -25.5903  -33.8557   24.2255 N   0  0  0  0  0  0
  -23.4255  -30.4752   21.5391 C   0  0  2  0  0  0
  -24.8744  -28.9138   20.1189 C   0  0  0  0  0  0
  -22.7490  -29.4599   22.4909 C   0  0  0  0  0  0
  -18.0286  -28.1376   22.8488 C   0  0  0  0  0  0
  -24.1487  -36.7302   23.2637 C   0  0  0  0  0  0
  -25.9676  -30.7766   21.3709 C   0  0  0  0  0  0
  -26.0438  -29.3974   20.7202 C   0  0  0  0  0  0
  -27.2281  -28.5974   20.7107 C   0  0  0  0  0  0
  -26.0405  -26.8489   19.5244 C   0  0  0  0  0  0
  -24.8759  -27.6464   19.5111 C   0  0  0  0  0  0
  -23.6440  -29.8000   20.1585 C   0  0  0  0  0  0
  -25.4113  -36.3089   24.0331 C   0  0  1  0  0  0
  -20.5892  -28.3685   23.1273 C   0  0  2  0  0  0
  -20.6777  -26.9400   22.5411 C   0  0  0  0  0  0
  -19.5755  -26.6375   21.5213 C   0  0  0  0  0  0
  -18.1932  -26.7916   22.1624 C   0  0  0  0  0  0
  -19.1538  -28.8846   23.2879 C   0  0  0  0  0  0
  -18.9461  -30.1447   23.8899 C   0  0  0  0  0  0
  -17.6460  -30.6582   24.0560 C   0  0  0  0  0  0
  -25.9045  -34.9447   23.5103 C   0  0  0  0  0  0
  -16.5351  -29.9083   23.6324 C   0  0  0  0  0  0
  -16.7272  -28.6497   23.0350 C   0  0  0  0  0  0
  -26.4471  -31.6571   25.0704 C   0  0  0  0  0  0
  -25.3692  -31.3719   26.1428 C   0  0  0  0  0  0
  -27.0312  -30.2990   24.6176 C   0  0  0  0  0  0
  -27.6037  -32.4290   25.7482 C   0  0  0  0  0  0
  -27.5588  -37.1814   24.8462 C   0  0  0  0  0  0
  -21.4192  -29.3043   22.3671 N   0  0  0  0  0  0
  -26.4299  -37.3786   23.9396 N   0  0  0  0  0  0
  -24.6928  -31.0535   22.0927 N   0  0  0  0  0  0
  -23.4196  -28.8141   23.3005 O   0  0  0  0  0  0
  -28.3619  -26.4456   20.1172 O   0  0  0  0  0  0
  -26.5633  -34.8923   22.4682 O   0  0  0  0  0  0
  -23.5442  -32.1341   23.7282 O   0  0  0  0  0  0
  -29.8451  -19.3929   22.0162 C   0  0  0  0  0  0
  -29.4836  -18.0314   19.6118 C   0  0  0  0  0  0
  -29.4706  -20.1722   20.8879 C   0  0  0  0  0  0
  -29.3202  -19.4622   19.6767 C   0  0  0  0  0  0
  -30.0135  -17.9705   21.9608 C   0  0  0  0  0  0
  -29.8289  -17.2372   20.7521 C   0  0  0  0  0  0
  -28.4757  -22.4777   19.8225 C   0  0  0  0  0  0
  -28.1455  -23.8320   19.7352 C   0  0  0  0  0  0
  -29.2384  -21.7371   20.9747 C   0  0  0  0  0  0
  -28.9668  -20.2928   18.4515 C   0  0  0  0  0  0
  -27.9856  -21.4658   18.7520 C   0  0  1  0  0  0
  -30.3544  -17.2271   23.2400 C   0  0  0  0  0  0
  -27.5098  -22.0958   17.4268 C   0  0  0  0  0  0
  -28.2977  -25.0673   20.6952 C   0  0  0  0  0  0
  -29.7237  -15.7626   20.7649 N   0  0  0  0  0  0
  -31.4855  -12.5822   19.1561 H   0  0  0  0  0  0
  -30.4044  -11.4477   19.9155 H   0  0  0  0  0  0
  -29.7910  -11.7534   17.4975 H   0  0  0  0  0  0
  -29.6419  -13.4770   17.7324 H   0  0  0  0  0  0
  -27.8891  -11.2855   18.8884 H   0  0  0  0  0  0
  -27.3812  -12.5481   17.7978 H   0  0  0  0  0  0
  -27.6574  -14.2494   19.4989 H   0  0  0  0  0  0
  -28.7268  -12.0876   21.3833 H   0  0  0  0  0  0
  -28.4321  -13.7435   21.8330 H   0  0  0  0  0  0
  -25.2773   -9.5664   22.4759 H   0  0  0  0  0  0
  -23.9997   -7.4628   22.7476 H   0  0  0  0  0  0
  -21.0846   -8.8791   19.8954 H   0  0  0  0  0  0
  -22.3724  -10.9679   19.6166 H   0  0  0  0  0  0
  -21.2002   -7.6148   23.9721 H   0  0  0  0  0  0
  -21.1483   -6.0524   25.9083 H   0  0  0  0  0  0
  -22.0594   -2.7609   23.2854 H   0  0  0  0  0  0
  -22.4100  -11.9874   22.4799 H   0  0  0  0  0  0
  -21.1119  -13.1260   22.2636 H   0  0  0  0  0  0
  -24.6522  -15.8385   20.5139 H   0  0  0  0  0  0
  -26.2686  -15.6353   20.0724 H   0  0  0  0  0  0
  -26.7178  -32.5417   23.1071 H   0  0  0  0  0  0
  -25.0035  -33.9679   25.0393 H   0  0  0  0  0  0
  -22.7228  -31.2970   21.3889 H   0  0  0  0  0  0
  -23.3755  -35.9634   23.3301 H   0  0  0  0  0  0
  -24.3578  -36.8921   22.2051 H   0  0  0  0  0  0
  -23.7237  -37.6503   23.6656 H   0  0  0  0  0  0
  -26.0973  -31.5339   20.5972 H   0  0  0  0  0  0
  -26.8492  -30.8319   21.9985 H   0  0  0  0  0  0
  -28.1321  -28.9695   21.1719 H   0  0  0  0  0  0
  -26.0062  -25.8755   19.0563 H   0  0  0  0  0  0
  -23.9807  -27.2674   19.0373 H   0  0  0  0  0  0
  -23.7689  -30.5696   19.3965 H   0  0  0  0  0  0
  -22.7641  -29.2296   19.8557 H   0  0  0  0  0  0
  -25.1299  -36.1954   25.0831 H   0  0  0  0  0  0
  -20.9991  -28.3262   24.1390 H   0  0  0  0  0  0
  -20.5663  -26.2294   23.3613 H   0  0  0  0  0  0
  -21.6648  -26.7412   22.1217 H   0  0  0  0  0  0
  -19.6915  -25.6286   21.1241 H   0  0  0  0  0  0
  -19.6695  -27.3189   20.6743 H   0  0  0  0  0  0
  -17.4201  -26.6650   21.4027 H   0  0  0  0  0  0
  -18.0338  -26.0053   22.9017 H   0  0  0  0  0  0
  -19.7936  -30.7260   24.2272 H   0  0  0  0  0  0
  -17.5013  -31.6263   24.5152 H   0  0  0  0  0  0
  -15.5351  -30.2988   23.7641 H   0  0  0  0  0  0
  -15.8669  -28.0819   22.7063 H   0  0  0  0  0  0
  -24.5880  -30.7048   25.7761 H   0  0  0  0  0  0
  -24.8858  -32.2883   26.4827 H   0  0  0  0  0  0
  -25.8007  -30.8919   27.0221 H   0  0  0  0  0  0
  -26.2893  -29.6750   24.1178 H   0  0  0  0  0  0
  -27.3973  -29.7241   25.4692 H   0  0  0  0  0  0
  -27.8778  -30.4269   23.9426 H   0  0  0  0  0  0
  -27.2661  -33.3594   26.2064 H   0  0  0  0  0  0
  -28.3860  -32.6829   25.0314 H   0  0  0  0  0  0
  -28.0689  -31.8393   26.5396 H   0  0  0  0  0  0
  -28.2615  -38.0106   24.7516 H   0  0  0  0  0  0
  -28.1079  -36.2640   24.6290 H   0  0  0  0  0  0
  -27.2302  -37.1473   25.8865 H   0  0  0  0  0  0
  -20.9362  -29.8762   21.6885 H   0  0  0  0  0  0
  -26.0189  -38.2867   24.1393 H   0  0  0  0  0  0
  -29.9816  -19.8994   22.9614 H   0  0  0  0  0  0
  -29.2977  -17.5321   18.6714 H   0  0  0  0  0  0
  -27.5705  -24.1361   18.8782 H   0  0  0  0  0  0
  -30.2156  -22.2109   21.0760 H   0  0  0  0  0  0
  -28.7129  -21.9470   21.9066 H   0  0  0  0  0  0
  -28.5291  -19.6282   17.7051 H   0  0  0  0  0  0
  -29.8892  -20.6806   18.0171 H   0  0  0  0  0  0
  -27.1032  -21.0017   19.1968 H   0  0  0  0  0  0
  -30.6398  -17.9126   24.0385 H   0  0  0  0  0  0
  -31.1897  -16.5454   23.0783 H   0  0  0  0  0  0
  -29.4982  -16.6450   23.5814 H   0  0  0  0  0  0
  -28.2916  -22.7045   16.9714 H   0  0  0  0  0  0
  -26.6227  -22.7139   17.5637 H   0  0  0  0  0  0
  -27.2348  -21.3270   16.7035 H   0  0  0  0  0  0
  -27.4660  -25.0349   21.3997 H   0  0  0  0  0  0
  -29.1934  -24.9107   21.2968 H   0  0  0  0  0  0
  -28.8072  -15.4279   21.0185 H   0  0  0  0  0  0
  1 25  1  0  0  0
  1 30  2  0  0  0
  1 85  1  0  0  0
  2  3  1  0  0  0
  2 25  1  0  0  0
  2 86  1  0  0  0
  2 87  1  0  0  0
  3  4  1  0  0  0
  3 88  1  0  0  0
  3 89  1  0  0  0
  4  5  1  0  0  0
  4 90  1  0  0  0
  4 91  1  0  0  0
  5  6  1  0  0  0
  5 26  1  0  0  0
  5 92  1  0  0  0
  6 25  1  0  0  0
  6 93  1  0  0  0
  6 94  1  0  0  0
  7  8  2  0  0  0
  7 26  1  0  0  0
  7 29  1  0  0  0
  8  9  1  0  0  0
  8 22  1  0  0  0
  9 10  1  0  0  0
  9 27  2  0  0  0
 10 11  2  0  0  0
 10 15  1  0  0  0
 11 12  1  0  0  0
 11 95  1  0  0  0
 12 13  2  0  0  0
 12 96  1  0  0  0
 13 14  1  0  0  0
 13 31  1  0  0  0
 14 15  2  0  0  0
 14 97  1  0  0  0
 15 98  1  0  0  0
 16 17  2  0  0  0
 16 21  1  0  0  0
 16 31  1  0  0  0
 17 18  1  0  0  0
 17 99  1  0  0  0
 18 19  2  0  0  0
 18100  1  0  0  0
 19 20  1  0  0  0
 19 24  1  0  0  0
 20 21  2  0  0  0
 20101  1  0  0  0
 21 23  1  0  0  0
 22 28  1  0  0  0
 22 32  2  0  0  0
 26 27  1  0  0  0
 28102  1  0  0  0
 28103  1  0  0  0
 29104  1  0  0  0
 29105  1  0  0  0
 33 34  1  0  0  0
 33 66  1  0  0  0
 33 70  2  0  0  0
 34 36  1  0  0  0
 34 59  1  0  0  0
 34106  1  0  0  0
 35 44  2  0  0  0
 35 45  1  0  0  0
 35 68  1  0  0  0
 36 56  1  0  0  0
 36107  1  0  0  0
 37 39  1  0  0  0
 37 47  1  0  0  0
 37 66  1  0  0  0
 37108  1  0  0  0
 38 43  2  0  0  0
 38 46  1  0  0  0
 38 47  1  0  0  0
 39 64  1  0  0  0
 39 67  2  0  0  0
 40 52  1  0  0  0
 40 53  2  0  0  0
 40 58  1  0  0  0
 41109  1  0  0  0
 41110  1  0  0  0
 41111  1  0  0  0
 41 48  1  0  0  0
 42 43  1  0  0  0
 42 66  1  0  0  0
 42112  1  0  0  0
 42113  1  0  0  0
 43 44  1  0  0  0
 44114  1  0  0  0
 45 46  2  0  0  0
 45115  1  0  0  0
 46116  1  0  0  0
 47117  1  0  0  0
 47118  1  0  0  0
 48 56  1  0  0  0
 48 65  1  0  0  0
 48119  1  0  0  0
 49 50  1  0  0  0
 49 53  1  0  0  0
 49 64  1  0  0  0
 49120  1  0  0  0
 50 51  1  0  0  0
 50121  1  0  0  0
 50122  1  0  0  0
 51 52  1  0  0  0
 51123  1  0  0  0
 51124  1  0  0  0
 52125  1  0  0  0
 52126  1  0  0  0
 53 54  1  0  0  0
 54 55  2  0  0  0
 54127  1  0  0  0
 55 57  1  0  0  0
 55128  1  0  0  0
 56 69  2  0  0  0
 57 58  2  0  0  0
 57129  1  0  0  0
 58130  1  0  0  0
 59 60  1  0  0  0
 59 61  1  0  0  0
 59 62  1  0  0  0
 60131  1  0  0  0
 60132  1  0  0  0
 60133  1  0  0  0
 61134  1  0  0  0
 61135  1  0  0  0
 61136  1  0  0  0
 62137  1  0  0  0
 62138  1  0  0  0
 62139  1  0  0  0
 63 65  1  0  0  0
 63140  1  0  0  0
 63141  1  0  0  0
 63142  1  0  0  0
 64143  1  0  0  0
 65144  1  0  0  0
 68 84  1  0  0  0
 71 73  2  0  0  0
 71 75  1  0  0  0
 71145  1  0  0  0
 72 74  2  0  0  0
 72 76  1  0  0  0
 72146  1  0  0  0
 73 74  1  0  0  0
 73 79  1  0  0  0
 74 80  1  0  0  0
 75 76  2  0  0  0
 75 82  1  0  0  0
 76 85  1  0  0  0
 77 78  2  0  0  0
 77 79  1  0  0  0
 77 81  1  0  0  0
 78 84  1  0  0  0
 78147  1  0  0  0
 79148  1  0  0  0
 79149  1  0  0  0
 80 81  1  0  0  0
 80150  1  0  0  0
 80151  1  0  0  0
 81 83  1  0  0  0
 81152  1  0  0  0
 82153  1  0  0  0
 82154  1  0  0  0
 82155  1  0  0  0
 83156  1  0  0  0
 83157  1  0  0  0
 83158  1  0  0  0
 84159  1  0  0  0
 84160  1  0  0  0
 85161  1  0  0  0
M  ISO  4   1 100  68 101  84 101  85 100
M  END
> <chiral flag>
0

> <version>
0

> <s_m_source_file>
/data/baiqing/PycharmProjects/Reinvent-master-3.2/result/LINK_invent/BTK/process_docking_weight1_custom_sum_contain_oxygen_bond_distance_aromatic_linkinvent_7_9_3/rearranged_h_0169.sdf

> <i_m_source_file_index>
45

> <r_mmod_Potential_Energy-OPLS-2005>
148.866546630859

> <r_mmod_Stretch_Energy-OPLS-2005>
101.042701721191

> <r_mmod_Bend_Energy-OPLS-2005>
159.490249633789

> <r_mmod_Torsional_Energy-OPLS-2005>
264.822296142578

> <r_mmod_Improper_Torsional_Energy-OPLS-2005>
6.15229415893555

> <r_mmod_Van_der_Waal_Energy-OPLS-2005>
139.93376159668

> <r_mmod_Electrostatic_Energy-OPLS-2005>
-390.300140380859

> <r_mmod_Solvation_Energy-OPLS-2005>
-200.76628112793

> <b_mmod_Minimization_Converged-OPLS-2005>
0

> <r_mmod_RMS_Derivative-OPLS-2005>
1.37466037273407

$$$$
45
                    3D
 Structure written by MMmdl.
160169  0  0  1  0            999 V2000
  -30.4924  -14.8166   20.4542 C   0  0  0  0  0  0
  -30.4503  -12.4871   19.4893 C   0  0  0  0  0  0
  -29.5352  -12.5010   18.2443 C   0  0  0  0  0  0
  -28.0566  -12.3114   18.6556 C   0  0  0  0  0  0
  -27.6420  -13.2160   19.8466 C   0  0  2  0  0  0
  -28.6813  -13.1251   20.9826 C   0  0  0  0  0  0
  -25.2505  -13.8134   20.5616 C   0  0  0  0  0  0
  -24.1800  -13.0413   20.9198 C   0  0  0  0  0  0
  -24.6371  -11.6872   20.8738 C   0  0  0  0  0  0
  -23.9000  -10.4269   21.0400 C   0  0  0  0  0  0
  -24.3555   -9.4200   21.9195 C   0  0  0  0  0  0
  -23.6240   -8.2245   22.0770 C   0  0  0  0  0  0
  -22.4238   -8.0252   21.3544 C   0  0  0  0  0  0
  -21.9829   -9.0228   20.4661 C   0  0  0  0  0  0
  -22.7144  -10.2116   20.3064 C   0  0  0  0  0  0
  -21.6845   -6.0673   22.5271 C   0  0  0  0  0  0
  -21.4018   -6.5604   23.8193 C   0  0  0  0  0  0
  -21.3667   -5.6767   24.9173 C   0  0  0  0  0  0
  -21.6042   -4.3026   24.7235 C   0  0  0  0  0  0
  -21.8821   -3.8100   23.4368 C   0  0  0  0  0  0
  -21.9201   -4.6905   22.3408 C   0  0  0  0  0  0
  -22.7831  -13.5222   21.1870 C   0  0  0  0  0  0
  -22.1659   -4.2080   21.0985 F   0  0  0  0  0  0
  -21.5619   -3.4531   25.7764 F   0  0  0  0  0  0
  -29.9621  -13.5433   20.4083 N   0  0  0  0  0  0
  -26.2917  -12.9318   20.3206 N   0  0  0  0  0  0
  -25.9295  -11.6476   20.5704 N   0  0  0  0  0  0
  -22.0451  -12.8248   22.0435 N   0  0  0  0  0  0
  -25.4115  -15.1837   20.3916 N   0  0  0  0  0  0
  -31.6850  -14.9776   20.1660 O   0  0  0  0  0  0
  -21.6632   -6.8827   21.4234 O   0  0  0  0  0  0
  -22.3523  -14.5534   20.6709 O   0  0  0  0  0  0
  -24.6322  -31.8497   23.1920 C   0  0  0  0  0  0
  -25.9152  -32.4714   23.8259 C   0  0  1  0  0  0
  -27.2242  -27.2278   20.1295 C   0  0  0  0  0  0
  -25.5929  -33.8517   24.2184 N   0  0  0  0  0  0
  -23.4287  -30.4692   21.5373 C   0  0  2  0  0  0
  -24.8798  -28.9047   20.1044 C   0  0  0  0  0  0
  -22.7484  -29.4568   22.4908 C   0  0  0  0  0  0
  -18.0292  -28.1378   22.8464 C   0  0  0  0  0  0
  -24.1516  -36.7276   23.2638 C   0  0  0  0  0  0
  -25.9780  -30.7485   21.3803 C   0  0  0  0  0  0
  -26.0484  -29.3706   20.7169 C   0  0  0  0  0  0
  -27.2179  -28.5418   20.7202 C   0  0  0  0  0  0
  -26.0351  -26.8319   19.4835 C   0  0  0  0  0  0
  -24.8770  -27.6440   19.4815 C   0  0  0  0  0  0
  -23.6502  -29.7956   20.1542 C   0  0  0  0  0  0
  -25.4138  -36.3035   24.0310 C   0  0  1  0  0  0
  -20.5894  -28.3666   23.1249 C   0  0  2  0  0  0
  -20.6773  -26.9421   22.5306 C   0  0  0  0  0  0
  -19.5750  -26.6496   21.5065 C   0  0  0  0  0  0
  -18.1928  -26.7957   22.1502 C   0  0  0  0  0  0
  -19.1549  -28.8831   23.2874 C   0  0  0  0  0  0
  -18.9499  -30.1415   23.8940 C   0  0  0  0  0  0
  -17.6505  -30.6575   24.0597 C   0  0  0  0  0  0
  -25.9082  -34.9412   23.5057 C   0  0  0  0  0  0
  -16.5379  -29.9086   23.6371 C   0  0  0  0  0  0
  -16.7285  -28.6496   23.0390 C   0  0  0  0  0  0
  -26.4517  -31.6553   25.0655 C   0  0  0  0  0  0
  -25.3743  -31.3734   26.1368 C   0  0  0  0  0  0
  -27.0375  -30.2956   24.6187 C   0  0  0  0  0  0
  -27.6056  -32.4322   25.7438 C   0  0  0  0  0  0
  -27.5588  -37.1789   24.8449 C   0  0  0  0  0  0
  -21.4189  -29.3049   22.3660 N   0  0  0  0  0  0
  -26.4305  -37.3734   23.9392 N   0  0  0  0  0  0
  -24.6973  -31.0437   22.0910 N   0  0  0  0  0  0
  -23.4174  -28.8110   23.3009 O   0  0  0  0  0  0
  -28.3315  -26.3468   20.2375 O   0  0  0  0  0  0
  -26.5665  -34.8912   22.4642 O   0  0  0  0  0  0
  -23.5480  -32.1332   23.7248 O   0  0  0  0  0  0
  -25.9210  -19.4402   22.1487 C   0  0  0  0  0  0
  -28.1071  -19.7885   21.0331 C   0  0  0  0  0  0
  -26.8603  -20.2469   21.5139 C   0  0  0  0  0  0
  -26.2790  -18.1461   22.4984 C   0  0  0  0  0  0
  -28.4620  -18.3404   21.2516 C   0  0  0  0  0  0
  -27.5622  -17.6472   22.1529 C   0  0  0  0  0  0
  -28.7062  -21.1276   20.4502 C   0  0  0  0  0  0
  -27.7573  -22.3494   20.6997 C   0  0  0  0  0  0
  -27.6665  -23.7341   20.4603 C   0  0  0  0  0  0
  -26.5781  -21.7137   21.3826 C   0  0  0  0  0  0
  -25.2686  -17.3466   23.3211 C   0  0  0  0  0  0
  -27.9690  -16.3975   22.9233 C   0  0  0  0  0  0
  -29.6996  -17.4431   20.6869 C   0  0  0  0  0  0
  -28.4195  -24.9176   19.7245 C   0  0  0  0  0  0
  -29.6030  -15.8857   20.6323 N   0  0  0  0  0  0
  -29.7987  -21.2058   19.8842 O   0  0  0  0  0  0
  -31.4972  -12.6277   19.2121 H   0  0  0  0  0  0
  -30.4052  -11.5056   19.9692 H   0  0  0  0  0  0
  -29.8375  -11.7115   17.5549 H   0  0  0  0  0  0
  -29.6607  -13.4418   17.7065 H   0  0  0  0  0  0
  -27.9414  -11.2679   18.9503 H   0  0  0  0  0  0
  -27.3940  -12.4633   17.8028 H   0  0  0  0  0  0
  -27.6356  -14.2353   19.4637 H   0  0  0  0  0  0
  -28.7493  -12.1027   21.3592 H   0  0  0  0  0  0
  -28.4106  -13.7320   21.8428 H   0  0  0  0  0  0
  -25.2694   -9.5691   22.4774 H   0  0  0  0  0  0
  -23.9924   -7.4650   22.7510 H   0  0  0  0  0  0
  -21.0735   -8.8727   19.9010 H   0  0  0  0  0  0
  -22.3547  -10.9653   19.6181 H   0  0  0  0  0  0
  -21.2008   -7.6117   23.9665 H   0  0  0  0  0  0
  -21.1485   -6.0517   25.9064 H   0  0  0  0  0  0
  -22.0593   -2.7565   23.2899 H   0  0  0  0  0  0
  -22.3965  -11.9858   22.4820 H   0  0  0  0  0  0
  -21.1124  -13.1379   22.2692 H   0  0  0  0  0  0
  -24.6292  -15.8163   20.5089 H   0  0  0  0  0  0
  -26.2269  -15.6407   20.0087 H   0  0  0  0  0  0
  -26.7173  -32.5325   23.0943 H   0  0  0  0  0  0
  -25.0000  -33.9623   25.0267 H   0  0  0  0  0  0
  -22.7273  -31.2925   21.3862 H   0  0  0  0  0  0
  -23.3771  -35.9618   23.3286 H   0  0  0  0  0  0
  -24.3605  -36.8913   22.2052 H   0  0  0  0  0  0
  -23.7286  -37.6474   23.6695 H   0  0  0  0  0  0
  -26.1305  -31.5161   20.6210 H   0  0  0  0  0  0
  -26.8511  -30.7855   22.0199 H   0  0  0  0  0  0
  -28.1089  -28.8903   21.2238 H   0  0  0  0  0  0
  -25.9732  -25.8608   19.0104 H   0  0  0  0  0  0
  -23.9784  -27.2733   19.0066 H   0  0  0  0  0  0
  -23.7710  -30.5722   19.3988 H   0  0  0  0  0  0
  -22.7673  -29.2313   19.8483 H   0  0  0  0  0  0
  -25.1346  -36.1847   25.0803 H   0  0  0  0  0  0
  -20.9982  -28.3175   24.1371 H   0  0  0  0  0  0
  -20.5669  -26.2247   23.3437 H   0  0  0  0  0  0
  -21.6640  -26.7496   22.1047 H   0  0  0  0  0  0
  -19.6970  -25.6448   21.0995 H   0  0  0  0  0  0
  -19.6676  -27.3397   20.6654 H   0  0  0  0  0  0
  -17.4199  -26.6736   21.3899 H   0  0  0  0  0  0
  -18.0381  -26.0029   22.8841 H   0  0  0  0  0  0
  -19.7993  -30.7184   24.2371 H   0  0  0  0  0  0
  -17.5063  -31.6248   24.5208 H   0  0  0  0  0  0
  -15.5375  -30.2997   23.7736 H   0  0  0  0  0  0
  -15.8653  -28.0827   22.7167 H   0  0  0  0  0  0
  -24.5925  -30.7060   25.7695 H   0  0  0  0  0  0
  -24.8923  -32.2917   26.4746 H   0  0  0  0  0  0
  -25.8063  -30.8926   27.0147 H   0  0  0  0  0  0
  -26.2942  -29.6663   24.1252 H   0  0  0  0  0  0
  -27.4058  -29.7258   25.4729 H   0  0  0  0  0  0
  -27.8842  -30.4197   23.9430 H   0  0  0  0  0  0
  -27.2627  -33.3620   26.1996 H   0  0  0  0  0  0
  -28.3883  -32.6871   25.0284 H   0  0  0  0  0  0
  -28.0701  -31.8436   26.5351 H   0  0  0  0  0  0
  -28.2583  -38.0105   24.7504 H   0  0  0  0  0  0
  -28.1107  -36.2627   24.6285 H   0  0  0  0  0  0
  -27.2299  -37.1445   25.8846 H   0  0  0  0  0  0
  -20.9361  -29.8730   21.6842 H   0  0  0  0  0  0
  -26.0171  -38.2811   24.1352 H   0  0  0  0  0  0
  -24.9723  -19.8519   22.4688 H   0  0  0  0  0  0
  -26.7307  -24.1412   20.8097 H   0  0  0  0  0  0
  -26.4423  -22.1309   22.3822 H   0  0  0  0  0  0
  -25.6633  -21.8700   20.8072 H   0  0  0  0  0  0
  -24.2441  -17.6963   23.1663 H   0  0  0  0  0  0
  -25.4860  -17.4268   24.3853 H   0  0  0  0  0  0
  -25.2765  -16.2921   23.0490 H   0  0  0  0  0  0
  -27.6366  -16.4792   23.9583 H   0  0  0  0  0  0
  -27.4922  -15.5109   22.5144 H   0  0  0  0  0  0
  -29.0457  -16.2714   23.0107 H   0  0  0  0  0  0
  -30.5830  -17.6959   21.2768 H   0  0  0  0  0  0
  -29.9307  -17.7849   19.6772 H   0  0  0  0  0  0
  -28.0879  -24.9083   18.6847 H   0  0  0  0  0  0
  -29.4755  -24.6512   19.7075 H   0  0  0  0  0  0
  -28.6576  -15.5664   20.7759 H   0  0  0  0  0  0
  1 25  1  0  0  0
  1 30  2  0  0  0
  1 85  1  0  0  0
  2  3  1  0  0  0
  2 25  1  0  0  0
  2 87  1  0  0  0
  2 88  1  0  0  0
  3  4  1  0  0  0
  3 89  1  0  0  0
  3 90  1  0  0  0
  4  5  1  0  0  0
  4 91  1  0  0  0
  4 92  1  0  0  0
  5  6  1  0  0  0
  5 26  1  0  0  0
  5 93  1  0  0  0
  6 25  1  0  0  0
  6 94  1  0  0  0
  6 95  1  0  0  0
  7  8  2  0  0  0
  7 26  1  0  0  0
  7 29  1  0  0  0
  8  9  1  0  0  0
  8 22  1  0  0  0
  9 10  1  0  0  0
  9 27  2  0  0  0
 10 11  2  0  0  0
 10 15  1  0  0  0
 11 12  1  0  0  0
 11 96  1  0  0  0
 12 13  2  0  0  0
 12 97  1  0  0  0
 13 14  1  0  0  0
 13 31  1  0  0  0
 14 15  2  0  0  0
 14 98  1  0  0  0
 15 99  1  0  0  0
 16 17  2  0  0  0
 16 21  1  0  0  0
 16 31  1  0  0  0
 17 18  1  0  0  0
 17100  1  0  0  0
 18 19  2  0  0  0
 18101  1  0  0  0
 19 20  1  0  0  0
 19 24  1  0  0  0
 20 21  2  0  0  0
 20102  1  0  0  0
 21 23  1  0  0  0
 22 28  1  0  0  0
 22 32  2  0  0  0
 26 27  1  0  0  0
 28103  1  0  0  0
 28104  1  0  0  0
 29105  1  0  0  0
 29106  1  0  0  0
 33 34  1  0  0  0
 33 66  1  0  0  0
 33 70  2  0  0  0
 34 36  1  0  0  0
 34 59  1  0  0  0
 34107  1  0  0  0
 35 44  2  0  0  0
 35 45  1  0  0  0
 35 68  1  0  0  0
 36 56  1  0  0  0
 36108  1  0  0  0
 37 39  1  0  0  0
 37 47  1  0  0  0
 37 66  1  0  0  0
 37109  1  0  0  0
 38 43  2  0  0  0
 38 46  1  0  0  0
 38 47  1  0  0  0
 39 64  1  0  0  0
 39 67  2  0  0  0
 40 52  1  0  0  0
 40 53  2  0  0  0
 40 58  1  0  0  0
 41110  1  0  0  0
 41111  1  0  0  0
 41112  1  0  0  0
 41 48  1  0  0  0
 42 43  1  0  0  0
 42 66  1  0  0  0
 42113  1  0  0  0
 42114  1  0  0  0
 43 44  1  0  0  0
 44115  1  0  0  0
 45 46  2  0  0  0
 45116  1  0  0  0
 46117  1  0  0  0
 47118  1  0  0  0
 47119  1  0  0  0
 48 56  1  0  0  0
 48 65  1  0  0  0
 48120  1  0  0  0
 49 50  1  0  0  0
 49 53  1  0  0  0
 49 64  1  0  0  0
 49121  1  0  0  0
 50 51  1  0  0  0
 50122  1  0  0  0
 50123  1  0  0  0
 51 52  1  0  0  0
 51124  1  0  0  0
 51125  1  0  0  0
 52126  1  0  0  0
 52127  1  0  0  0
 53 54  1  0  0  0
 54 55  2  0  0  0
 54128  1  0  0  0
 55 57  1  0  0  0
 55129  1  0  0  0
 56 69  2  0  0  0
 57 58  2  0  0  0
 57130  1  0  0  0
 58131  1  0  0  0
 59 60  1  0  0  0
 59 61  1  0  0  0
 59 62  1  0  0  0
 60132  1  0  0  0
 60133  1  0  0  0
 60134  1  0  0  0
 61135  1  0  0  0
 61136  1  0  0  0
 61137  1  0  0  0
 62138  1  0  0  0
 62139  1  0  0  0
 62140  1  0  0  0
 63 65  1  0  0  0
 63141  1  0  0  0
 63142  1  0  0  0
 63143  1  0  0  0
 64144  1  0  0  0
 65145  1  0  0  0
 68 84  1  0  0  0
 71 73  2  0  0  0
 71 74  1  0  0  0
 71146  1  0  0  0
 72 73  1  0  0  0
 72 75  2  0  0  0
 72 77  1  0  0  0
 73 80  1  0  0  0
 74 76  2  0  0  0
 74 81  1  0  0  0
 75 76  1  0  0  0
 75 83  1  0  0  0
 76 82  1  0  0  0
 77 78  1  0  0  0
 77 86  2  0  0  0
 78 79  2  0  0  0
 78 80  1  0  0  0
 79 84  1  0  0  0
 79147  1  0  0  0
 80148  1  0  0  0
 80149  1  0  0  0
 81150  1  0  0  0
 81151  1  0  0  0
 81152  1  0  0  0
 82153  1  0  0  0
 82154  1  0  0  0
 82155  1  0  0  0
 83 85  1  0  0  0
 83156  1  0  0  0
 83157  1  0  0  0
 84158  1  0  0  0
 84159  1  0  0  0
 85160  1  0  0  0
M  ISO  4   1 100  68 101  84 101  85 100
M  END
> <chiral flag>
0

> <version>
0

> <s_m_source_file>
/data/baiqing/PycharmProjects/Reinvent-master-3.2/result/LINK_invent/BTK/process_docking_weight1_custom_sum_contain_oxygen_bond_distance_aromatic_linkinvent_7_9_3/rearranged_h_0169.sdf

> <i_m_source_file_index>
46

> <r_mmod_Potential_Energy-OPLS-2005>
375.39501953125

> <r_mmod_Stretch_Energy-OPLS-2005>
186.401214599609

> <r_mmod_Bend_Energy-OPLS-2005>
345.932525634766

> <r_mmod_Torsional_Energy-OPLS-2005>
210.953430175781

> <r_mmod_Improper_Torsional_Energy-OPLS-2005>
5.62186145782471

> <r_mmod_Van_der_Waal_Energy-OPLS-2005>
135.300262451172

> <r_mmod_Electrostatic_Energy-OPLS-2005>
-413.355377197266

> <r_mmod_Solvation_Energy-OPLS-2005>
-212.429656982422

> <b_mmod_Minimization_Converged-OPLS-2005>
0

> <r_mmod_RMS_Derivative-OPLS-2005>
4.85878753662109

$$$$
46
                    3D
 Structure written by MMmdl.
165174  0  0  1  0            999 V2000
  -30.6703  -14.5589   20.5359 C   0  0  0  0  0  0
  -30.4302  -12.3527   19.4324 C   0  0  0  0  0  0
  -29.5003  -12.5022   18.2100 C   0  0  0  0  0  0
  -28.0224  -12.3505   18.6240 C   0  0  0  0  0  0
  -27.6551  -13.2112   19.8621 C   0  0  2  0  0  0
  -28.7010  -13.0432   20.9875 C   0  0  0  0  0  0
  -25.2573  -13.8161   20.5676 C   0  0  0  0  0  0
  -24.1833  -13.0437   20.9193 C   0  0  0  0  0  0
  -24.6386  -11.6908   20.8735 C   0  0  0  0  0  0
  -23.9049  -10.4294   21.0402 C   0  0  0  0  0  0
  -24.3610   -9.4215   21.9182 C   0  0  0  0  0  0
  -23.6298   -8.2242   22.0749 C   0  0  0  0  0  0
  -22.4280   -8.0276   21.3542 C   0  0  0  0  0  0
  -21.9907   -9.0245   20.4640 C   0  0  0  0  0  0
  -22.7223  -10.2131   20.3049 C   0  0  0  0  0  0
  -21.6850   -6.0735   22.5285 C   0  0  0  0  0  0
  -21.4010   -6.5637   23.8220 C   0  0  0  0  0  0
  -21.3662   -5.6789   24.9180 C   0  0  0  0  0  0
  -21.6048   -4.3053   24.7228 C   0  0  0  0  0  0
  -21.8819   -3.8144   23.4348 C   0  0  0  0  0  0
  -21.9192   -4.6962   22.3405 C   0  0  0  0  0  0
  -22.7857  -13.5239   21.1853 C   0  0  0  0  0  0
  -22.1663   -4.2147   21.0985 F   0  0  0  0  0  0
  -21.5633   -3.4537   25.7738 F   0  0  0  0  0  0
  -30.0206  -13.3637   20.4220 N   0  0  0  0  0  0
  -26.2996  -12.9335   20.3312 N   0  0  0  0  0  0
  -25.9313  -11.6495   20.5748 N   0  0  0  0  0  0
  -22.0486  -12.8241   22.0403 N   0  0  0  0  0  0
  -25.4276  -15.1880   20.4073 N   0  0  0  0  0  0
  -31.8284  -14.7210   20.1445 O   0  0  0  0  0  0
  -21.6642   -6.8877   21.4246 O   0  0  0  0  0  0
  -22.3557  -14.5552   20.6698 O   0  0  0  0  0  0
  -24.6231  -31.8637   23.2066 C   0  0  0  0  0  0
  -25.9099  -32.4797   23.8376 C   0  0  1  0  0  0
  -27.2250  -27.3609   20.1005 C   0  0  0  0  0  0
  -25.5925  -33.8595   24.2303 N   0  0  0  0  0  0
  -23.4139  -30.4901   21.5491 C   0  0  2  0  0  0
  -24.8583  -28.9546   20.1108 C   0  0  0  0  0  0
  -22.7456  -29.4650   22.4955 C   0  0  0  0  0  0
  -18.0283  -28.1376   22.8496 C   0  0  0  0  0  0
  -24.1486  -36.7304   23.2640 C   0  0  0  0  0  0
  -25.9526  -30.8070   21.3721 C   0  0  0  0  0  0
  -26.0265  -29.4392   20.7119 C   0  0  0  0  0  0
  -27.2129  -28.6538   20.6982 C   0  0  0  0  0  0
  -26.0280  -26.9186   19.4854 C   0  0  0  0  0  0
  -24.8591  -27.6979   19.4903 C   0  0  0  0  0  0
  -23.6246  -29.8290   20.1628 C   0  0  0  0  0  0
  -25.4108  -36.3097   24.0337 C   0  0  1  0  0  0
  -20.5882  -28.3678   23.1294 C   0  0  2  0  0  0
  -20.6769  -26.9406   22.5409 C   0  0  0  0  0  0
  -19.5746  -26.6383   21.5211 C   0  0  0  0  0  0
  -18.1927  -26.7925   22.1624 C   0  0  0  0  0  0
  -19.1535  -28.8844   23.2892 C   0  0  0  0  0  0
  -18.9457  -30.1446   23.8906 C   0  0  0  0  0  0
  -17.6459  -30.6584   24.0562 C   0  0  0  0  0  0
  -25.9042  -34.9463   23.5116 C   0  0  0  0  0  0
  -16.5351  -29.9082   23.6327 C   0  0  0  0  0  0
  -16.7271  -28.6495   23.0357 C   0  0  0  0  0  0
  -26.4491  -31.6592   25.0731 C   0  0  0  0  0  0
  -25.3731  -31.3723   26.1463 C   0  0  0  0  0  0
  -27.0329  -30.3022   24.6160 C   0  0  0  0  0  0
  -27.6061  -32.4316   25.7495 C   0  0  0  0  0  0
  -27.5579  -37.1806   24.8465 C   0  0  0  0  0  0
  -21.4173  -29.3043   22.3697 N   0  0  0  0  0  0
  -26.4290  -37.3787   23.9411 N   0  0  0  0  0  0
  -24.6822  -31.0686   22.0999 N   0  0  0  0  0  0
  -23.4198  -28.8181   23.3013 O   0  0  0  0  0  0
  -28.3629  -26.5479   20.1372 O   0  0  0  0  0  0
  -26.5604  -34.8926   22.4677 O   0  0  0  0  0  0
  -23.5404  -32.1420   23.7416 O   0  0  0  0  0  0
  -28.5591  -19.9705   19.1125 C   0  0  0  0  0  0
  -29.7083  -21.5158   20.5613 C   0  0  0  0  0  0
  -29.4632  -20.1421   20.1870 C   0  0  0  0  0  0
  -27.9932  -21.0682   18.4343 C   0  0  0  0  0  0
  -29.0918  -22.6181   19.8675 C   0  0  0  0  0  0
  -29.2302  -18.0166   21.4867 C   0  0  0  0  0  0
  -30.6348  -17.9155   19.9915 C   0  0  0  0  0  0
  -30.3631  -17.0029   21.2071 C   0  0  0  0  0  0
  -30.6749  -21.8187   21.7000 C   0  0  0  0  0  0
  -27.0522  -20.8853   17.2601 C   0  0  0  0  0  0
  -30.5850  -24.5787   19.2603 C   0  0  0  0  0  0
  -28.1727  -25.1122   19.9032 C   0  0  0  0  0  0
  -29.3919  -24.1355   20.1209 C   0  0  1  0  0  0
  -28.2962  -22.3241   18.8163 N   0  3  0  0  0  0
  -30.0975  -19.0049   20.8303 N   0  0  0  0  0  0
  -29.9185  -15.6073   20.9506 N   0  0  0  0  0  0
  -31.4726  -12.4655   19.1303 H   0  0  0  0  0  0
  -30.3497  -11.3524   19.8602 H   0  0  0  0  0  0
  -29.7547  -11.7611   17.4508 H   0  0  0  0  0  0
  -29.6536  -13.4791   17.7481 H   0  0  0  0  0  0
  -27.8490  -11.2964   18.8433 H   0  0  0  0  0  0
  -27.3679  -12.5947   17.7865 H   0  0  0  0  0  0
  -27.6816  -14.2502   19.5340 H   0  0  0  0  0  0
  -28.6993  -12.0197   21.3638 H   0  0  0  0  0  0
  -28.4573  -13.6723   21.8447 H   0  0  0  0  0  0
  -25.2751   -9.5702   22.4760 H   0  0  0  0  0  0
  -24.0013   -7.4630   22.7466 H   0  0  0  0  0  0
  -21.0836   -8.8748   19.8948 H   0  0  0  0  0  0
  -22.3668  -10.9667   19.6159 H   0  0  0  0  0  0
  -21.1998   -7.6145   23.9726 H   0  0  0  0  0  0
  -21.1488   -6.0517   25.9086 H   0  0  0  0  0  0
  -22.0596   -2.7607   23.2845 H   0  0  0  0  0  0
  -22.4084  -11.9902   22.4808 H   0  0  0  0  0  0
  -21.1098  -13.1271   22.2576 H   0  0  0  0  0  0
  -24.6532  -15.8358   20.5035 H   0  0  0  0  0  0
  -26.2659  -15.6247   20.0467 H   0  0  0  0  0  0
  -26.7173  -32.5481   23.1134 H   0  0  0  0  0  0
  -25.0068  -33.9741   25.0445 H   0  0  0  0  0  0
  -22.7065  -31.3102   21.4104 H   0  0  0  0  0  0
  -23.3749  -35.9637   23.3303 H   0  0  0  0  0  0
  -24.3586  -36.8917   22.2055 H   0  0  0  0  0  0
  -23.7233  -37.6508   23.6652 H   0  0  0  0  0  0
  -26.0791  -31.5739   20.6068 H   0  0  0  0  0  0
  -26.8355  -30.8532   21.9982 H   0  0  0  0  0  0
  -28.1112  -29.0231   21.1733 H   0  0  0  0  0  0
  -25.9558  -25.9607   18.9949 H   0  0  0  0  0  0
  -23.9638  -27.3217   19.0146 H   0  0  0  0  0  0
  -23.7366  -30.6071   19.4064 H   0  0  0  0  0  0
  -22.7461  -29.2543   19.8636 H   0  0  0  0  0  0
  -25.1284  -36.1957   25.0830 H   0  0  0  0  0  0
  -20.9977  -28.3242   24.1414 H   0  0  0  0  0  0
  -20.5666  -26.2287   23.3602 H   0  0  0  0  0  0
  -21.6638  -26.7439   22.1198 H   0  0  0  0  0  0
  -19.6902  -25.6297   21.1233 H   0  0  0  0  0  0
  -19.6680  -27.3199   20.6746 H   0  0  0  0  0  0
  -17.4196  -26.6685   21.4023 H   0  0  0  0  0  0
  -18.0325  -26.0057   22.9008 H   0  0  0  0  0  0
  -19.7932  -30.7258   24.2280 H   0  0  0  0  0  0
  -17.5014  -31.6268   24.5151 H   0  0  0  0  0  0
  -15.5351  -30.2985   23.7642 H   0  0  0  0  0  0
  -15.8673  -28.0812   22.7072 H   0  0  0  0  0  0
  -24.5906  -30.7070   25.7795 H   0  0  0  0  0  0
  -24.8917  -32.2886   26.4891 H   0  0  0  0  0  0
  -25.8058  -30.8901   27.0236 H   0  0  0  0  0  0
  -26.2894  -29.6776   24.1192 H   0  0  0  0  0  0
  -27.4052  -29.7271   25.4649 H   0  0  0  0  0  0
  -27.8753  -30.4322   23.9362 H   0  0  0  0  0  0
  -27.2683  -33.3615   26.2083 H   0  0  0  0  0  0
  -28.3863  -32.6877   25.0314 H   0  0  0  0  0  0
  -28.0740  -31.8431   26.5397 H   0  0  0  0  0  0
  -28.2602  -38.0099   24.7513 H   0  0  0  0  0  0
  -28.1067  -36.2632   24.6286 H   0  0  0  0  0  0
  -27.2303  -37.1452   25.8870 H   0  0  0  0  0  0
  -20.9336  -29.8784   21.6934 H   0  0  0  0  0  0
  -26.0178  -38.2869   24.1401 H   0  0  0  0  0  0
  -28.3015  -18.9775   18.7784 H   0  0  0  0  0  0
  -29.0510  -18.2122   22.5447 H   0  0  0  0  0  0
  -28.3045  -17.8115   20.9435 H   0  0  0  0  0  0
  -30.0389  -17.6677   19.1119 H   0  0  0  0  0  0
  -31.6923  -18.0261   19.7463 H   0  0  0  0  0  0
  -31.1602  -17.0621   21.9520 H   0  0  0  0  0  0
  -31.1628  -20.9288   22.0959 H   0  0  0  0  0  0
  -30.1499  -22.2963   22.5273 H   0  0  0  0  0  0
  -31.4651  -22.4889   21.3616 H   0  0  0  0  0  0
  -26.6744  -19.8634   17.2156 H   0  0  0  0  0  0
  -27.5679  -21.0959   16.3232 H   0  0  0  0  0  0
  -26.1942  -21.5530   17.3416 H   0  0  0  0  0  0
  -31.4616  -23.9581   19.4461 H   0  0  0  0  0  0
  -30.8639  -25.6095   19.4800 H   0  0  0  0  0  0
  -30.3545  -24.5150   18.1970 H   0  0  0  0  0  0
  -27.3540  -24.7645   20.5357 H   0  0  0  0  0  0
  -27.8547  -24.9928   18.8677 H   0  0  0  0  0  0
  -29.6779  -24.2395   21.1667 H   0  0  0  0  0  0
  -27.8926  -23.0938   18.2809 H   0  0  0  0  0  0
  -28.9643  -15.3902   21.1934 H   0  0  0  0  0  0
  1 25  1  0  0  0
  1 30  2  0  0  0
  1 86  1  0  0  0
  2  3  1  0  0  0
  2 25  1  0  0  0
  2 87  1  0  0  0
  2 88  1  0  0  0
  3  4  1  0  0  0
  3 89  1  0  0  0
  3 90  1  0  0  0
  4  5  1  0  0  0
  4 91  1  0  0  0
  4 92  1  0  0  0
  5  6  1  0  0  0
  5 26  1  0  0  0
  5 93  1  0  0  0
  6 25  1  0  0  0
  6 94  1  0  0  0
  6 95  1  0  0  0
  7  8  2  0  0  0
  7 26  1  0  0  0
  7 29  1  0  0  0
  8  9  1  0  0  0
  8 22  1  0  0  0
  9 10  1  0  0  0
  9 27  2  0  0  0
 10 11  2  0  0  0
 10 15  1  0  0  0
 11 12  1  0  0  0
 11 96  1  0  0  0
 12 13  2  0  0  0
 12 97  1  0  0  0
 13 14  1  0  0  0
 13 31  1  0  0  0
 14 15  2  0  0  0
 14 98  1  0  0  0
 15 99  1  0  0  0
 16 17  2  0  0  0
 16 21  1  0  0  0
 16 31  1  0  0  0
 17 18  1  0  0  0
 17100  1  0  0  0
 18 19  2  0  0  0
 18101  1  0  0  0
 19 20  1  0  0  0
 19 24  1  0  0  0
 20 21  2  0  0  0
 20102  1  0  0  0
 21 23  1  0  0  0
 22 28  1  0  0  0
 22 32  2  0  0  0
 26 27  1  0  0  0
 28103  1  0  0  0
 28104  1  0  0  0
 29105  1  0  0  0
 29106  1  0  0  0
 33 34  1  0  0  0
 33 66  1  0  0  0
 33 70  2  0  0  0
 34 36  1  0  0  0
 34 59  1  0  0  0
 34107  1  0  0  0
 35 44  2  0  0  0
 35 45  1  0  0  0
 35 68  1  0  0  0
 36 56  1  0  0  0
 36108  1  0  0  0
 37 39  1  0  0  0
 37 47  1  0  0  0
 37 66  1  0  0  0
 37109  1  0  0  0
 38 43  2  0  0  0
 38 46  1  0  0  0
 38 47  1  0  0  0
 39 64  1  0  0  0
 39 67  2  0  0  0
 40 52  1  0  0  0
 40 53  2  0  0  0
 40 58  1  0  0  0
 41110  1  0  0  0
 41111  1  0  0  0
 41112  1  0  0  0
 41 48  1  0  0  0
 42 43  1  0  0  0
 42 66  1  0  0  0
 42113  1  0  0  0
 42114  1  0  0  0
 43 44  1  0  0  0
 44115  1  0  0  0
 45 46  2  0  0  0
 45116  1  0  0  0
 46117  1  0  0  0
 47118  1  0  0  0
 47119  1  0  0  0
 48 56  1  0  0  0
 48 65  1  0  0  0
 48120  1  0  0  0
 49 50  1  0  0  0
 49 53  1  0  0  0
 49 64  1  0  0  0
 49121  1  0  0  0
 50 51  1  0  0  0
 50122  1  0  0  0
 50123  1  0  0  0
 51 52  1  0  0  0
 51124  1  0  0  0
 51125  1  0  0  0
 52126  1  0  0  0
 52127  1  0  0  0
 53 54  1  0  0  0
 54 55  2  0  0  0
 54128  1  0  0  0
 55 57  1  0  0  0
 55129  1  0  0  0
 56 69  2  0  0  0
 57 58  2  0  0  0
 57130  1  0  0  0
 58131  1  0  0  0
 59 60  1  0  0  0
 59 61  1  0  0  0
 59 62  1  0  0  0
 60132  1  0  0  0
 60133  1  0  0  0
 60134  1  0  0  0
 61135  1  0  0  0
 61136  1  0  0  0
 61137  1  0  0  0
 62138  1  0  0  0
 62139  1  0  0  0
 62140  1  0  0  0
 63 65  1  0  0  0
 63141  1  0  0  0
 63142  1  0  0  0
 63143  1  0  0  0
 64144  1  0  0  0
 65145  1  0  0  0
 68 82  1  0  0  0
 71 73  2  0  0  0
 71 74  1  0  0  0
 71146  1  0  0  0
 72 73  1  0  0  0
 72 75  2  0  0  0
 72 79  1  0  0  0
 73 85  1  0  0  0
 74 80  1  0  0  0
 74 84  2  0  0  0
 75 83  1  0  0  0
 75 84  1  0  0  0
 76 78  1  0  0  0
 76 85  1  0  0  0
 76147  1  0  0  0
 76148  1  0  0  0
 77 78  1  0  0  0
 77 85  1  0  0  0
 77149  1  0  0  0
 77150  1  0  0  0
 78 86  1  0  0  0
 78151  1  0  0  0
 79152  1  0  0  0
 79153  1  0  0  0
 79154  1  0  0  0
 80155  1  0  0  0
 80156  1  0  0  0
 80157  1  0  0  0
 81158  1  0  0  0
 81159  1  0  0  0
 81160  1  0  0  0
 81 83  1  0  0  0
 82 83  1  0  0  0
 82161  1  0  0  0
 82162  1  0  0  0
 83163  1  0  0  0
 84164  1  0  0  0
 86165  1  0  0  0
M  CHG  1  84   1
M  ISO  4   1 100  68 101  82 101  86 100
M  END
> <chiral flag>
0

> <version>
0

> <s_m_source_file>
/data/baiqing/PycharmProjects/Reinvent-master-3.2/result/LINK_invent/BTK/process_docking_weight1_custom_sum_contain_oxygen_bond_distance_aromatic_linkinvent_7_9_3/rearranged_h_0169.sdf

> <i_m_source_file_index>
47

> <r_mmod_Potential_Energy-OPLS-2005>
-58.1940574645996

> <r_mmod_Stretch_Energy-OPLS-2005>
62.5943298339844

> <r_mmod_Bend_Energy-OPLS-2005>
149.89306640625

> <r_mmod_Torsional_Energy-OPLS-2005>
233.489303588867

> <r_mmod_Improper_Torsional_Energy-OPLS-2005>
12.0290460586548

> <r_mmod_Van_der_Waal_Energy-OPLS-2005>
154.731079101562

> <r_mmod_Electrostatic_Energy-OPLS-2005>
-287.322631835938

> <r_mmod_Solvation_Energy-OPLS-2005>
-413.422241210938

> <b_mmod_Minimization_Converged-OPLS-2005>
0

> <r_mmod_RMS_Derivative-OPLS-2005>
1.05482459068298

$$$$
47
                    3D
 Structure written by MMmdl.
161172  0  0  1  0            999 V2000
  -30.5504  -15.0088   20.4695 C   0  0  0  0  0  0
  -30.4416  -12.6461   19.5170 C   0  0  0  0  0  0
  -29.5308  -12.5536   18.2684 C   0  0  0  0  0  0
  -28.0560  -12.3472   18.6679 C   0  0  0  0  0  0
  -27.6241  -13.2670   19.8411 C   0  0  2  0  0  0
  -28.6666  -13.2883   20.9817 C   0  0  0  0  0  0
  -25.2377  -13.8246   20.5764 C   0  0  0  0  0  0
  -24.1713  -13.0427   20.9238 C   0  0  0  0  0  0
  -24.6385  -11.6926   20.8724 C   0  0  0  0  0  0
  -23.9094  -10.4281   21.0370 C   0  0  0  0  0  0
  -24.3633   -9.4194   21.9140 C   0  0  0  0  0  0
  -23.6317   -8.2231   22.0725 C   0  0  0  0  0  0
  -22.4286   -8.0271   21.3532 C   0  0  0  0  0  0
  -21.9926   -9.0238   20.4669 C   0  0  0  0  0  0
  -22.7256  -10.2121   20.3056 C   0  0  0  0  0  0
  -21.6858   -6.0748   22.5276 C   0  0  0  0  0  0
  -21.4011   -6.5640   23.8220 C   0  0  0  0  0  0
  -21.3669   -5.6779   24.9170 C   0  0  0  0  0  0
  -21.6046   -4.3044   24.7198 C   0  0  0  0  0  0
  -21.8813   -3.8155   23.4324 C   0  0  0  0  0  0
  -21.9185   -4.6984   22.3378 C   0  0  0  0  0  0
  -22.7706  -13.5176   21.1912 C   0  0  0  0  0  0
  -22.1647   -4.2146   21.0964 F   0  0  0  0  0  0
  -21.5650   -3.4528   25.7721 F   0  0  0  0  0  0
  -29.9300  -13.7511   20.3892 N   0  0  0  0  0  0
  -26.2850  -12.9525   20.3260 N   0  0  0  0  0  0
  -25.9338  -11.6635   20.5693 N   0  0  0  0  0  0
  -22.0360  -12.8201   22.0488 N   0  0  0  0  0  0
  -25.4009  -15.1979   20.4363 N   0  0  0  0  0  0
  -31.7461  -15.0189   20.1483 O   0  0  0  0  0  0
  -21.6633   -6.8883   21.4245 O   0  0  0  0  0  0
  -22.3371  -14.5453   20.6740 O   0  0  0  0  0  0
  -24.6484  -31.8384   23.1828 C   0  0  0  0  0  0
  -25.9228  -32.4661   23.8257 C   0  0  1  0  0  0
  -27.2266  -27.0840   20.1591 C   0  0  0  0  0  0
  -25.5960  -33.8469   24.2154 N   0  0  0  0  0  0
  -23.4567  -30.4548   21.5283 C   0  0  2  0  0  0
  -24.9117  -28.8748   20.1067 C   0  0  0  0  0  0
  -22.7612  -29.4508   22.4801 C   0  0  0  0  0  0
  -18.0307  -28.1393   22.8464 C   0  0  0  0  0  0
  -24.1493  -36.7244   23.2640 C   0  0  0  0  0  0
  -26.0171  -30.6927   21.3976 C   0  0  0  0  0  0
  -26.0892  -29.3008   20.7342 C   0  0  0  0  0  0
  -27.2448  -28.4231   20.7425 C   0  0  0  0  0  0
  -26.0227  -26.7749   19.4859 C   0  0  0  0  0  0
  -24.8960  -27.6283   19.4638 C   0  0  0  0  0  0
  -23.6906  -29.7841   20.1474 C   0  0  0  0  0  0
  -25.4124  -36.2997   24.0299 C   0  0  1  0  0  0
  -20.5936  -28.3729   23.1202 C   0  0  2  0  0  0
  -20.6782  -26.9418   22.5403 C   0  0  0  0  0  0
  -19.5752  -26.6368   21.5212 C   0  0  0  0  0  0
  -18.1936  -26.7926   22.1624 C   0  0  0  0  0  0
  -19.1570  -28.8885   23.2820 C   0  0  0  0  0  0
  -18.9486  -30.1478   23.8842 C   0  0  0  0  0  0
  -17.6480  -30.6590   24.0560 C   0  0  0  0  0  0
  -25.9087  -34.9383   23.5029 C   0  0  0  0  0  0
  -16.5370  -29.9079   23.6338 C   0  0  0  0  0  0
  -16.7294  -28.6503   23.0349 C   0  0  0  0  0  0
  -26.4525  -31.6559   25.0738 C   0  0  0  0  0  0
  -25.3706  -31.3819   26.1451 C   0  0  0  0  0  0
  -27.0395  -30.2921   24.6416 C   0  0  0  0  0  0
  -27.6024  -32.4372   25.7523 C   0  0  0  0  0  0
  -27.5591  -37.1748   24.8430 C   0  0  0  0  0  0
  -21.4295  -29.3034   22.3575 N   0  0  0  0  0  0
  -26.4261  -37.3737   23.9431 N   0  0  0  0  0  0
  -24.7266  -31.0179   22.0904 N   0  0  0  0  0  0
  -23.4217  -28.8058   23.2987 O   0  0  0  0  0  0
  -28.2588  -26.0583   20.2507 O   0  0  0  0  0  0
  -26.5685  -34.8895   22.4619 O   0  0  0  0  0  0
  -23.5583  -32.1311   23.6984 O   0  0  0  0  0  0
  -28.6173  -21.7355   20.1696 C   0  0  0  0  0  0
  -30.0841  -23.3641   21.1247 C   0  0  0  0  0  0
  -29.4346  -20.5650   20.6371 C   0  0  0  0  0  0
  -28.8872  -23.1893   20.4179 C   0  0  0  0  0  0
  -30.5345  -21.0335   21.4090 C   0  0  0  0  0  0
  -30.8639  -19.1503   23.1853 C   0  0  0  0  0  0
  -31.7142  -20.2964   23.6462 C   0  0  0  0  0  0
  -27.7808  -18.5635   19.9354 C   0  0  0  0  0  0
  -28.6685  -16.5877   21.4322 C   0  0  0  0  0  0
  -30.2827  -17.7303   20.2233 C   0  0  0  0  0  0
  -31.4477  -20.1103   22.1635 C   0  0  0  0  0  0
  -28.2098  -18.0661   21.2839 C   0  0  1  0  0  0
  -29.1625  -18.9056   20.4510 C   0  0  1  0  0  0
  -27.9659  -24.5244   20.0034 C   0  0  0  0  0  0
  -30.8507  -22.3434   21.5918 N   0  0  0  0  0  0
  -29.8512  -16.2708   20.5959 N   0  0  0  0  0  0
  -31.4745  -12.8073   19.2031 H   0  0  0  0  0  0
  -30.4526  -11.7041   20.0647 H   0  0  0  0  0  0
  -29.8664  -11.7467   17.6161 H   0  0  0  0  0  0
  -29.6249  -13.4701   17.6870 H   0  0  0  0  0  0
  -27.9344  -11.3025   18.9557 H   0  0  0  0  0  0
  -27.4084  -12.4996   17.8019 H   0  0  0  0  0  0
  -27.5857  -14.2740   19.4216 H   0  0  0  0  0  0
  -28.7713  -12.2996   21.4301 H   0  0  0  0  0  0
  -28.3571  -13.9393   21.7949 H   0  0  0  0  0  0
  -25.2768   -9.5683   22.4719 H   0  0  0  0  0  0
  -24.0028   -7.4638   22.7443 H   0  0  0  0  0  0
  -21.0841   -8.8778   19.9006 H   0  0  0  0  0  0
  -22.3675  -10.9660   19.6184 H   0  0  0  0  0  0
  -21.1989   -7.6146   23.9725 H   0  0  0  0  0  0
  -21.1519   -6.0501   25.9078 H   0  0  0  0  0  0
  -22.0597   -2.7630   23.2797 H   0  0  0  0  0  0
  -22.3991  -11.9897   22.4930 H   0  0  0  0  0  0
  -21.0998  -13.1286   22.2718 H   0  0  0  0  0  0
  -24.6667  -15.8511   20.6845 H   0  0  0  0  0  0
  -26.2829  -15.6517   20.2360 H   0  0  0  0  0  0
  -26.7296  -32.5239   23.0982 H   0  0  0  0  0  0
  -25.0063  -33.9586   25.0270 H   0  0  0  0  0  0
  -22.7617  -31.2813   21.3691 H   0  0  0  0  0  0
  -23.3781  -35.9544   23.3209 H   0  0  0  0  0  0
  -24.3585  -36.8996   22.2077 H   0  0  0  0  0  0
  -23.7225  -37.6388   23.6768 H   0  0  0  0  0  0
  -26.1924  -31.4506   20.6329 H   0  0  0  0  0  0
  -26.8769  -30.7326   22.0541 H   0  0  0  0  0  0
  -28.1376  -28.7433   21.2614 H   0  0  0  0  0  0
  -25.9176  -25.8227   18.9874 H   0  0  0  0  0  0
  -24.0009  -27.2979   18.9543 H   0  0  0  0  0  0
  -23.8378  -30.5609   19.3959 H   0  0  0  0  0  0
  -22.8051  -29.2323   19.8268 H   0  0  0  0  0  0
  -25.1315  -36.1788   25.0785 H   0  0  0  0  0  0
  -21.0009  -28.3320   24.1327 H   0  0  0  0  0  0
  -20.5661  -26.2346   23.3636 H   0  0  0  0  0  0
  -21.6647  -26.7397   22.1219 H   0  0  0  0  0  0
  -19.6913  -25.6265   21.1272 H   0  0  0  0  0  0
  -19.6687  -27.3151   20.6718 H   0  0  0  0  0  0
  -17.4209  -26.6666   21.4027 H   0  0  0  0  0  0
  -18.0326  -26.0084   22.9034 H   0  0  0  0  0  0
  -19.7968  -30.7308   24.2177 H   0  0  0  0  0  0
  -17.5039  -31.6254   24.5186 H   0  0  0  0  0  0
  -15.5370  -30.2962   23.7700 H   0  0  0  0  0  0
  -15.8694  -28.0818   22.7067 H   0  0  0  0  0  0
  -24.5625  -30.7529   25.7704 H   0  0  0  0  0  0
  -24.9255  -32.3080   26.5101 H   0  0  0  0  0  0
  -25.7915  -30.8677   27.0104 H   0  0  0  0  0  0
  -26.3032  -29.6616   24.1424 H   0  0  0  0  0  0
  -27.3931  -29.7264   25.5049 H   0  0  0  0  0  0
  -27.8986  -30.4088   23.9806 H   0  0  0  0  0  0
  -27.2505  -33.3563   26.2226 H   0  0  0  0  0  0
  -28.3748  -32.7158   25.0340 H   0  0  0  0  0  0
  -28.0828  -31.8493   26.5356 H   0  0  0  0  0  0
  -28.2511  -38.0137   24.7586 H   0  0  0  0  0  0
  -28.1179  -36.2674   24.6089 H   0  0  0  0  0  0
  -27.2339  -37.1189   25.8831 H   0  0  0  0  0  0
  -20.9518  -29.8755   21.6756 H   0  0  0  0  0  0
  -26.0110  -38.2775   24.1520 H   0  0  0  0  0  0
  -27.7226  -21.5085   19.6074 H   0  0  0  0  0  0
  -30.4411  -24.3562   21.3576 H   0  0  0  0  0  0
  -29.7951  -19.2118   23.3794 H   0  0  0  0  0  0
  -31.2954  -18.1534   23.2480 H   0  0  0  0  0  0
  -32.7060  -20.0430   24.0168 H   0  0  0  0  0  0
  -31.2146  -21.1130   24.1609 H   0  0  0  0  0  0
  -27.0039  -19.3212   19.9369 H   0  0  0  0  0  0
  -27.7055  -17.8257   19.1388 H   0  0  0  0  0  0
  -27.8288  -15.9477   21.1863 H   0  0  0  0  0  0
  -28.9210  -16.4033   22.4781 H   0  0  0  0  0  0
  -31.1656  -17.9273   20.8225 H   0  0  0  0  0  0
  -30.6184  -17.7506   19.1860 H   0  0  0  0  0  0
  -32.2949  -19.7951   21.5561 H   0  0  0  0  0  0
  -27.7287  -18.5158   22.1516 H   0  0  0  0  0  0
  -26.9984  -24.3299   20.4671 H   0  0  0  0  0  0
  -27.7968  -24.4243   18.9306 H   0  0  0  0  0  0
  1 25  1  0  0  0
  1 30  2  0  0  0
  1 86  1  0  0  0
  2  3  1  0  0  0
  2 25  1  0  0  0
  2 87  1  0  0  0
  2 88  1  0  0  0
  3  4  1  0  0  0
  3 89  1  0  0  0
  3 90  1  0  0  0
  4  5  1  0  0  0
  4 91  1  0  0  0
  4 92  1  0  0  0
  5  6  1  0  0  0
  5 26  1  0  0  0
  5 93  1  0  0  0
  6 25  1  0  0  0
  6 94  1  0  0  0
  6 95  1  0  0  0
  7  8  2  0  0  0
  7 26  1  0  0  0
  7 29  1  0  0  0
  8  9  1  0  0  0
  8 22  1  0  0  0
  9 10  1  0  0  0
  9 27  2  0  0  0
 10 11  2  0  0  0
 10 15  1  0  0  0
 11 12  1  0  0  0
 11 96  1  0  0  0
 12 13  2  0  0  0
 12 97  1  0  0  0
 13 14  1  0  0  0
 13 31  1  0  0  0
 14 15  2  0  0  0
 14 98  1  0  0  0
 15 99  1  0  0  0
 16 17  2  0  0  0
 16 21  1  0  0  0
 16 31  1  0  0  0
 17 18  1  0  0  0
 17100  1  0  0  0
 18 19  2  0  0  0
 18101  1  0  0  0
 19 20  1  0  0  0
 19 24  1  0  0  0
 20 21  2  0  0  0
 20102  1  0  0  0
 21 23  1  0  0  0
 22 28  1  0  0  0
 22 32  2  0  0  0
 26 27  1  0  0  0
 28103  1  0  0  0
 28104  1  0  0  0
 29105  1  0  0  0
 29106  1  0  0  0
 33 34  1  0  0  0
 33 66  1  0  0  0
 33 70  2  0  0  0
 34 36  1  0  0  0
 34 59  1  0  0  0
 34107  1  0  0  0
 35 44  2  0  0  0
 35 45  1  0  0  0
 35 68  1  0  0  0
 36 56  1  0  0  0
 36108  1  0  0  0
 37 39  1  0  0  0
 37 47  1  0  0  0
 37 66  1  0  0  0
 37109  1  0  0  0
 38 43  2  0  0  0
 38 46  1  0  0  0
 38 47  1  0  0  0
 39 64  1  0  0  0
 39 67  2  0  0  0
 40 52  1  0  0  0
 40 53  2  0  0  0
 40 58  1  0  0  0
 41110  1  0  0  0
 41111  1  0  0  0
 41112  1  0  0  0
 41 48  1  0  0  0
 42 43  1  0  0  0
 42 66  1  0  0  0
 42113  1  0  0  0
 42114  1  0  0  0
 43 44  1  0  0  0
 44115  1  0  0  0
 45 46  2  0  0  0
 45116  1  0  0  0
 46117  1  0  0  0
 47118  1  0  0  0
 47119  1  0  0  0
 48 56  1  0  0  0
 48 65  1  0  0  0
 48120  1  0  0  0
 49 50  1  0  0  0
 49 53  1  0  0  0
 49 64  1  0  0  0
 49121  1  0  0  0
 50 51  1  0  0  0
 50122  1  0  0  0
 50123  1  0  0  0
 51 52  1  0  0  0
 51124  1  0  0  0
 51125  1  0  0  0
 52126  1  0  0  0
 52127  1  0  0  0
 53 54  1  0  0  0
 54 55  2  0  0  0
 54128  1  0  0  0
 55 57  1  0  0  0
 55129  1  0  0  0
 56 69  2  0  0  0
 57 58  2  0  0  0
 57130  1  0  0  0
 58131  1  0  0  0
 59 60  1  0  0  0
 59 61  1  0  0  0
 59 62  1  0  0  0
 60132  1  0  0  0
 60133  1  0  0  0
 60134  1  0  0  0
 61135  1  0  0  0
 61136  1  0  0  0
 61137  1  0  0  0
 62138  1  0  0  0
 62139  1  0  0  0
 62140  1  0  0  0
 63 65  1  0  0  0
 63141  1  0  0  0
 63142  1  0  0  0
 63143  1  0  0  0
 64144  1  0  0  0
 65145  1  0  0  0
 68 84  1  0  0  0
 71 73  2  0  0  0
 71 74  1  0  0  0
 71146  1  0  0  0
 72 74  2  0  0  0
 72 85  1  0  0  0
 72147  1  0  0  0
 73 75  1  0  0  0
 73 83  1  0  0  0
 74 84  1  0  0  0
 75 85  2  0  0  0
 75 81  1  0  0  0
 76 77  1  0  0  0
 76 81  1  0  0  0
 76148  1  0  0  0
 76149  1  0  0  0
 77 81  1  0  0  0
 77150  1  0  0  0
 77151  1  0  0  0
 78 83  1  0  0  0
 78152  1  0  0  0
 78153  1  0  0  0
 78 82  1  0  0  0
 79 82  1  0  0  0
 79 86  1  0  0  0
 79154  1  0  0  0
 79155  1  0  0  0
 80 83  1  0  0  0
 80 86  1  0  0  0
 80156  1  0  0  0
 80157  1  0  0  0
 81158  1  0  0  0
 82 83  1  0  0  0
 82159  1  0  0  0
 84160  1  0  0  0
 84161  1  0  0  0
M  ISO  4   1 100  68 101  84 101  86 100
M  END
> <chiral flag>
0

> <version>
0

> <s_m_source_file>
/data/baiqing/PycharmProjects/Reinvent-master-3.2/result/LINK_invent/BTK/process_docking_weight1_custom_sum_contain_oxygen_bond_distance_aromatic_linkinvent_7_9_3/rearranged_h_0169.sdf

> <i_m_source_file_index>
48

> <r_mmod_Potential_Energy-OPLS-2005>
738.169799804688

> <r_mmod_Stretch_Energy-OPLS-2005>
309.908721923828

> <r_mmod_Bend_Energy-OPLS-2005>
330.150817871094

> <r_mmod_Torsional_Energy-OPLS-2005>
383.908660888672

> <r_mmod_Improper_Torsional_Energy-OPLS-2005>
8.4968147277832

> <r_mmod_Van_der_Waal_Energy-OPLS-2005>
123.12109375

> <r_mmod_Electrostatic_Energy-OPLS-2005>
-441.964538574219

> <r_mmod_Solvation_Energy-OPLS-2005>
-212.157958984375

> <b_mmod_Minimization_Converged-OPLS-2005>
0

> <r_mmod_RMS_Derivative-OPLS-2005>
4.59596014022827

$$$$
48
                    3D
 Structure written by MMmdl.
159168  0  0  1  0            999 V2000
  -30.6632  -14.8244   20.4355 C   0  0  0  0  0  0
  -30.4147  -12.5157   19.4805 C   0  0  0  0  0  0
  -29.5020  -12.5024   18.2376 C   0  0  0  0  0  0
  -28.0373  -12.2968   18.6621 C   0  0  0  0  0  0
  -27.6240  -13.2328   19.8263 C   0  0  2  0  0  0
  -28.6726  -13.2735   20.9617 C   0  0  0  0  0  0
  -25.2438  -13.8167   20.5683 C   0  0  0  0  0  0
  -24.1756  -13.0412   20.9226 C   0  0  0  0  0  0
  -24.6362  -11.6900   20.8767 C   0  0  0  0  0  0
  -23.9051  -10.4278   21.0422 C   0  0  0  0  0  0
  -24.3605   -9.4196   21.9191 C   0  0  0  0  0  0
  -23.6287   -8.2228   22.0751 C   0  0  0  0  0  0
  -22.4273   -8.0264   21.3540 C   0  0  0  0  0  0
  -21.9908   -9.0239   20.4644 C   0  0  0  0  0  0
  -22.7233  -10.2119   20.3065 C   0  0  0  0  0  0
  -21.6846   -6.0725   22.5277 C   0  0  0  0  0  0
  -21.4009   -6.5633   23.8211 C   0  0  0  0  0  0
  -21.3662   -5.6785   24.9171 C   0  0  0  0  0  0
  -21.6047   -4.3046   24.7224 C   0  0  0  0  0  0
  -21.8816   -3.8140   23.4342 C   0  0  0  0  0  0
  -21.9190   -4.6957   22.3399 C   0  0  0  0  0  0
  -22.7783  -13.5206   21.1875 C   0  0  0  0  0  0
  -22.1662   -4.2145   21.0974 F   0  0  0  0  0  0
  -21.5634   -3.4530   25.7736 F   0  0  0  0  0  0
  -29.9592  -13.6311   20.3538 N   0  0  0  0  0  0
  -26.2853  -12.9382   20.3217 N   0  0  0  0  0  0
  -25.9292  -11.6529   20.5750 N   0  0  0  0  0  0
  -22.0416  -12.8214   22.0434 N   0  0  0  0  0  0
  -25.4052  -15.1887   20.4058 N   0  0  0  0  0  0
  -31.8752  -14.7718   20.2019 O   0  0  0  0  0  0
  -21.6632   -6.8867   21.4238 O   0  0  0  0  0  0
  -22.3479  -14.5517   20.6714 O   0  0  0  0  0  0
  -24.6350  -31.8516   23.1944 C   0  0  0  0  0  0
  -25.9159  -32.4728   23.8310 C   0  0  1  0  0  0
  -27.2248  -27.2283   20.1198 C   0  0  0  0  0  0
  -25.5936  -33.8536   24.2228 N   0  0  0  0  0  0
  -23.4337  -30.4731   21.5377 C   0  0  2  0  0  0
  -24.8812  -28.9148   20.1047 C   0  0  0  0  0  0
  -22.7525  -29.4586   22.4888 C   0  0  0  0  0  0
  -18.0295  -28.1398   22.8480 C   0  0  0  0  0  0
  -24.1489  -36.7281   23.2641 C   0  0  0  0  0  0
  -25.9823  -30.7528   21.3792 C   0  0  0  0  0  0
  -26.0530  -29.3728   20.7185 C   0  0  0  0  0  0
  -27.2220  -28.5400   20.7189 C   0  0  0  0  0  0
  -26.0209  -26.8411   19.4887 C   0  0  0  0  0  0
  -24.8719  -27.6583   19.4800 C   0  0  0  0  0  0
  -23.6535  -29.8057   20.1543 C   0  0  0  0  0  0
  -25.4116  -36.3055   24.0320 C   0  0  1  0  0  0
  -20.5901  -28.3714   23.1253 C   0  0  2  0  0  0
  -20.6778  -26.9428   22.5404 C   0  0  0  0  0  0
  -19.5750  -26.6386   21.5212 C   0  0  0  0  0  0
  -18.1932  -26.7937   22.1624 C   0  0  0  0  0  0
  -19.1550  -28.8873   23.2856 C   0  0  0  0  0  0
  -18.9469  -30.1471   23.8876 C   0  0  0  0  0  0
  -17.6470  -30.6591   24.0563 C   0  0  0  0  0  0
  -25.9064  -34.9426   23.5082 C   0  0  0  0  0  0
  -16.5359  -29.9088   23.6335 C   0  0  0  0  0  0
  -16.7282  -28.6511   23.0349 C   0  0  0  0  0  0
  -26.4510  -31.6572   25.0724 C   0  0  0  0  0  0
  -25.3719  -31.3742   26.1438 C   0  0  0  0  0  0
  -27.0363  -30.2976   24.6252 C   0  0  0  0  0  0
  -27.6055  -32.4320   25.7500 C   0  0  0  0  0  0
  -27.5574  -37.1792   24.8464 C   0  0  0  0  0  0
  -21.4230  -29.3051   22.3636 N   0  0  0  0  0  0
  -26.4287  -37.3756   23.9405 N   0  0  0  0  0  0
  -24.7029  -31.0449   22.0931 N   0  0  0  0  0  0
  -23.4212  -28.8135   23.3005 O   0  0  0  0  0  0
  -28.3128  -26.3167   20.2272 O   0  0  0  0  0  0
  -26.5649  -34.8910   22.4659 O   0  0  0  0  0  0
  -23.5489  -32.1360   23.7208 O   0  0  0  0  0  0
  -29.3422  -21.6025   21.2288 C   0  0  0  0  0  0
  -29.0997  -23.0172   21.0596 C   0  0  0  0  0  0
  -29.1451  -20.6324   20.1862 C   0  0  0  0  0  0
  -28.6738  -21.2657   18.9823 C   0  0  0  0  0  0
  -28.6177  -23.5402   19.8293 C   0  0  0  0  0  0
  -27.8617  -20.8878   16.6316 C   0  0  0  0  0  0
  -28.4787  -20.4694   17.7526 C   0  0  0  0  0  0
  -30.3742  -18.6723   21.3217 C   0  0  0  0  0  0
  -28.3885  -18.1603   20.1429 C   0  0  0  0  0  0
  -30.9854  -17.2495   20.9855 C   0  0  0  0  0  0
  -28.8174  -16.6126   20.0396 C   0  0  0  0  0  0
  -28.4708  -25.0873   19.3627 C   0  0  0  0  0  0
  -28.4122  -22.6147   18.8459 N   0  0  0  0  0  0
  -29.4442  -19.1888   20.3072 N   0  0  0  0  0  0
  -30.0797  -16.0962   20.6586 N   0  0  0  0  0  0
  -31.4560  -12.6187   19.1695 H   0  0  0  0  0  0
  -30.3582  -11.5644   20.0126 H   0  0  0  0  0  0
  -29.8084  -11.7133   17.5502 H   0  0  0  0  0  0
  -29.6029  -13.4431   17.6934 H   0  0  0  0  0  0
  -27.9260  -11.2558   18.9677 H   0  0  0  0  0  0
  -27.3718  -12.4374   17.8092 H   0  0  0  0  0  0
  -27.5790  -14.2181   19.3703 H   0  0  0  0  0  0
  -28.7385  -12.3122   21.4720 H   0  0  0  0  0  0
  -28.3917  -14.0082   21.7182 H   0  0  0  0  0  0
  -25.2740   -9.5691   22.4774 H   0  0  0  0  0  0
  -23.9992   -7.4621   22.7476 H   0  0  0  0  0  0
  -21.0835   -8.8764   19.8959 H   0  0  0  0  0  0
  -22.3679  -10.9660   19.6186 H   0  0  0  0  0  0
  -21.2003   -7.6143   23.9711 H   0  0  0  0  0  0
  -21.1491   -6.0517   25.9076 H   0  0  0  0  0  0
  -22.0599   -2.7605   23.2834 H   0  0  0  0  0  0
  -22.4025  -11.9885   22.4847 H   0  0  0  0  0  0
  -21.1042  -13.1262   22.2626 H   0  0  0  0  0  0
  -24.6307  -15.8348   20.5147 H   0  0  0  0  0  0
  -26.2422  -15.6282   20.0507 H   0  0  0  0  0  0
  -26.7231  -32.5361   23.1053 H   0  0  0  0  0  0
  -25.0044  -33.9665   25.0345 H   0  0  0  0  0  0
  -22.7315  -31.2960   21.3888 H   0  0  0  0  0  0
  -23.3746  -35.9620   23.3305 H   0  0  0  0  0  0
  -24.3576  -36.8910   22.2056 H   0  0  0  0  0  0
  -23.7251  -37.6482   23.6677 H   0  0  0  0  0  0
  -26.1271  -31.5128   20.6099 H   0  0  0  0  0  0
  -26.8576  -30.8000   22.0166 H   0  0  0  0  0  0
  -28.1164  -28.8835   21.2194 H   0  0  0  0  0  0
  -25.9131  -25.8667   19.0392 H   0  0  0  0  0  0
  -23.9708  -27.2968   19.0036 H   0  0  0  0  0  0
  -23.7781  -30.5812   19.3972 H   0  0  0  0  0  0
  -22.7717  -29.2392   19.8494 H   0  0  0  0  0  0
  -25.1297  -36.1898   25.0811 H   0  0  0  0  0  0
  -20.9987  -28.3302   24.1375 H   0  0  0  0  0  0
  -20.5672  -26.2335   23.3618 H   0  0  0  0  0  0
  -21.6646  -26.7440   22.1200 H   0  0  0  0  0  0
  -19.6910  -25.6291   21.1254 H   0  0  0  0  0  0
  -19.6682  -27.3186   20.6732 H   0  0  0  0  0  0
  -17.4199  -26.6679   21.4030 H   0  0  0  0  0  0
  -18.0335  -26.0085   22.9027 H   0  0  0  0  0  0
  -19.7948  -30.7288   24.2234 H   0  0  0  0  0  0
  -17.5027  -31.6269   24.5172 H   0  0  0  0  0  0
  -15.5359  -30.2986   23.7666 H   0  0  0  0  0  0
  -15.8685  -28.0825   22.7065 H   0  0  0  0  0  0
  -24.5882  -30.7111   25.7761 H   0  0  0  0  0  0
  -24.8931  -32.2922   26.4858 H   0  0  0  0  0  0
  -25.8020  -30.8912   27.0224 H   0  0  0  0  0  0
  -26.2964  -29.6705   24.1269 H   0  0  0  0  0  0
  -27.4009  -29.7259   25.4799 H   0  0  0  0  0  0
  -27.8859  -30.4222   23.9535 H   0  0  0  0  0  0
  -27.2661  -33.3633   26.2048 H   0  0  0  0  0  0
  -28.3887  -32.6858   25.0343 H   0  0  0  0  0  0
  -28.0711  -31.8467   26.5442 H   0  0  0  0  0  0
  -28.2586  -38.0089   24.7495 H   0  0  0  0  0  0
  -28.1068  -36.2617   24.6303 H   0  0  0  0  0  0
  -27.2295  -37.1462   25.8867 H   0  0  0  0  0  0
  -20.9429  -29.8783   21.6838 H   0  0  0  0  0  0
  -26.0163  -38.2831   24.1391 H   0  0  0  0  0  0
  -29.7104  -21.2661   22.1868 H   0  0  0  0  0  0
  -29.3094  -23.6967   21.8735 H   0  0  0  0  0  0
  -27.7737  -20.2401   15.7725 H   0  0  0  0  0  0
  -27.4351  -21.8779   16.5537 H   0  0  0  0  0  0
  -28.8918  -19.4723   17.7537 H   0  0  0  0  0  0
  -31.1932  -19.3820   21.4520 H   0  0  0  0  0  0
  -29.8584  -18.6260   22.2829 H   0  0  0  0  0  0
  -27.7356  -18.2587   21.0125 H   0  0  0  0  0  0
  -27.7428  -18.4012   19.2988 H   0  0  0  0  0  0
  -31.6150  -16.9535   21.8268 H   0  0  0  0  0  0
  -31.6692  -17.3776   20.1448 H   0  0  0  0  0  0
  -28.8609  -16.3491   18.9821 H   0  0  0  0  0  0
  -27.9974  -16.0398   20.4616 H   0  0  0  0  0  0
  -27.7714  -25.1099   18.5304 H   0  0  0  0  0  0
  -29.4214  -25.2771   18.8631 H   0  0  0  0  0  0
  1 25  1  0  0  0
  1 30  2  0  0  0
  1 85  1  0  0  0
  2  3  1  0  0  0
  2 25  1  0  0  0
  2 86  1  0  0  0
  2 87  1  0  0  0
  3  4  1  0  0  0
  3 88  1  0  0  0
  3 89  1  0  0  0
  4  5  1  0  0  0
  4 90  1  0  0  0
  4 91  1  0  0  0
  5  6  1  0  0  0
  5 26  1  0  0  0
  5 92  1  0  0  0
  6 25  1  0  0  0
  6 93  1  0  0  0
  6 94  1  0  0  0
  7  8  2  0  0  0
  7 26  1  0  0  0
  7 29  1  0  0  0
  8  9  1  0  0  0
  8 22  1  0  0  0
  9 10  1  0  0  0
  9 27  2  0  0  0
 10 11  2  0  0  0
 10 15  1  0  0  0
 11 12  1  0  0  0
 11 95  1  0  0  0
 12 13  2  0  0  0
 12 96  1  0  0  0
 13 14  1  0  0  0
 13 31  1  0  0  0
 14 15  2  0  0  0
 14 97  1  0  0  0
 15 98  1  0  0  0
 16 17  2  0  0  0
 16 21  1  0  0  0
 16 31  1  0  0  0
 17 18  1  0  0  0
 17 99  1  0  0  0
 18 19  2  0  0  0
 18100  1  0  0  0
 19 20  1  0  0  0
 19 24  1  0  0  0
 20 21  2  0  0  0
 20101  1  0  0  0
 21 23  1  0  0  0
 22 28  1  0  0  0
 22 32  2  0  0  0
 26 27  1  0  0  0
 28102  1  0  0  0
 28103  1  0  0  0
 29104  1  0  0  0
 29105  1  0  0  0
 33 34  1  0  0  0
 33 66  1  0  0  0
 33 70  2  0  0  0
 34 36  1  0  0  0
 34 59  1  0  0  0
 34106  1  0  0  0
 35 44  2  0  0  0
 35 45  1  0  0  0
 35 68  1  0  0  0
 36 56  1  0  0  0
 36107  1  0  0  0
 37 39  1  0  0  0
 37 47  1  0  0  0
 37 66  1  0  0  0
 37108  1  0  0  0
 38 43  2  0  0  0
 38 46  1  0  0  0
 38 47  1  0  0  0
 39 64  1  0  0  0
 39 67  2  0  0  0
 40 52  1  0  0  0
 40 53  2  0  0  0
 40 58  1  0  0  0
 41109  1  0  0  0
 41110  1  0  0  0
 41111  1  0  0  0
 41 48  1  0  0  0
 42 43  1  0  0  0
 42 66  1  0  0  0
 42112  1  0  0  0
 42113  1  0  0  0
 43 44  1  0  0  0
 44114  1  0  0  0
 45 46  2  0  0  0
 45115  1  0  0  0
 46116  1  0  0  0
 47117  1  0  0  0
 47118  1  0  0  0
 48 56  1  0  0  0
 48 65  1  0  0  0
 48119  1  0  0  0
 49 50  1  0  0  0
 49 53  1  0  0  0
 49 64  1  0  0  0
 49120  1  0  0  0
 50 51  1  0  0  0
 50121  1  0  0  0
 50122  1  0  0  0
 51 52  1  0  0  0
 51123  1  0  0  0
 51124  1  0  0  0
 52125  1  0  0  0
 52126  1  0  0  0
 53 54  1  0  0  0
 54 55  2  0  0  0
 54127  1  0  0  0
 55 57  1  0  0  0
 55128  1  0  0  0
 56 69  2  0  0  0
 57 58  2  0  0  0
 57129  1  0  0  0
 58130  1  0  0  0
 59 60  1  0  0  0
 59 61  1  0  0  0
 59 62  1  0  0  0
 60131  1  0  0  0
 60132  1  0  0  0
 60133  1  0  0  0
 61134  1  0  0  0
 61135  1  0  0  0
 61136  1  0  0  0
 62137  1  0  0  0
 62138  1  0  0  0
 62139  1  0  0  0
 63 65  1  0  0  0
 63140  1  0  0  0
 63141  1  0  0  0
 63142  1  0  0  0
 64143  1  0  0  0
 65144  1  0  0  0
 68 82  1  0  0  0
 71 72  2  0  0  0
 71 73  1  0  0  0
 71145  1  0  0  0
 72 75  1  0  0  0
 72146  1  0  0  0
 73 74  2  0  0  0
 73 84  1  0  0  0
 74 77  1  0  0  0
 74 83  1  0  0  0
 75 82  1  0  0  0
 75 83  2  0  0  0
 76 77  2  0  0  0
 76147  1  0  0  0
 76148  1  0  0  0
 77149  1  0  0  0
 78 80  1  0  0  0
 78 84  1  0  0  0
 78150  1  0  0  0
 78151  1  0  0  0
 79 81  1  0  0  0
 79 84  1  0  0  0
 79152  1  0  0  0
 79153  1  0  0  0
 80 85  1  0  0  0
 80154  1  0  0  0
 80155  1  0  0  0
 81 85  1  0  0  0
 81156  1  0  0  0
 81157  1  0  0  0
 82158  1  0  0  0
 82159  1  0  0  0
M  ISO  4   1 100  68 101  82 101  85 100
M  END
> <chiral flag>
0

> <version>
0

> <s_m_source_file>
/data/baiqing/PycharmProjects/Reinvent-master-3.2/result/LINK_invent/BTK/process_docking_weight1_custom_sum_contain_oxygen_bond_distance_aromatic_linkinvent_7_9_3/rearranged_h_0169.sdf

> <i_m_source_file_index>
49

> <r_mmod_Potential_Energy-OPLS-2005>
418.312469482422

> <r_mmod_Stretch_Energy-OPLS-2005>
145.229919433594

> <r_mmod_Bend_Energy-OPLS-2005>
255.940979003906

> <r_mmod_Torsional_Energy-OPLS-2005>
350.193511962891

> <r_mmod_Improper_Torsional_Energy-OPLS-2005>
8.83090782165527

> <r_mmod_Van_der_Waal_Energy-OPLS-2005>
153.913223266602

> <r_mmod_Electrostatic_Energy-OPLS-2005>
-394.252532958984

> <r_mmod_Solvation_Energy-OPLS-2005>
-224.477905273438

> <b_mmod_Minimization_Converged-OPLS-2005>
0

> <r_mmod_RMS_Derivative-OPLS-2005>
1.29746735095978

$$$$
49
                    3D
 Structure written by MMmdl.
166176  0  0  1  0            999 V2000
  -30.5122  -15.0770   20.4053 C   0  0  0  0  0  0
  -30.4591  -12.6739   19.5049 C   0  0  0  0  0  0
  -29.5241  -12.5134   18.2782 C   0  0  0  0  0  0
  -28.0768  -12.2200   18.7206 C   0  0  0  0  0  0
  -27.6235  -13.1744   19.8452 C   0  0  2  0  0  0
  -28.6876  -13.2799   20.9749 C   0  0  0  0  0  0
  -25.2366  -13.7911   20.5610 C   0  0  0  0  0  0
  -24.1712  -13.0251   20.9299 C   0  0  0  0  0  0
  -24.6309  -11.6741   20.8902 C   0  0  0  0  0  0
  -23.8994  -10.4179   21.0499 C   0  0  0  0  0  0
  -24.3559   -9.4091   21.9239 C   0  0  0  0  0  0
  -23.6249   -8.2136   22.0747 C   0  0  0  0  0  0
  -22.4246   -8.0202   21.3521 C   0  0  0  0  0  0
  -21.9885   -9.0186   20.4635 C   0  0  0  0  0  0
  -22.7205  -10.2064   20.3092 C   0  0  0  0  0  0
  -21.6816   -6.0704   22.5280 C   0  0  0  0  0  0
  -21.3991   -6.5620   23.8214 C   0  0  0  0  0  0
  -21.3656   -5.6779   24.9187 C   0  0  0  0  0  0
  -21.6049   -4.3042   24.7236 C   0  0  0  0  0  0
  -21.8817   -3.8127   23.4357 C   0  0  0  0  0  0
  -21.9173   -4.6937   22.3410 C   0  0  0  0  0  0
  -22.7746  -13.5097   21.1930 C   0  0  0  0  0  0
  -22.1637   -4.2124   21.0985 F   0  0  0  0  0  0
  -21.5639   -3.4522   25.7749 F   0  0  0  0  0  0
  -29.9341  -13.7847   20.3633 N   0  0  0  0  0  0
  -26.2835  -12.9053   20.3385 N   0  0  0  0  0  0
  -25.9242  -11.6272   20.5986 N   0  0  0  0  0  0
  -22.0375  -12.8148   22.0508 N   0  0  0  0  0  0
  -25.3697  -15.1595   20.3615 N   0  0  0  0  0  0
  -31.7211  -15.1173   20.1455 O   0  0  0  0  0  0
  -21.6583   -6.8830   21.4237 O   0  0  0  0  0  0
  -22.3464  -14.5414   20.6742 O   0  0  0  0  0  0
  -24.6449  -31.8416   23.1863 C   0  0  0  0  0  0
  -25.9216  -32.4674   23.8261 C   0  0  1  0  0  0
  -27.2346  -27.1231   20.1545 C   0  0  0  0  0  0
  -25.5960  -33.8484   24.2180 N   0  0  0  0  0  0
  -23.4504  -30.4601   21.5298 C   0  0  2  0  0  0
  -24.9036  -28.8818   20.1073 C   0  0  0  0  0  0
  -22.7575  -29.4542   22.4831 C   0  0  0  0  0  0
  -18.0305  -28.1399   22.8475 C   0  0  0  0  0  0
  -24.1491  -36.7254   23.2645 C   0  0  0  0  0  0
  -26.0058  -30.7111   21.3880 C   0  0  0  0  0  0
  -26.0775  -29.3196   20.7320 C   0  0  0  0  0  0
  -27.2359  -28.4545   20.7431 C   0  0  0  0  0  0
  -26.0376  -26.7979   19.4732 C   0  0  0  0  0  0
  -24.8979  -27.6353   19.4628 C   0  0  0  0  0  0
  -23.6789  -29.7845   20.1504 C   0  0  0  0  0  0
  -25.4120  -36.3020   24.0317 C   0  0  1  0  0  0
  -20.5920  -28.3737   23.1215 C   0  0  2  0  0  0
  -20.6787  -26.9432   22.5400 C   0  0  0  0  0  0
  -19.5756  -26.6383   21.5210 C   0  0  0  0  0  0
  -18.1941  -26.7936   22.1623 C   0  0  0  0  0  0
  -19.1565  -28.8882   23.2840 C   0  0  0  0  0  0
  -18.9485  -30.1480   23.8861 C   0  0  0  0  0  0
  -17.6479  -30.6592   24.0561 C   0  0  0  0  0  0
  -25.9077  -34.9394   23.5057 C   0  0  0  0  0  0
  -16.5369  -29.9086   23.6333 C   0  0  0  0  0  0
  -16.7290  -28.6509   23.0347 C   0  0  0  0  0  0
  -26.4530  -31.6552   25.0712 C   0  0  0  0  0  0
  -25.3722  -31.3747   26.1415 C   0  0  0  0  0  0
  -27.0401  -30.2941   24.6318 C   0  0  0  0  0  0
  -27.6047  -32.4333   25.7494 C   0  0  0  0  0  0
  -27.5571  -37.1781   24.8465 C   0  0  0  0  0  0
  -21.4266  -29.3058   22.3582 N   0  0  0  0  0  0
  -26.4279  -37.3741   23.9414 N   0  0  0  0  0  0
  -24.7197  -31.0266   22.0894 N   0  0  0  0  0  0
  -23.4206  -28.8104   23.3003 O   0  0  0  0  0  0
  -28.3068  -26.1549   20.2795 O   0  0  0  0  0  0
  -26.5667  -34.8892   22.4636 O   0  0  0  0  0  0
  -23.5563  -32.1291   23.7075 O   0  0  0  0  0  0
  -31.2008  -19.0087   21.7646 C   0  0  0  0  0  0
  -30.1584  -19.2470   20.8441 C   0  0  0  0  0  0
  -29.7578  -20.7158   20.7461 C   0  0  0  0  0  0
  -30.4998  -21.6613   21.4854 C   0  0  0  0  0  0
  -31.8160  -20.0519   22.4807 C   0  0  0  0  0  0
  -30.1336  -23.1502   21.2980 C   0  0  0  0  0  0
  -28.1987  -17.7497   20.3497 C   0  0  0  0  0  0
  -28.3029  -16.2604   20.2523 C   0  0  0  0  0  0
  -29.6793  -17.8619   20.1104 C   0  0  2  0  0  0
  -28.7447  -23.2274   20.6268 C   0  0  1  0  0  0
  -28.6773  -21.6694   20.0127 C   0  0  0  0  0  0
  -32.9033  -19.7493   23.4906 C   0  0  0  0  0  0
  -27.2409  -21.1610   20.2178 C   0  0  0  0  0  0
  -28.9949  -21.7034   18.5100 C   0  0  0  0  0  0
  -28.2895  -24.6558   19.8204 C   0  0  0  0  0  0
  -31.4966  -21.3513   22.3310 N   0  0  0  0  0  0
  -29.7328  -16.2980   20.5420 N   0  0  0  0  0  0
  -31.4761  -12.8749   19.1653 H   0  0  0  0  0  0
  -30.5222  -11.7415   20.0693 H   0  0  0  0  0  0
  -29.8852  -11.7115   17.6322 H   0  0  0  0  0  0
  -29.5481  -13.4253   17.6807 H   0  0  0  0  0  0
  -28.0419  -11.1925   19.0864 H   0  0  0  0  0  0
  -27.3932  -12.2669   17.8719 H   0  0  0  0  0  0
  -27.5234  -14.0972   19.3062 H   0  0  0  0  0  0
  -28.8455  -12.3031   21.4351 H   0  0  0  0  0  0
  -28.3708  -13.9187   21.7978 H   0  0  0  0  0  0
  -25.2684   -9.5548   22.4842 H   0  0  0  0  0  0
  -23.9931   -7.4513   22.7456 H   0  0  0  0  0  0
  -21.0818   -8.8728   19.8938 H   0  0  0  0  0  0
  -22.3689  -10.9625   19.6216 H   0  0  0  0  0  0
  -21.1972   -7.6126   23.9710 H   0  0  0  0  0  0
  -21.1489   -6.0512   25.9091 H   0  0  0  0  0  0
  -22.0608   -2.7587   23.2863 H   0  0  0  0  0  0
  -22.3987  -11.9822   22.4925 H   0  0  0  0  0  0
  -21.0996  -13.1185   22.2728 H   0  0  0  0  0  0
  -24.5731  -15.7820   20.4370 H   0  0  0  0  0  0
  -26.1784  -15.6000   19.9477 H   0  0  0  0  0  0
  -26.7286  -32.5279   23.0994 H   0  0  0  0  0  0
  -25.0080  -33.9594   25.0308 H   0  0  0  0  0  0
  -22.7547  -31.2869   21.3725 H   0  0  0  0  0  0
  -23.3749  -35.9590   23.3280 H   0  0  0  0  0  0
  -24.3583  -36.8910   22.2066 H   0  0  0  0  0  0
  -23.7249  -37.6445   23.6697 H   0  0  0  0  0  0
  -26.1651  -31.4640   20.6140 H   0  0  0  0  0  0
  -26.8750  -30.7620   22.0327 H   0  0  0  0  0  0
  -28.1245  -28.7848   21.2624 H   0  0  0  0  0  0
  -25.9325  -25.8583   18.9558 H   0  0  0  0  0  0
  -24.0035  -27.2988   18.9562 H   0  0  0  0  0  0
  -23.8154  -30.5572   19.3929 H   0  0  0  0  0  0
  -22.7937  -29.2267   19.8407 H   0  0  0  0  0  0
  -25.1304  -36.1838   25.0810 H   0  0  0  0  0  0
  -21.0023  -28.3338   24.1330 H   0  0  0  0  0  0
  -20.5674  -26.2358   23.3634 H   0  0  0  0  0  0
  -21.6655  -26.7424   22.1201 H   0  0  0  0  0  0
  -19.6922  -25.6291   21.1251 H   0  0  0  0  0  0
  -19.6685  -27.3179   20.6728 H   0  0  0  0  0  0
  -17.4212  -26.6678   21.4025 H   0  0  0  0  0  0
  -18.0341  -26.0085   22.9026 H   0  0  0  0  0  0
  -19.7967  -30.7312   24.2204 H   0  0  0  0  0  0
  -17.5036  -31.6262   24.5189 H   0  0  0  0  0  0
  -15.5372  -30.2977   23.7682 H   0  0  0  0  0  0
  -15.8693  -28.0827   22.7058 H   0  0  0  0  0  0
  -24.5902  -30.7088   25.7752 H   0  0  0  0  0  0
  -24.8918  -32.2930   26.4799 H   0  0  0  0  0  0
  -25.8019  -30.8956   27.0223 H   0  0  0  0  0  0
  -26.3026  -29.6652   24.1321 H   0  0  0  0  0  0
  -27.3991  -29.7253   25.4907 H   0  0  0  0  0  0
  -27.8937  -30.4157   23.9646 H   0  0  0  0  0  0
  -27.2623  -33.3652   26.2001 H   0  0  0  0  0  0
  -28.3884  -32.6870   25.0346 H   0  0  0  0  0  0
  -28.0685  -31.8519   26.5471 H   0  0  0  0  0  0
  -28.2573  -38.0092   24.7513 H   0  0  0  0  0  0
  -28.1075  -36.2618   24.6271 H   0  0  0  0  0  0
  -27.2294  -37.1405   25.8870 H   0  0  0  0  0  0
  -20.9489  -29.8775   21.6755 H   0  0  0  0  0  0
  -26.0129  -38.2804   24.1420 H   0  0  0  0  0  0
  -31.5405  -17.9936   21.9253 H   0  0  0  0  0  0
  -30.8854  -23.6165   20.6617 H   0  0  0  0  0  0
  -30.1373  -23.6785   22.2519 H   0  0  0  0  0  0
  -27.8958  -18.0783   21.3459 H   0  0  0  0  0  0
  -27.5790  -18.1865   19.5708 H   0  0  0  0  0  0
  -28.0767  -15.9885   19.2221 H   0  0  0  0  0  0
  -27.6961  -15.7771   21.0103 H   0  0  0  0  0  0
  -29.8912  -17.9651   19.0443 H   0  0  0  0  0  0
  -28.0667  -23.2029   21.4812 H   0  0  0  0  0  0
  -33.8611  -19.6057   22.9916 H   0  0  0  0  0  0
  -32.6654  -18.8422   24.0465 H   0  0  0  0  0  0
  -33.0148  -20.5580   24.2130 H   0  0  0  0  0  0
  -27.0134  -21.0162   21.2743 H   0  0  0  0  0  0
  -27.0539  -20.2248   19.7037 H   0  0  0  0  0  0
  -26.5161  -21.8756   19.8247 H   0  0  0  0  0  0
  -28.2800  -22.3224   17.9667 H   0  0  0  0  0  0
  -28.9610  -20.7048   18.0719 H   0  0  0  0  0  0
  -29.9895  -22.1109   18.3237 H   0  0  0  0  0  0
  -27.2815  -24.4262   19.4891 H   0  0  0  0  0  0
  -28.8701  -24.6695   18.8978 H   0  0  0  0  0  0
  1 25  1  0  0  0
  1 30  2  0  0  0
  1 87  1  0  0  0
  2  3  1  0  0  0
  2 25  1  0  0  0
  2 88  1  0  0  0
  2 89  1  0  0  0
  3  4  1  0  0  0
  3 90  1  0  0  0
  3 91  1  0  0  0
  4  5  1  0  0  0
  4 92  1  0  0  0
  4 93  1  0  0  0
  5  6  1  0  0  0
  5 26  1  0  0  0
  5 94  1  0  0  0
  6 25  1  0  0  0
  6 95  1  0  0  0
  6 96  1  0  0  0
  7  8  2  0  0  0
  7 26  1  0  0  0
  7 29  1  0  0  0
  8  9  1  0  0  0
  8 22  1  0  0  0
  9 10  1  0  0  0
  9 27  2  0  0  0
 10 11  2  0  0  0
 10 15  1  0  0  0
 11 12  1  0  0  0
 11 97  1  0  0  0
 12 13  2  0  0  0
 12 98  1  0  0  0
 13 14  1  0  0  0
 13 31  1  0  0  0
 14 15  2  0  0  0
 14 99  1  0  0  0
 15100  1  0  0  0
 16 17  2  0  0  0
 16 21  1  0  0  0
 16 31  1  0  0  0
 17 18  1  0  0  0
 17101  1  0  0  0
 18 19  2  0  0  0
 18102  1  0  0  0
 19 20  1  0  0  0
 19 24  1  0  0  0
 20 21  2  0  0  0
 20103  1  0  0  0
 21 23  1  0  0  0
 22 28  1  0  0  0
 22 32  2  0  0  0
 26 27  1  0  0  0
 28104  1  0  0  0
 28105  1  0  0  0
 29106  1  0  0  0
 29107  1  0  0  0
 33 34  1  0  0  0
 33 66  1  0  0  0
 33 70  2  0  0  0
 34 36  1  0  0  0
 34 59  1  0  0  0
 34108  1  0  0  0
 35 44  2  0  0  0
 35 45  1  0  0  0
 35 68  1  0  0  0
 36 56  1  0  0  0
 36109  1  0  0  0
 37 39  1  0  0  0
 37 47  1  0  0  0
 37 66  1  0  0  0
 37110  1  0  0  0
 38 43  2  0  0  0
 38 46  1  0  0  0
 38 47  1  0  0  0
 39 64  1  0  0  0
 39 67  2  0  0  0
 40 52  1  0  0  0
 40 53  2  0  0  0
 40 58  1  0  0  0
 41111  1  0  0  0
 41112  1  0  0  0
 41113  1  0  0  0
 41 48  1  0  0  0
 42 43  1  0  0  0
 42 66  1  0  0  0
 42114  1  0  0  0
 42115  1  0  0  0
 43 44  1  0  0  0
 44116  1  0  0  0
 45 46  2  0  0  0
 45117  1  0  0  0
 46118  1  0  0  0
 47119  1  0  0  0
 47120  1  0  0  0
 48 56  1  0  0  0
 48 65  1  0  0  0
 48121  1  0  0  0
 49 50  1  0  0  0
 49 53  1  0  0  0
 49 64  1  0  0  0
 49122  1  0  0  0
 50 51  1  0  0  0
 50123  1  0  0  0
 50124  1  0  0  0
 51 52  1  0  0  0
 51125  1  0  0  0
 51126  1  0  0  0
 52127  1  0  0  0
 52128  1  0  0  0
 53 54  1  0  0  0
 54 55  2  0  0  0
 54129  1  0  0  0
 55 57  1  0  0  0
 55130  1  0  0  0
 56 69  2  0  0  0
 57 58  2  0  0  0
 57131  1  0  0  0
 58132  1  0  0  0
 59 60  1  0  0  0
 59 61  1  0  0  0
 59 62  1  0  0  0
 60133  1  0  0  0
 60134  1  0  0  0
 60135  1  0  0  0
 61136  1  0  0  0
 61137  1  0  0  0
 61138  1  0  0  0
 62139  1  0  0  0
 62140  1  0  0  0
 62141  1  0  0  0
 63 65  1  0  0  0
 63142  1  0  0  0
 63143  1  0  0  0
 63144  1  0  0  0
 64145  1  0  0  0
 65146  1  0  0  0
 68 85  1  0  0  0
 71 72  2  0  0  0
 71 75  1  0  0  0
 71147  1  0  0  0
 72 73  1  0  0  0
 72 79  1  0  0  0
 73 74  2  0  0  0
 73 81  1  0  0  0
 74 76  1  0  0  0
 74 86  1  0  0  0
 75 82  1  0  0  0
 75 86  2  0  0  0
 76 80  1  0  0  0
 76148  1  0  0  0
 76149  1  0  0  0
 77 78  1  0  0  0
 77 79  1  0  0  0
 77150  1  0  0  0
 77151  1  0  0  0
 78 87  1  0  0  0
 78152  1  0  0  0
 78153  1  0  0  0
 79 87  1  0  0  0
 79154  1  0  0  0
 80 81  1  0  0  0
 80 85  1  0  0  0
 80155  1  0  0  0
 81 83  1  0  0  0
 81 84  1  0  0  0
 82156  1  0  0  0
 82157  1  0  0  0
 82158  1  0  0  0
 83159  1  0  0  0
 83160  1  0  0  0
 83161  1  0  0  0
 84162  1  0  0  0
 84163  1  0  0  0
 84164  1  0  0  0
 85165  1  0  0  0
 85166  1  0  0  0
M  ISO  4   1 100  68 101  85 101  87 100
M  END
> <chiral flag>
0

> <version>
0

> <s_m_source_file>
/data/baiqing/PycharmProjects/Reinvent-master-3.2/result/LINK_invent/BTK/process_docking_weight1_custom_sum_contain_oxygen_bond_distance_aromatic_linkinvent_7_9_3/rearranged_h_0169.sdf

> <i_m_source_file_index>
50

> <r_mmod_Potential_Energy-OPLS-2005>
644.45068359375

> <r_mmod_Stretch_Energy-OPLS-2005>
309.705352783203

> <r_mmod_Bend_Energy-OPLS-2005>
427.050689697266

> <r_mmod_Torsional_Energy-OPLS-2005>
275.637359619141

> <r_mmod_Improper_Torsional_Energy-OPLS-2005>
9.44043159484863

> <r_mmod_Van_der_Waal_Energy-OPLS-2005>
144.294219970703

> <r_mmod_Electrostatic_Energy-OPLS-2005>
-545.707336425781

> <r_mmod_Solvation_Energy-OPLS-2005>
-223.732086181641

> <b_mmod_Minimization_Converged-OPLS-2005>
0

> <r_mmod_RMS_Derivative-OPLS-2005>
1.9596871137619

$$$$
50
                    3D
 Structure written by MMmdl.
165175  0  0  1  0            999 V2000
  -30.6154  -14.7891   20.4629 C   0  0  0  0  0  0
  -30.4210  -12.4896   19.4879 C   0  0  0  0  0  0
  -29.5082  -12.5105   18.2448 C   0  0  0  0  0  0
  -28.0336  -12.3321   18.6547 C   0  0  0  0  0  0
  -27.6299  -13.2419   19.8469 C   0  0  2  0  0  0
  -28.6719  -13.2190   20.9839 C   0  0  0  0  0  0
  -25.2448  -13.8209   20.5733 C   0  0  0  0  0  0
  -24.1742  -13.0444   20.9217 C   0  0  0  0  0  0
  -24.6335  -11.6924   20.8738 C   0  0  0  0  0  0
  -23.9018  -10.4294   21.0396 C   0  0  0  0  0  0
  -24.3582   -9.4222   21.9176 C   0  0  0  0  0  0
  -23.6287   -8.2239   22.0746 C   0  0  0  0  0  0
  -22.4270   -8.0254   21.3543 C   0  0  0  0  0  0
  -21.9883   -9.0219   20.4642 C   0  0  0  0  0  0
  -22.7185  -10.2112   20.3054 C   0  0  0  0  0  0
  -21.6857   -6.0720   22.5287 C   0  0  0  0  0  0
  -21.4007   -6.5632   23.8215 C   0  0  0  0  0  0
  -21.3669   -5.6795   24.9183 C   0  0  0  0  0  0
  -21.6053   -4.3055   24.7246 C   0  0  0  0  0  0
  -21.8823   -3.8140   23.4367 C   0  0  0  0  0  0
  -21.9184   -4.6948   22.3414 C   0  0  0  0  0  0
  -22.7765  -13.5223   21.1891 C   0  0  0  0  0  0
  -22.1658   -4.2130   21.0999 F   0  0  0  0  0  0
  -21.5638   -3.4547   25.7759 F   0  0  0  0  0  0
  -29.9609  -13.5766   20.3865 N   0  0  0  0  0  0
  -26.2866  -12.9432   20.3285 N   0  0  0  0  0  0
  -25.9267  -11.6560   20.5742 N   0  0  0  0  0  0
  -22.0427  -12.8196   22.0442 N   0  0  0  0  0  0
  -25.4176  -15.1933   20.4205 N   0  0  0  0  0  0
  -31.8189  -14.8112   20.1810 O   0  0  0  0  0  0
  -21.6651   -6.8843   21.4237 O   0  0  0  0  0  0
  -22.3448  -14.5542   20.6758 O   0  0  0  0  0  0
  -24.6366  -31.8527   23.1962 C   0  0  0  0  0  0
  -25.9181  -32.4732   23.8323 C   0  0  1  0  0  0
  -27.2126  -27.2220   20.1270 C   0  0  0  0  0  0
  -25.5971  -33.8545   24.2237 N   0  0  0  0  0  0
  -23.4333  -30.4761   21.5403 C   0  0  2  0  0  0
  -24.8778  -28.9179   20.1074 C   0  0  0  0  0  0
  -22.7519  -29.4600   22.4899 C   0  0  0  0  0  0
  -18.0296  -28.1400   22.8470 C   0  0  0  0  0  0
  -24.1486  -36.7265   23.2627 C   0  0  0  0  0  0
  -25.9828  -30.7513   21.3831 C   0  0  0  0  0  0
  -26.0516  -29.3727   20.7203 C   0  0  0  0  0  0
  -27.2171  -28.5359   20.7213 C   0  0  0  0  0  0
  -26.0037  -26.8354   19.5042 C   0  0  0  0  0  0
  -24.8604  -27.6585   19.4930 C   0  0  0  0  0  0
  -23.6525  -29.8120   20.1559 C   0  0  0  0  0  0
  -25.4109  -36.3051   24.0317 C   0  0  1  0  0  0
  -20.5901  -28.3725   23.1254 C   0  0  2  0  0  0
  -20.6787  -26.9427   22.5437 C   0  0  0  0  0  0
  -19.5786  -26.6384   21.5221 C   0  0  0  0  0  0
  -18.1942  -26.7955   22.1579 C   0  0  0  0  0  0
  -19.1551  -28.8879   23.2859 C   0  0  0  0  0  0
  -18.9473  -30.1473   23.8890 C   0  0  0  0  0  0
  -17.6471  -30.6591   24.0576 C   0  0  0  0  0  0
  -25.9078  -34.9430   23.5071 C   0  0  0  0  0  0
  -16.5361  -29.9089   23.6343 C   0  0  0  0  0  0
  -16.7284  -28.6512   23.0357 C   0  0  0  0  0  0
  -26.4517  -31.6583   25.0742 C   0  0  0  0  0  0
  -25.3711  -31.3793   26.1444 C   0  0  0  0  0  0
  -27.0354  -30.2970   24.6305 C   0  0  0  0  0  0
  -27.6074  -32.4328   25.7518 C   0  0  0  0  0  0
  -27.5611  -37.1733   24.8409 C   0  0  0  0  0  0
  -21.4224  -29.3057   22.3629 N   0  0  0  0  0  0
  -26.4251  -37.3788   23.9462 N   0  0  0  0  0  0
  -24.7030  -31.0456   22.0959 N   0  0  0  0  0  0
  -23.4193  -28.8150   23.3027 O   0  0  0  0  0  0
  -28.2989  -26.3089   20.2287 O   0  0  0  0  0  0
  -26.5649  -34.8918   22.4646 O   0  0  0  0  0  0
  -23.5509  -32.1387   23.7228 O   0  0  0  0  0  0
  -29.2766  -23.0405   21.1082 C   0  0  0  0  0  0
  -28.5474  -23.4983   19.9634 C   0  0  0  0  0  0
  -29.5542  -21.6225   21.3273 C   0  0  0  0  0  0
  -28.1027  -22.4024   19.1502 C   0  0  0  0  0  0
  -29.0390  -20.6019   20.4490 C   0  0  0  0  0  0
  -31.2125  -17.9881   20.6497 C   0  0  0  0  0  0
  -29.2522  -18.2699   19.3498 C   0  0  0  0  0  0
  -29.4442  -16.7834   21.6346 C   0  0  0  0  0  0
  -30.3758  -17.1872   19.6584 C   0  0  2  0  0  0
  -29.9792  -18.2846   21.4710 C   0  0  2  0  0  0
  -29.7871  -24.0825   22.0955 C   0  0  0  0  0  0
  -30.4602  -21.2174   22.4876 C   0  0  0  0  0  0
  -27.3622  -22.6479   17.8479 C   0  0  0  0  0  0
  -28.4112  -25.0332   19.4246 C   0  0  0  0  0  0
  -28.3156  -21.0654   19.3974 N   0  0  0  0  0  0
  -29.1629  -19.1340   20.5542 N   0  0  0  0  0  0
  -29.8911  -15.9975   20.4394 N   0  0  0  0  0  0
  -31.4622  -12.6114   19.1854 H   0  0  0  0  0  0
  -30.3718  -11.5261   19.9966 H   0  0  0  0  0  0
  -29.8025  -11.7281   17.5446 H   0  0  0  0  0  0
  -29.6299  -13.4576   17.7162 H   0  0  0  0  0  0
  -27.8910  -11.2844   18.9227 H   0  0  0  0  0  0
  -27.3808  -12.5173   17.8002 H   0  0  0  0  0  0
  -27.6095  -14.2582   19.4506 H   0  0  0  0  0  0
  -28.7203  -12.2359   21.4551 H   0  0  0  0  0  0
  -28.4010  -13.9285   21.7674 H   0  0  0  0  0  0
  -25.2709   -9.5725   22.4766 H   0  0  0  0  0  0
  -24.0015   -7.4635   22.7459 H   0  0  0  0  0  0
  -21.0813   -8.8696   19.8959 H   0  0  0  0  0  0
  -22.3595  -10.9640   19.6175 H   0  0  0  0  0  0
  -21.1999   -7.6138   23.9704 H   0  0  0  0  0  0
  -21.1496   -6.0539   25.9084 H   0  0  0  0  0  0
  -22.0593   -2.7596   23.2889 H   0  0  0  0  0  0
  -22.4041  -11.9859   22.4843 H   0  0  0  0  0  0
  -21.1058  -13.1221   22.2687 H   0  0  0  0  0  0
  -24.6602  -15.8561   20.5463 H   0  0  0  0  0  0
  -26.2845  -15.6306   20.1365 H   0  0  0  0  0  0
  -26.7254  -32.5345   23.1064 H   0  0  0  0  0  0
  -25.0141  -33.9699   25.0396 H   0  0  0  0  0  0
  -22.7323  -31.3005   21.3929 H   0  0  0  0  0  0
  -23.3813  -35.9520   23.3132 H   0  0  0  0  0  0
  -24.3616  -36.9070   22.2077 H   0  0  0  0  0  0
  -23.7139  -37.6368   23.6771 H   0  0  0  0  0  0
  -26.1313  -31.5124   20.6162 H   0  0  0  0  0  0
  -26.8562  -30.7946   22.0225 H   0  0  0  0  0  0
  -28.1125  -28.8760   21.2227 H   0  0  0  0  0  0
  -25.8818  -25.8567   19.0697 H   0  0  0  0  0  0
  -23.9527  -27.2951   19.0290 H   0  0  0  0  0  0
  -23.7839  -30.5908   19.4039 H   0  0  0  0  0  0
  -22.7679  -29.2531   19.8451 H   0  0  0  0  0  0
  -25.1272  -36.1857   25.0802 H   0  0  0  0  0  0
  -20.9987  -28.3333   24.1380 H   0  0  0  0  0  0
  -20.5653  -26.2359   23.3669 H   0  0  0  0  0  0
  -21.6664  -26.7432   22.1259 H   0  0  0  0  0  0
  -19.6954  -25.6278   21.1295 H   0  0  0  0  0  0
  -19.6757  -27.3174   20.6737 H   0  0  0  0  0  0
  -17.4241  -26.6763   21.3938 H   0  0  0  0  0  0
  -18.0274  -26.0073   22.8939 H   0  0  0  0  0  0
  -19.7944  -30.7300   24.2259 H   0  0  0  0  0  0
  -17.5016  -31.6264   24.5191 H   0  0  0  0  0  0
  -15.5364  -30.2986   23.7676 H   0  0  0  0  0  0
  -15.8682  -28.0831   22.7076 H   0  0  0  0  0  0
  -24.5949  -30.7046   25.7808 H   0  0  0  0  0  0
  -24.8822  -32.2975   26.4714 H   0  0  0  0  0  0
  -25.8002  -30.9122   27.0314 H   0  0  0  0  0  0
  -26.2949  -29.6709   24.1304 H   0  0  0  0  0  0
  -27.3948  -29.7260   25.4879 H   0  0  0  0  0  0
  -27.8879  -30.4196   23.9620 H   0  0  0  0  0  0
  -27.2690  -33.3642   26.2070 H   0  0  0  0  0  0
  -28.3900  -32.6855   25.0353 H   0  0  0  0  0  0
  -28.0723  -31.8467   26.5455 H   0  0  0  0  0  0
  -28.2446  -38.0208   24.7717 H   0  0  0  0  0  0
  -28.1286  -36.2765   24.5862 H   0  0  0  0  0  0
  -27.2398  -37.0927   25.8811 H   0  0  0  0  0  0
  -20.9429  -29.8771   21.6811 H   0  0  0  0  0  0
  -26.0104  -38.2811   24.1652 H   0  0  0  0  0  0
  -31.6797  -18.8778   20.2227 H   0  0  0  0  0  0
  -31.9668  -17.4017   21.1756 H   0  0  0  0  0  0
  -28.2901  -17.8094   19.1207 H   0  0  0  0  0  0
  -29.5436  -18.8682   18.4859 H   0  0  0  0  0  0
  -28.3587  -16.7540   21.7459 H   0  0  0  0  0  0
  -29.8624  -16.3377   22.5390 H   0  0  0  0  0  0
  -30.9210  -16.8915   18.7604 H   0  0  0  0  0  0
  -30.1770  -18.7272   22.4420 H   0  0  0  0  0  0
  -29.2617  -25.0284   22.0080 H   0  0  0  0  0  0
  -30.8502  -24.2706   21.9478 H   0  0  0  0  0  0
  -29.6217  -23.7651   23.1244 H   0  0  0  0  0  0
  -30.9430  -22.0437   23.0014 H   0  0  0  0  0  0
  -31.2780  -20.6017   22.1150 H   0  0  0  0  0  0
  -29.8997  -20.6638   23.2394 H   0  0  0  0  0  0
  -28.0093  -23.1583   17.1327 H   0  0  0  0  0  0
  -26.4732  -23.2568   18.0146 H   0  0  0  0  0  0
  -27.0359  -21.7131   17.3895 H   0  0  0  0  0  0
  -27.7144  -25.0663   18.5953 H   0  0  0  0  0  0
  -29.3607  -25.1770   18.9084 H   0  0  0  0  0  0
  1 25  1  0  0  0
  1 30  2  0  0  0
  1 87  1  0  0  0
  2  3  1  0  0  0
  2 25  1  0  0  0
  2 88  1  0  0  0
  2 89  1  0  0  0
  3  4  1  0  0  0
  3 90  1  0  0  0
  3 91  1  0  0  0
  4  5  1  0  0  0
  4 92  1  0  0  0
  4 93  1  0  0  0
  5  6  1  0  0  0
  5 26  1  0  0  0
  5 94  1  0  0  0
  6 25  1  0  0  0
  6 95  1  0  0  0
  6 96  1  0  0  0
  7  8  2  0  0  0
  7 26  1  0  0  0
  7 29  1  0  0  0
  8  9  1  0  0  0
  8 22  1  0  0  0
  9 10  1  0  0  0
  9 27  2  0  0  0
 10 11  2  0  0  0
 10 15  1  0  0  0
 11 12  1  0  0  0
 11 97  1  0  0  0
 12 13  2  0  0  0
 12 98  1  0  0  0
 13 14  1  0  0  0
 13 31  1  0  0  0
 14 15  2  0  0  0
 14 99  1  0  0  0
 15100  1  0  0  0
 16 17  2  0  0  0
 16 21  1  0  0  0
 16 31  1  0  0  0
 17 18  1  0  0  0
 17101  1  0  0  0
 18 19  2  0  0  0
 18102  1  0  0  0
 19 20  1  0  0  0
 19 24  1  0  0  0
 20 21  2  0  0  0
 20103  1  0  0  0
 21 23  1  0  0  0
 22 28  1  0  0  0
 22 32  2  0  0  0
 26 27  1  0  0  0
 28104  1  0  0  0
 28105  1  0  0  0
 29106  1  0  0  0
 29107  1  0  0  0
 33 34  1  0  0  0
 33 66  1  0  0  0
 33 70  2  0  0  0
 34 36  1  0  0  0
 34 59  1  0  0  0
 34108  1  0  0  0
 35 44  2  0  0  0
 35 45  1  0  0  0
 35 68  1  0  0  0
 36 56  1  0  0  0
 36109  1  0  0  0
 37 39  1  0  0  0
 37 47  1  0  0  0
 37 66  1  0  0  0
 37110  1  0  0  0
 38 43  2  0  0  0
 38 46  1  0  0  0
 38 47  1  0  0  0
 39 64  1  0  0  0
 39 67  2  0  0  0
 40 52  1  0  0  0
 40 53  2  0  0  0
 40 58  1  0  0  0
 41111  1  0  0  0
 41112  1  0  0  0
 41113  1  0  0  0
 41 48  1  0  0  0
 42 43  1  0  0  0
 42 66  1  0  0  0
 42114  1  0  0  0
 42115  1  0  0  0
 43 44  1  0  0  0
 44116  1  0  0  0
 45 46  2  0  0  0
 45117  1  0  0  0
 46118  1  0  0  0
 47119  1  0  0  0
 47120  1  0  0  0
 48 56  1  0  0  0
 48 65  1  0  0  0
 48121  1  0  0  0
 49 50  1  0  0  0
 49 53  1  0  0  0
 49 64  1  0  0  0
 49122  1  0  0  0
 50 51  1  0  0  0
 50123  1  0  0  0
 50124  1  0  0  0
 51 52  1  0  0  0
 51125  1  0  0  0
 51126  1  0  0  0
 52127  1  0  0  0
 52128  1  0  0  0
 53 54  1  0  0  0
 54 55  2  0  0  0
 54129  1  0  0  0
 55 57  1  0  0  0
 55130  1  0  0  0
 56 69  2  0  0  0
 57 58  2  0  0  0
 57131  1  0  0  0
 58132  1  0  0  0
 59 60  1  0  0  0
 59 61  1  0  0  0
 59 62  1  0  0  0
 60133  1  0  0  0
 60134  1  0  0  0
 60135  1  0  0  0
 61136  1  0  0  0
 61137  1  0  0  0
 61138  1  0  0  0
 62139  1  0  0  0
 62140  1  0  0  0
 62141  1  0  0  0
 63 65  1  0  0  0
 63142  1  0  0  0
 63143  1  0  0  0
 63144  1  0  0  0
 64145  1  0  0  0
 65146  1  0  0  0
 68 84  1  0  0  0
 71 72  2  0  0  0
 71 73  1  0  0  0
 71 81  1  0  0  0
 72 74  1  0  0  0
 72 84  1  0  0  0
 73 75  2  0  0  0
 73 82  1  0  0  0
 74 83  1  0  0  0
 74 85  2  0  0  0
 75 85  1  0  0  0
 75 86  1  0  0  0
 76 79  1  0  0  0
 76 80  1  0  0  0
 76147  1  0  0  0
 76148  1  0  0  0
 77 86  1  0  0  0
 77149  1  0  0  0
 77150  1  0  0  0
 77 79  1  0  0  0
 78 87  1  0  0  0
 78151  1  0  0  0
 78152  1  0  0  0
 78 80  1  0  0  0
 79 87  1  0  0  0
 79153  1  0  0  0
 80 86  1  0  0  0
 80154  1  0  0  0
 81155  1  0  0  0
 81156  1  0  0  0
 81157  1  0  0  0
 82158  1  0  0  0
 82159  1  0  0  0
 82160  1  0  0  0
 83161  1  0  0  0
 83162  1  0  0  0
 83163  1  0  0  0
 84164  1  0  0  0
 84165  1  0  0  0
M  ISO  4   1 100  68 101  84 101  87 100
M  END
> <chiral flag>
0

> <version>
0

> <s_m_source_file>
/data/baiqing/PycharmProjects/Reinvent-master-3.2/result/LINK_invent/BTK/process_docking_weight1_custom_sum_contain_oxygen_bond_distance_aromatic_linkinvent_7_9_3/rearranged_h_0169.sdf

> <i_m_source_file_index>
51

> <r_mmod_Potential_Energy-OPLS-2005>
464.256591796875

> <r_mmod_Stretch_Energy-OPLS-2005>
149.217163085938

> <r_mmod_Bend_Energy-OPLS-2005>
361.75048828125

> <r_mmod_Torsional_Energy-OPLS-2005>
396.652099609375

> <r_mmod_Improper_Torsional_Energy-OPLS-2005>
22.4216232299805

> <r_mmod_Van_der_Waal_Energy-OPLS-2005>
161.936904907227

> <r_mmod_Electrostatic_Energy-OPLS-2005>
-512.848693847656

> <r_mmod_Solvation_Energy-OPLS-2005>
-226.26252746582

> <b_mmod_Minimization_Converged-OPLS-2005>
0

> <r_mmod_RMS_Derivative-OPLS-2005>
2.14386415481567

$$$$
51
                    3D
 Structure written by MMmdl.
160169  0  0  1  0            999 V2000
  -30.6168  -14.7458   20.4963 C   0  0  0  0  0  0
  -30.4390  -12.4695   19.4646 C   0  0  0  0  0  0
  -29.5051  -12.5040   18.2342 C   0  0  0  0  0  0
  -28.0350  -12.3219   18.6565 C   0  0  0  0  0  0
  -27.6422  -13.2290   19.8521 C   0  0  2  0  0  0
  -28.6891  -13.1664   20.9850 C   0  0  0  0  0  0
  -25.2515  -13.8182   20.5711 C   0  0  0  0  0  0
  -24.1800  -13.0443   20.9215 C   0  0  0  0  0  0
  -24.6389  -11.6918   20.8771 C   0  0  0  0  0  0
  -23.9063  -10.4291   21.0420 C   0  0  0  0  0  0
  -24.3621   -9.4205   21.9201 C   0  0  0  0  0  0
  -23.6296   -8.2241   22.0768 C   0  0  0  0  0  0
  -22.4279   -8.0284   21.3547 C   0  0  0  0  0  0
  -21.9916   -9.0258   20.4649 C   0  0  0  0  0  0
  -22.7239  -10.2131   20.3061 C   0  0  0  0  0  0
  -21.6851   -6.0744   22.5283 C   0  0  0  0  0  0
  -21.4013   -6.5649   23.8215 C   0  0  0  0  0  0
  -21.3646   -5.6796   24.9168 C   0  0  0  0  0  0
  -21.6042   -4.3060   24.7220 C   0  0  0  0  0  0
  -21.8819   -3.8156   23.4337 C   0  0  0  0  0  0
  -21.9200   -4.6977   22.3395 C   0  0  0  0  0  0
  -22.7825  -13.5234   21.1880 C   0  0  0  0  0  0
  -22.1665   -4.2162   21.0973 F   0  0  0  0  0  0
  -21.5621   -3.4542   25.7728 F   0  0  0  0  0  0
  -29.9887  -13.5248   20.4005 N   0  0  0  0  0  0
  -26.2945  -12.9384   20.3317 N   0  0  0  0  0  0
  -25.9317  -11.6540   20.5798 N   0  0  0  0  0  0
  -22.0471  -12.8208   22.0428 N   0  0  0  0  0  0
  -25.4222  -15.1900   20.4094 N   0  0  0  0  0  0
  -31.8074  -14.8548   20.1925 O   0  0  0  0  0  0
  -21.6646   -6.8879   21.4240 O   0  0  0  0  0  0
  -22.3524  -14.5552   20.6734 O   0  0  0  0  0  0
  -24.6318  -31.8545   23.1972 C   0  0  0  0  0  0
  -25.9143  -32.4770   23.8303 C   0  0  1  0  0  0
  -27.2251  -27.2627   20.1295 C   0  0  0  0  0  0
  -25.5937  -33.8557   24.2240 N   0  0  0  0  0  0
  -23.4288  -30.4752   21.5413 C   0  0  2  0  0  0
  -24.8782  -28.9204   20.1155 C   0  0  0  0  0  0
  -22.7511  -29.4597   22.4925 C   0  0  0  0  0  0
  -18.0296  -28.1390   22.8498 C   0  0  0  0  0  0
  -24.1487  -36.7251   23.2640 C   0  0  0  0  0  0
  -25.9749  -30.7687   21.3757 C   0  0  0  0  0  0
  -26.0524  -29.3910   20.7190 C   0  0  0  0  0  0
  -27.2321  -28.5779   20.7082 C   0  0  0  0  0  0
  -26.0259  -26.8546   19.5079 C   0  0  0  0  0  0
  -24.8703  -27.6588   19.5014 C   0  0  0  0  0  0
  -23.6468  -29.8061   20.1597 C   0  0  0  0  0  0
  -25.4108  -36.3060   24.0331 C   0  0  1  0  0  0
  -20.5908  -28.3688   23.1284 C   0  0  2  0  0  0
  -20.6783  -26.9405   22.5418 C   0  0  0  0  0  0
  -19.5760  -26.6366   21.5230 C   0  0  0  0  0  0
  -18.1931  -26.7933   22.1613 C   0  0  0  0  0  0
  -19.1555  -28.8850   23.2880 C   0  0  0  0  0  0
  -18.9478  -30.1454   23.8893 C   0  0  0  0  0  0
  -17.6474  -30.6592   24.0564 C   0  0  0  0  0  0
  -25.9067  -34.9444   23.5084 C   0  0  0  0  0  0
  -16.5356  -29.9078   23.6352 C   0  0  0  0  0  0
  -16.7277  -28.6491   23.0372 C   0  0  0  0  0  0
  -26.4505  -31.6596   25.0700 C   0  0  0  0  0  0
  -25.3714  -31.3723   26.1414 C   0  0  0  0  0  0
  -27.0377  -30.3027   24.6162 C   0  0  0  0  0  0
  -27.6061  -32.4350   25.7457 C   0  0  0  0  0  0
  -27.5582  -37.1776   24.8461 C   0  0  0  0  0  0
  -21.4212  -29.3038   22.3682 N   0  0  0  0  0  0
  -26.4269  -37.3787   23.9430 N   0  0  0  0  0  0
  -24.6979  -31.0511   22.0949 N   0  0  0  0  0  0
  -23.4222  -28.8133   23.3007 O   0  0  0  0  0  0
  -28.3125  -26.3581   20.1254 O   0  0  0  0  0  0
  -26.5634  -34.8934   22.4642 O   0  0  0  0  0  0
  -23.5460  -32.1339   23.7269 O   0  0  0  0  0  0
  -28.8919  -22.4458   20.9543 C   0  0  0  0  0  0
  -29.8122  -18.7366   19.0572 C   0  0  0  0  0  0
  -29.2434  -21.1446   20.4134 C   0  0  0  0  0  0
  -28.6636  -23.6210   20.1285 C   0  0  0  0  0  0
  -29.7856  -18.6512   20.4680 C   0  0  0  0  0  0
  -29.4948  -19.9100   21.1460 C   0  0  0  0  0  0
  -28.8438  -23.3890   18.7411 C   0  0  0  0  0  0
  -29.3287  -21.0902   19.0087 C   0  0  0  0  0  0
  -28.6858  -24.4944   17.7158 C   0  0  0  0  0  0
  -30.6626  -20.5771   23.1400 C   0  0  0  0  0  0
  -30.2417  -17.2880   21.1829 C   0  0  0  0  0  0
  -28.0960  -24.9969   20.7295 C   0  0  0  0  0  0
  -29.1574  -22.1741   18.2092 N   0  0  0  0  0  0
  -29.5975  -19.9118   18.4140 N   0  3  0  0  0  0
  -29.4894  -19.9375   22.5503 N   0  0  0  0  0  0
  -29.8422  -15.8666   20.7622 N   0  0  0  0  0  0
  -31.4720  -12.6174   19.1491 H   0  0  0  0  0  0
  -30.4119  -11.4947   19.9506 H   0  0  0  0  0  0
  -29.7873  -11.7241   17.5254 H   0  0  0  0  0  0
  -29.6187  -13.4546   17.7108 H   0  0  0  0  0  0
  -27.9017  -11.2734   18.9338 H   0  0  0  0  0  0
  -27.3693  -12.5010   17.8106 H   0  0  0  0  0  0
  -27.6346  -14.2491   19.4668 H   0  0  0  0  0  0
  -28.7307  -12.1692   21.4275 H   0  0  0  0  0  0
  -28.4197  -13.8459   21.7958 H   0  0  0  0  0  0
  -25.2754   -9.5694   22.4788 H   0  0  0  0  0  0
  -24.0000   -7.4640   22.7483 H   0  0  0  0  0  0
  -21.0858   -8.8769   19.8956 H   0  0  0  0  0  0
  -22.3698  -10.9679   19.6178 H   0  0  0  0  0  0
  -21.2001   -7.6161   23.9719 H   0  0  0  0  0  0
  -21.1458   -6.0528   25.9070 H   0  0  0  0  0  0
  -22.0610   -2.7623   23.2836 H   0  0  0  0  0  0
  -22.4067  -11.9828   22.4746 H   0  0  0  0  0  0
  -21.1106  -13.1238   22.2661 H   0  0  0  0  0  0
  -24.6531  -15.8431   20.5069 H   0  0  0  0  0  0
  -26.2627  -15.6249   20.0535 H   0  0  0  0  0  0
  -26.7202  -32.5435   23.1033 H   0  0  0  0  0  0
  -25.0140  -33.9676   25.0423 H   0  0  0  0  0  0
  -22.7254  -31.2984   21.3910 H   0  0  0  0  0  0
  -23.3792  -35.9543   23.3277 H   0  0  0  0  0  0
  -24.3570  -36.8886   22.2066 H   0  0  0  0  0  0
  -23.7192  -37.6409   23.6685 H   0  0  0  0  0  0
  -26.1137  -31.5303   20.6064 H   0  0  0  0  0  0
  -26.8518  -30.8181   22.0101 H   0  0  0  0  0  0
  -28.1358  -28.9374   21.1799 H   0  0  0  0  0  0
  -25.9675  -25.8855   19.0373 H   0  0  0  0  0  0
  -23.9693  -27.2896   19.0308 H   0  0  0  0  0  0
  -23.7673  -30.5799   19.4000 H   0  0  0  0  0  0
  -22.7674  -29.2346   19.8576 H   0  0  0  0  0  0
  -25.1289  -36.1899   25.0822 H   0  0  0  0  0  0
  -20.9970  -28.3242   24.1404 H   0  0  0  0  0  0
  -20.5703  -26.2270   23.3601 H   0  0  0  0  0  0
  -21.6643  -26.7442   22.1183 H   0  0  0  0  0  0
  -19.6916  -25.6280   21.1234 H   0  0  0  0  0  0
  -19.6710  -27.3209   20.6791 H   0  0  0  0  0  0
  -17.4212  -26.6739   21.3999 H   0  0  0  0  0  0
  -18.0300  -26.0047   22.8978 H   0  0  0  0  0  0
  -19.7953  -30.7285   24.2251 H   0  0  0  0  0  0
  -17.5027  -31.6286   24.5147 H   0  0  0  0  0  0
  -15.5367  -30.2972   23.7702 H   0  0  0  0  0  0
  -15.8668  -28.0805   22.7104 H   0  0  0  0  0  0
  -24.5936  -30.7011   25.7761 H   0  0  0  0  0  0
  -24.8828  -32.2867   26.4816 H   0  0  0  0  0  0
  -25.8026  -30.8942   27.0230 H   0  0  0  0  0  0
  -26.2951  -29.6752   24.1211 H   0  0  0  0  0  0
  -27.4129  -29.7328   25.4678 H   0  0  0  0  0  0
  -27.8809  -30.4330   23.9363 H   0  0  0  0  0  0
  -27.2691  -33.3708   26.1942 H   0  0  0  0  0  0
  -28.3928  -32.6820   25.0316 H   0  0  0  0  0  0
  -28.0670  -31.8518   26.5444 H   0  0  0  0  0  0
  -28.2586  -38.0124   24.7609 H   0  0  0  0  0  0
  -28.1119  -36.2641   24.6164 H   0  0  0  0  0  0
  -27.2295  -37.1261   25.8874 H   0  0  0  0  0  0
  -20.9415  -29.8725   21.6847 H   0  0  0  0  0  0
  -26.0143  -38.2839   24.1514 H   0  0  0  0  0  0
  -28.7612  -22.5283   22.0234 H   0  0  0  0  0  0
  -30.0560  -17.8940   18.4241 H   0  0  0  0  0  0
  -27.7561  -25.0392   17.8596 H   0  0  0  0  0  0
  -28.6789  -24.0957   16.7013 H   0  0  0  0  0  0
  -29.5139  -25.1982   17.7924 H   0  0  0  0  0  0
  -31.0221  -19.9955   23.9903 H   0  0  0  0  0  0
  -30.4193  -21.5742   23.5102 H   0  0  0  0  0  0
  -31.4936  -20.6673   22.4376 H   0  0  0  0  0  0
  -29.9367  -17.3577   22.2272 H   0  0  0  0  0  0
  -31.3317  -17.3282   21.2213 H   0  0  0  0  0  0
  -28.4975  -25.0740   21.7399 H   0  0  0  0  0  0
  -27.0287  -24.8238   20.8857 H   0  0  0  0  0  0
  -29.6571  -19.9211   17.3957 H   0  0  0  0  0  0
  -29.2973  -19.0317   22.9663 H   0  0  0  0  0  0
  -28.8693  -15.6468   20.9154 H   0  0  0  0  0  0
  1 25  1  0  0  0
  1 30  2  0  0  0
  1 86  1  0  0  0
  2  3  1  0  0  0
  2 25  1  0  0  0
  2 87  1  0  0  0
  2 88  1  0  0  0
  3  4  1  0  0  0
  3 89  1  0  0  0
  3 90  1  0  0  0
  4  5  1  0  0  0
  4 91  1  0  0  0
  4 92  1  0  0  0
  5  6  1  0  0  0
  5 26  1  0  0  0
  5 93  1  0  0  0
  6 25  1  0  0  0
  6 94  1  0  0  0
  6 95  1  0  0  0
  7  8  2  0  0  0
  7 26  1  0  0  0
  7 29  1  0  0  0
  8  9  1  0  0  0
  8 22  1  0  0  0
  9 10  1  0  0  0
  9 27  2  0  0  0
 10 11  2  0  0  0
 10 15  1  0  0  0
 11 12  1  0  0  0
 11 96  1  0  0  0
 12 13  2  0  0  0
 12 97  1  0  0  0
 13 14  1  0  0  0
 13 31  1  0  0  0
 14 15  2  0  0  0
 14 98  1  0  0  0
 15 99  1  0  0  0
 16 17  2  0  0  0
 16 21  1  0  0  0
 16 31  1  0  0  0
 17 18  1  0  0  0
 17100  1  0  0  0
 18 19  2  0  0  0
 18101  1  0  0  0
 19 20  1  0  0  0
 19 24  1  0  0  0
 20 21  2  0  0  0
 20102  1  0  0  0
 21 23  1  0  0  0
 22 28  1  0  0  0
 22 32  2  0  0  0
 26 27  1  0  0  0
 28103  1  0  0  0
 28104  1  0  0  0
 29105  1  0  0  0
 29106  1  0  0  0
 33 34  1  0  0  0
 33 66  1  0  0  0
 33 70  2  0  0  0
 34 36  1  0  0  0
 34 59  1  0  0  0
 34107  1  0  0  0
 35 44  2  0  0  0
 35 45  1  0  0  0
 35 68  1  0  0  0
 36 56  1  0  0  0
 36108  1  0  0  0
 37 39  1  0  0  0
 37 47  1  0  0  0
 37 66  1  0  0  0
 37109  1  0  0  0
 38 43  2  0  0  0
 38 46  1  0  0  0
 38 47  1  0  0  0
 39 64  1  0  0  0
 39 67  2  0  0  0
 40 52  1  0  0  0
 40 53  2  0  0  0
 40 58  1  0  0  0
 41110  1  0  0  0
 41111  1  0  0  0
 41112  1  0  0  0
 41 48  1  0  0  0
 42 43  1  0  0  0
 42 66  1  0  0  0
 42113  1  0  0  0
 42114  1  0  0  0
 43 44  1  0  0  0
 44115  1  0  0  0
 45 46  2  0  0  0
 45116  1  0  0  0
 46117  1  0  0  0
 47118  1  0  0  0
 47119  1  0  0  0
 48 56  1  0  0  0
 48 65  1  0  0  0
 48120  1  0  0  0
 49 50  1  0  0  0
 49 53  1  0  0  0
 49 64  1  0  0  0
 49121  1  0  0  0
 50 51  1  0  0  0
 50122  1  0  0  0
 50123  1  0  0  0
 51 52  1  0  0  0
 51124  1  0  0  0
 51125  1  0  0  0
 52126  1  0  0  0
 52127  1  0  0  0
 53 54  1  0  0  0
 54 55  2  0  0  0
 54128  1  0  0  0
 55 57  1  0  0  0
 55129  1  0  0  0
 56 69  2  0  0  0
 57 58  2  0  0  0
 57130  1  0  0  0
 58131  1  0  0  0
 59 60  1  0  0  0
 59 61  1  0  0  0
 59 62  1  0  0  0
 60132  1  0  0  0
 60133  1  0  0  0
 60134  1  0  0  0
 61135  1  0  0  0
 61136  1  0  0  0
 61137  1  0  0  0
 62138  1  0  0  0
 62139  1  0  0  0
 62140  1  0  0  0
 63 65  1  0  0  0
 63141  1  0  0  0
 63142  1  0  0  0
 63143  1  0  0  0
 64144  1  0  0  0
 65145  1  0  0  0
 68 82  1  0  0  0
 71 73  2  0  0  0
 71 74  1  0  0  0
 71146  1  0  0  0
 72 75  1  0  0  0
 72 84  2  0  0  0
 72147  1  0  0  0
 73 76  1  0  0  0
 73 78  1  0  0  0
 74 77  2  0  0  0
 74 82  1  0  0  0
 75 76  2  0  0  0
 75 81  1  0  0  0
 76 85  1  0  0  0
 77 79  1  0  0  0
 77 83  1  0  0  0
 78 83  2  0  0  0
 78 84  1  0  0  0
 79148  1  0  0  0
 79149  1  0  0  0
 79150  1  0  0  0
 80 85  1  0  0  0
 80151  1  0  0  0
 80152  1  0  0  0
 80153  1  0  0  0
 81 86  1  0  0  0
 81154  1  0  0  0
 81155  1  0  0  0
 82156  1  0  0  0
 82157  1  0  0  0
 84158  1  0  0  0
 85159  1  0  0  0
 86160  1  0  0  0
M  CHG  1  84   1
M  ISO  4   1 100  68 101  82 101  86 100
M  END
> <chiral flag>
0

> <version>
0

> <s_m_source_file>
/data/baiqing/PycharmProjects/Reinvent-master-3.2/result/LINK_invent/BTK/process_docking_weight1_custom_sum_contain_oxygen_bond_distance_aromatic_linkinvent_7_9_3/rearranged_h_0169.sdf

> <i_m_source_file_index>
52

> <r_mmod_Potential_Energy-OPLS-2005>
-82.2232284545898

> <r_mmod_Stretch_Energy-OPLS-2005>
123.816398620605

> <r_mmod_Bend_Energy-OPLS-2005>
167.998153686523

> <r_mmod_Torsional_Energy-OPLS-2005>
247.162872314453

> <r_mmod_Improper_Torsional_Energy-OPLS-2005>
10.6201448440552

> <r_mmod_Van_der_Waal_Energy-OPLS-2005>
154.097045898438

> <r_mmod_Electrostatic_Energy-OPLS-2005>
-460.580291748047

> <r_mmod_Solvation_Energy-OPLS-2005>
-410.954345703125

> <b_mmod_Minimization_Converged-OPLS-2005>
0

> <r_mmod_RMS_Derivative-OPLS-2005>
3.46145558357239

$$$$
52
                    3D
 Structure written by MMmdl.
173182  0  0  1  0            999 V2000
  -30.6138  -14.6273   20.5438 C   0  0  0  0  0  0
  -30.4496  -12.3936   19.4394 C   0  0  0  0  0  0
  -29.5122  -12.5200   18.2169 C   0  0  0  0  0  0
  -28.0347  -12.3437   18.6278 C   0  0  0  0  0  0
  -27.6578  -13.2057   19.8622 C   0  0  2  0  0  0
  -28.7059  -13.0374   20.9868 C   0  0  0  0  0  0
  -25.2583  -13.8135   20.5683 C   0  0  0  0  0  0
  -24.1836  -13.0412   20.9188 C   0  0  0  0  0  0
  -24.6405  -11.6881   20.8737 C   0  0  0  0  0  0
  -23.9066  -10.4274   21.0395 C   0  0  0  0  0  0
  -24.3621   -9.4198   21.9171 C   0  0  0  0  0  0
  -23.6300   -8.2237   22.0739 C   0  0  0  0  0  0
  -22.4279   -8.0273   21.3540 C   0  0  0  0  0  0
  -21.9918   -9.0241   20.4639 C   0  0  0  0  0  0
  -22.7234  -10.2125   20.3045 C   0  0  0  0  0  0
  -21.6855   -6.0747   22.5284 C   0  0  0  0  0  0
  -21.4003   -6.5638   23.8219 C   0  0  0  0  0  0
  -21.3661   -5.6789   24.9181 C   0  0  0  0  0  0
  -21.6061   -4.3058   24.7227 C   0  0  0  0  0  0
  -21.8815   -3.8150   23.4347 C   0  0  0  0  0  0
  -21.9182   -4.6975   22.3411 C   0  0  0  0  0  0
  -22.7856  -13.5220   21.1852 C   0  0  0  0  0  0
  -22.1645   -4.2162   21.0988 F   0  0  0  0  0  0
  -21.5654   -3.4538   25.7736 F   0  0  0  0  0  0
  -30.0215  -13.3948   20.4351 N   0  0  0  0  0  0
  -26.3014  -12.9301   20.3312 N   0  0  0  0  0  0
  -25.9330  -11.6465   20.5743 N   0  0  0  0  0  0
  -22.0487  -12.8225   22.0411 N   0  0  0  0  0  0
  -25.4287  -15.1853   20.4095 N   0  0  0  0  0  0
  -31.7493  -14.8199   20.0968 O   0  0  0  0  0  0
  -21.6629   -6.8879   21.4238 O   0  0  0  0  0  0
  -22.3532  -14.5516   20.6676 O   0  0  0  0  0  0
  -24.6268  -31.8581   23.2041 C   0  0  0  0  0  0
  -25.9124  -32.4760   23.8354 C   0  0  1  0  0  0
  -27.2287  -27.3347   20.1208 C   0  0  0  0  0  0
  -25.5940  -33.8563   24.2276 N   0  0  0  0  0  0
  -23.4193  -30.4827   21.5451 C   0  0  2  0  0  0
  -24.8683  -28.9397   20.1098 C   0  0  0  0  0  0
  -22.7470  -29.4631   22.4936 C   0  0  0  0  0  0
  -18.0282  -28.1391   22.8473 C   0  0  0  0  0  0
  -24.1496  -36.7289   23.2636 C   0  0  0  0  0  0
  -25.9588  -30.7941   21.3739 C   0  0  0  0  0  0
  -26.0360  -29.4242   20.7149 C   0  0  0  0  0  0
  -27.2233  -28.6333   20.7103 C   0  0  0  0  0  0
  -26.0462  -26.9030   19.4821 C   0  0  0  0  0  0
  -24.8742  -27.6841   19.4828 C   0  0  0  0  0  0
  -23.6327  -29.8148   20.1605 C   0  0  0  0  0  0
  -25.4122  -36.3068   24.0316 C   0  0  1  0  0  0
  -20.5879  -28.3699   23.1280 C   0  0  2  0  0  0
  -20.6776  -26.9417   22.5427 C   0  0  0  0  0  0
  -19.5760  -26.6385   21.5221 C   0  0  0  0  0  0
  -18.1926  -26.7943   22.1597 C   0  0  0  0  0  0
  -19.1529  -28.8857   23.2875 C   0  0  0  0  0  0
  -18.9452  -30.1460   23.8898 C   0  0  0  0  0  0
  -17.6450  -30.6595   24.0563 C   0  0  0  0  0  0
  -25.9043  -34.9441   23.5096 C   0  0  0  0  0  0
  -16.5346  -29.9085   23.6344 C   0  0  0  0  0  0
  -16.7264  -28.6500   23.0360 C   0  0  0  0  0  0
  -26.4513  -31.6567   25.0722 C   0  0  0  0  0  0
  -25.3746  -31.3712   26.1450 C   0  0  0  0  0  0
  -27.0334  -30.2961   24.6209 C   0  0  0  0  0  0
  -27.6090  -32.4297   25.7480 C   0  0  0  0  0  0
  -27.5588  -37.1790   24.8453 C   0  0  0  0  0  0
  -21.4178  -29.3041   22.3670 N   0  0  0  0  0  0
  -26.4296  -37.3767   23.9409 N   0  0  0  0  0  0
  -24.6863  -31.0609   22.0976 N   0  0  0  0  0  0
  -23.4174  -28.8190   23.3046 O   0  0  0  0  0  0
  -28.3280  -26.4660   20.1611 O   0  0  0  0  0  0
  -26.5618  -34.8905   22.4652 O   0  0  0  0  0  0
  -23.5439  -32.1383   23.7373 O   0  0  0  0  0  0
  -30.3811  -20.2912   20.6644 C   0  0  0  0  0  0
  -31.0267  -19.5353   21.7017 C   0  0  0  0  0  0
  -29.5494  -19.5375   19.7802 C   0  0  0  0  0  0
  -30.9403  -18.1034   21.7753 C   0  0  0  0  0  0
  -29.4490  -18.1030   19.8654 C   0  0  0  0  0  0
  -30.1292  -17.3557   20.8761 C   0  0  0  0  0  0
  -31.1436  -22.4068   19.0562 C   0  0  0  0  0  0
  -31.1765  -23.7820   19.7377 C   0  0  0  0  0  0
  -30.7573  -21.8253   20.4241 C   0  0  1  0  0  0
  -30.1237  -23.2788   20.7544 C   0  0  1  0  0  0
  -31.8240  -20.2613   22.7883 C   0  0  0  0  0  0
  -28.7219  -20.2801   18.7381 C   0  0  0  0  0  0
  -31.7215  -17.3530   22.8555 C   0  0  0  0  0  0
  -28.5791  -17.3487   18.8624 C   0  0  0  0  0  0
  -30.3542  -23.7168   22.2043 C   0  0  0  0  0  0
  -29.7913  -15.8331   21.1619 C   0  0  0  0  0  0
  -28.6759  -23.7623   20.3326 C   0  0  0  0  0  0
  -28.0818  -25.1683   20.8283 C   0  0  0  0  0  0
  -31.4894  -12.5334   19.1371 H   0  0  0  0  0  0
  -30.3942  -11.3892   19.8635 H   0  0  0  0  0  0
  -29.7830  -11.7844   17.4588 H   0  0  0  0  0  0
  -29.6506  -13.4977   17.7530 H   0  0  0  0  0  0
  -27.8791  -11.2868   18.8535 H   0  0  0  0  0  0
  -27.3765  -12.5749   17.7886 H   0  0  0  0  0  0
  -27.6790  -14.2419   19.5256 H   0  0  0  0  0  0
  -28.7185  -12.0044   21.3392 H   0  0  0  0  0  0
  -28.4479  -13.6407   21.8579 H   0  0  0  0  0  0
  -25.2772   -9.5687   22.4741 H   0  0  0  0  0  0
  -24.0021   -7.4632   22.7459 H   0  0  0  0  0  0
  -21.0858   -8.8759   19.8942 H   0  0  0  0  0  0
  -22.3694  -10.9666   19.6161 H   0  0  0  0  0  0
  -21.1971   -7.6135   23.9742 H   0  0  0  0  0  0
  -21.1496   -6.0507   25.9096 H   0  0  0  0  0  0
  -22.0592   -2.7609   23.2847 H   0  0  0  0  0  0
  -22.4059  -11.9909   22.4872 H   0  0  0  0  0  0
  -21.1090  -13.1250   22.2572 H   0  0  0  0  0  0
  -24.6588  -15.8355   20.5255 H   0  0  0  0  0  0
  -26.2823  -15.6329   20.1057 H   0  0  0  0  0  0
  -26.7201  -32.5425   23.1114 H   0  0  0  0  0  0
  -25.0126  -33.9713   25.0449 H   0  0  0  0  0  0
  -22.7160  -31.3050   21.4014 H   0  0  0  0  0  0
  -23.3752  -35.9619   23.3279 H   0  0  0  0  0  0
  -24.3606  -36.8935   22.2054 H   0  0  0  0  0  0
  -23.7253  -37.6485   23.6676 H   0  0  0  0  0  0
  -26.0951  -31.5619   20.6107 H   0  0  0  0  0  0
  -26.8360  -30.8367   22.0080 H   0  0  0  0  0  0
  -28.1184  -28.9967   21.1953 H   0  0  0  0  0  0
  -26.0170  -25.9363   18.9991 H   0  0  0  0  0  0
  -23.9817  -27.3098   19.0009 H   0  0  0  0  0  0
  -23.7431  -30.5896   19.4008 H   0  0  0  0  0  0
  -22.7544  -29.2376   19.8634 H   0  0  0  0  0  0
  -25.1310  -36.1917   25.0806 H   0  0  0  0  0  0
  -20.9957  -28.3287   24.1404 H   0  0  0  0  0  0
  -20.5685  -26.2310   23.3630 H   0  0  0  0  0  0
  -21.6650  -26.7464   22.1227 H   0  0  0  0  0  0
  -19.6938  -25.6292   21.1261 H   0  0  0  0  0  0
  -19.6729  -27.3191   20.6745 H   0  0  0  0  0  0
  -17.4229  -26.6722   21.3967 H   0  0  0  0  0  0
  -18.0290  -26.0070   22.8960 H   0  0  0  0  0  0
  -19.7924  -30.7275   24.2268 H   0  0  0  0  0  0
  -17.5002  -31.6275   24.5150 H   0  0  0  0  0  0
  -15.5348  -30.2981   23.7668 H   0  0  0  0  0  0
  -15.8663  -28.0818   22.7087 H   0  0  0  0  0  0
  -24.6046  -30.6887   25.7835 H   0  0  0  0  0  0
  -24.8781  -32.2846   26.4722 H   0  0  0  0  0  0
  -25.8095  -30.9082   27.0316 H   0  0  0  0  0  0
  -26.2893  -29.6718   24.1241 H   0  0  0  0  0  0
  -27.3991  -29.7228   25.4747 H   0  0  0  0  0  0
  -27.8796  -30.4200   23.9444 H   0  0  0  0  0  0
  -27.2719  -33.3604   26.2054 H   0  0  0  0  0  0
  -28.3888  -32.6837   25.0287 H   0  0  0  0  0  0
  -28.0767  -31.8418   26.5391 H   0  0  0  0  0  0
  -28.2599  -38.0104   24.7508 H   0  0  0  0  0  0
  -28.1091  -36.2623   24.6248 H   0  0  0  0  0  0
  -27.2299  -37.1404   25.8859 H   0  0  0  0  0  0
  -20.9366  -29.8710   21.6830 H   0  0  0  0  0  0
  -26.0167  -38.2831   24.1430 H   0  0  0  0  0  0
  -32.1061  -22.0679   18.6712 H   0  0  0  0  0  0
  -30.3780  -22.3454   18.2843 H   0  0  0  0  0  0
  -30.8561  -24.6077   19.0995 H   0  0  0  0  0  0
  -32.1431  -24.0066   20.1938 H   0  0  0  0  0  0
  -31.7332  -21.8350   20.9131 H   0  0  0  0  0  0
  -31.3975  -21.2369   23.0043 H   0  0  0  0  0  0
  -32.8647  -20.3903   22.4871 H   0  0  0  0  0  0
  -31.8042  -19.7417   23.7453 H   0  0  0  0  0  0
  -28.5507  -21.3143   19.0247 H   0  0  0  0  0  0
  -27.7288  -19.8466   18.6264 H   0  0  0  0  0  0
  -29.2189  -20.2663   17.7679 H   0  0  0  0  0  0
  -32.6934  -17.8071   23.0450 H   0  0  0  0  0  0
  -31.9430  -16.3245   22.5755 H   0  0  0  0  0  0
  -31.1609  -17.3377   23.7901 H   0  0  0  0  0  0
  -28.5434  -17.8383   17.8892 H   0  0  0  0  0  0
  -27.5608  -17.2567   19.2428 H   0  0  0  0  0  0
  -28.9630  -16.3478   18.6646 H   0  0  0  0  0  0
  -31.3259  -23.3954   22.5753 H   0  0  0  0  0  0
  -29.5965  -23.3081   22.8748 H   0  0  0  0  0  0
  -30.3620  -24.8004   22.3126 H   0  0  0  0  0  0
  -28.7475  -15.7032   20.8875 H   0  0  0  0  0  0
  -29.7713  -15.6806   22.2403 H   0  0  0  0  0  0
  -27.9818  -23.0003   20.6902 H   0  0  0  0  0  0
  -28.5681  -23.7266   19.2488 H   0  0  0  0  0  0
  -28.2854  -25.3193   21.8870 H   0  0  0  0  0  0
  -27.0065  -24.9892   20.8386 H   0  0  0  0  0  0
  1 25  1  0  0  0
  1 30  2  0  0  0
  1 86  1  0  0  0
  2  3  1  0  0  0
  2 25  1  0  0  0
  2 89  1  0  0  0
  2 90  1  0  0  0
  3  4  1  0  0  0
  3 91  1  0  0  0
  3 92  1  0  0  0
  4  5  1  0  0  0
  4 93  1  0  0  0
  4 94  1  0  0  0
  5  6  1  0  0  0
  5 26  1  0  0  0
  5 95  1  0  0  0
  6 25  1  0  0  0
  6 96  1  0  0  0
  6 97  1  0  0  0
  7  8  2  0  0  0
  7 26  1  0  0  0
  7 29  1  0  0  0
  8  9  1  0  0  0
  8 22  1  0  0  0
  9 10  1  0  0  0
  9 27  2  0  0  0
 10 11  2  0  0  0
 10 15  1  0  0  0
 11 12  1  0  0  0
 11 98  1  0  0  0
 12 13  2  0  0  0
 12 99  1  0  0  0
 13 14  1  0  0  0
 13 31  1  0  0  0
 14 15  2  0  0  0
 14100  1  0  0  0
 15101  1  0  0  0
 16 17  2  0  0  0
 16 21  1  0  0  0
 16 31  1  0  0  0
 17 18  1  0  0  0
 17102  1  0  0  0
 18 19  2  0  0  0
 18103  1  0  0  0
 19 20  1  0  0  0
 19 24  1  0  0  0
 20 21  2  0  0  0
 20104  1  0  0  0
 21 23  1  0  0  0
 22 28  1  0  0  0
 22 32  2  0  0  0
 26 27  1  0  0  0
 28105  1  0  0  0
 28106  1  0  0  0
 29107  1  0  0  0
 29108  1  0  0  0
 33 34  1  0  0  0
 33 66  1  0  0  0
 33 70  2  0  0  0
 34 36  1  0  0  0
 34 59  1  0  0  0
 34109  1  0  0  0
 35 44  2  0  0  0
 35 45  1  0  0  0
 35 68  1  0  0  0
 36 56  1  0  0  0
 36110  1  0  0  0
 37 39  1  0  0  0
 37 47  1  0  0  0
 37 66  1  0  0  0
 37111  1  0  0  0
 38 43  2  0  0  0
 38 46  1  0  0  0
 38 47  1  0  0  0
 39 64  1  0  0  0
 39 67  2  0  0  0
 40 52  1  0  0  0
 40 53  2  0  0  0
 40 58  1  0  0  0
 41112  1  0  0  0
 41113  1  0  0  0
 41114  1  0  0  0
 41 48  1  0  0  0
 42 43  1  0  0  0
 42 66  1  0  0  0
 42115  1  0  0  0
 42116  1  0  0  0
 43 44  1  0  0  0
 44117  1  0  0  0
 45 46  2  0  0  0
 45118  1  0  0  0
 46119  1  0  0  0
 47120  1  0  0  0
 47121  1  0  0  0
 48 56  1  0  0  0
 48 65  1  0  0  0
 48122  1  0  0  0
 49 50  1  0  0  0
 49 53  1  0  0  0
 49 64  1  0  0  0
 49123  1  0  0  0
 50 51  1  0  0  0
 50124  1  0  0  0
 50125  1  0  0  0
 51 52  1  0  0  0
 51126  1  0  0  0
 51127  1  0  0  0
 52128  1  0  0  0
 52129  1  0  0  0
 53 54  1  0  0  0
 54 55  2  0  0  0
 54130  1  0  0  0
 55 57  1  0  0  0
 55131  1  0  0  0
 56 69  2  0  0  0
 57 58  2  0  0  0
 57132  1  0  0  0
 58133  1  0  0  0
 59 60  1  0  0  0
 59 61  1  0  0  0
 59 62  1  0  0  0
 60134  1  0  0  0
 60135  1  0  0  0
 60136  1  0  0  0
 61137  1  0  0  0
 61138  1  0  0  0
 61139  1  0  0  0
 62140  1  0  0  0
 62141  1  0  0  0
 62142  1  0  0  0
 63 65  1  0  0  0
 63143  1  0  0  0
 63144  1  0  0  0
 63145  1  0  0  0
 64146  1  0  0  0
 65147  1  0  0  0
 68 88  1  0  0  0
 71 72  2  0  0  0
 71 73  1  0  0  0
 71 79  1  0  0  0
 72 74  1  0  0  0
 72 81  1  0  0  0
 73 75  2  0  0  0
 73 82  1  0  0  0
 74 76  2  0  0  0
 74 83  1  0  0  0
 75 76  1  0  0  0
 75 84  1  0  0  0
 76 86  1  0  0  0
 77 78  1  0  0  0
 77 79  1  0  0  0
 77148  1  0  0  0
 77149  1  0  0  0
 78 80  1  0  0  0
 78150  1  0  0  0
 78151  1  0  0  0
 79 80  1  0  0  0
 79152  1  0  0  0
 80 85  1  0  0  0
 80 87  1  0  0  0
 81153  1  0  0  0
 81154  1  0  0  0
 81155  1  0  0  0
 82156  1  0  0  0
 82157  1  0  0  0
 82158  1  0  0  0
 83159  1  0  0  0
 83160  1  0  0  0
 83161  1  0  0  0
 84162  1  0  0  0
 84163  1  0  0  0
 84164  1  0  0  0
 85165  1  0  0  0
 85166  1  0  0  0
 85167  1  0  0  0
 86168  1  0  0  0
 86169  1  0  0  0
 87 88  1  0  0  0
 87170  1  0  0  0
 87171  1  0  0  0
 88172  1  0  0  0
 88173  1  0  0  0
M  ISO  4   1 100  68 101  86 100  88 101
M  END
> <chiral flag>
0

> <version>
0

> <s_m_source_file>
/data/baiqing/PycharmProjects/Reinvent-master-3.2/result/LINK_invent/BTK/process_docking_weight1_custom_sum_contain_oxygen_bond_distance_aromatic_linkinvent_7_9_3/rearranged_h_0169.sdf

> <i_m_source_file_index>
53

> <r_mmod_Potential_Energy-OPLS-2005>
238.741058349609

> <r_mmod_Stretch_Energy-OPLS-2005>
101.590629577637

> <r_mmod_Bend_Energy-OPLS-2005>
210.200531005859

> <r_mmod_Torsional_Energy-OPLS-2005>
237.856491088867

> <r_mmod_Improper_Torsional_Energy-OPLS-2005>
4.63896226882935

> <r_mmod_Van_der_Waal_Energy-OPLS-2005>
172.212310791016

> <r_mmod_Electrostatic_Energy-OPLS-2005>
-335.280059814453

> <r_mmod_Solvation_Energy-OPLS-2005>
-197.136978149414

> <b_mmod_Minimization_Converged-OPLS-2005>
0

> <r_mmod_RMS_Derivative-OPLS-2005>
2.66519260406494

$$$$
53
                    3D
 Structure written by MMmdl.
176185  0  0  1  0            999 V2000
  -30.6925  -14.6345   20.5014 C   0  0  0  0  0  0
  -30.4149  -12.4064   19.4367 C   0  0  0  0  0  0
  -29.4871  -12.4993   18.2086 C   0  0  0  0  0  0
  -28.0128  -12.3356   18.6294 C   0  0  0  0  0  0
  -27.6423  -13.2125   19.8563 C   0  0  2  0  0  0
  -28.6981  -13.0721   20.9772 C   0  0  0  0  0  0
  -25.2510  -13.8155   20.5694 C   0  0  0  0  0  0
  -24.1805  -13.0429   20.9264 C   0  0  0  0  0  0
  -24.6368  -11.6899   20.8794 C   0  0  0  0  0  0
  -23.9039  -10.4284   21.0437 C   0  0  0  0  0  0
  -24.3594   -9.4198   21.9203 C   0  0  0  0  0  0
  -23.6284   -8.2228   22.0751 C   0  0  0  0  0  0
  -22.4269   -8.0268   21.3540 C   0  0  0  0  0  0
  -21.9899   -9.0243   20.4643 C   0  0  0  0  0  0
  -22.7217  -10.2133   20.3074 C   0  0  0  0  0  0
  -21.6844   -6.0730   22.5283 C   0  0  0  0  0  0
  -21.4010   -6.5635   23.8220 C   0  0  0  0  0  0
  -21.3659   -5.6791   24.9184 C   0  0  0  0  0  0
  -21.6044   -4.3052   24.7232 C   0  0  0  0  0  0
  -21.8817   -3.8142   23.4351 C   0  0  0  0  0  0
  -21.9189   -4.6958   22.3408 C   0  0  0  0  0  0
  -22.7830  -13.5235   21.1894 C   0  0  0  0  0  0
  -22.1658   -4.2146   21.0983 F   0  0  0  0  0  0
  -21.5626   -3.4535   25.7741 F   0  0  0  0  0  0
  -29.9850  -13.4591   20.3864 N   0  0  0  0  0  0
  -26.2928  -12.9331   20.3322 N   0  0  0  0  0  0
  -25.9288  -11.6497   20.5796 N   0  0  0  0  0  0
  -22.0430  -12.8256   22.0443 N   0  0  0  0  0  0
  -25.4159  -15.1864   20.3959 N   0  0  0  0  0  0
  -31.8904  -14.6208   20.1968 O   0  0  0  0  0  0
  -21.6630   -6.8868   21.4242 O   0  0  0  0  0  0
  -22.3548  -14.5539   20.6708 O   0  0  0  0  0  0
  -24.6232  -31.8613   23.2038 C   0  0  0  0  0  0
  -25.9082  -32.4782   23.8359 C   0  0  1  0  0  0
  -27.2197  -27.3476   20.1224 C   0  0  0  0  0  0
  -25.5905  -33.8584   24.2282 N   0  0  0  0  0  0
  -23.4156  -30.4849   21.5450 C   0  0  2  0  0  0
  -24.8620  -28.9432   20.1108 C   0  0  0  0  0  0
  -22.7463  -29.4628   22.4937 C   0  0  0  0  0  0
  -18.0283  -28.1386   22.8489 C   0  0  0  0  0  0
  -24.1487  -36.7302   23.2637 C   0  0  0  0  0  0
  -25.9538  -30.8024   21.3696 C   0  0  0  0  0  0
  -26.0284  -29.4315   20.7143 C   0  0  0  0  0  0
  -27.2153  -28.6458   20.7081 C   0  0  0  0  0  0
  -26.0389  -26.9051   19.4897 C   0  0  0  0  0  0
  -24.8672  -27.6848   19.4881 C   0  0  0  0  0  0
  -23.6284  -29.8186   20.1595 C   0  0  0  0  0  0
  -25.4112  -36.3084   24.0326 C   0  0  1  0  0  0
  -20.5882  -28.3680   23.1291 C   0  0  2  0  0  0
  -20.6776  -26.9404   22.5408 C   0  0  0  0  0  0
  -19.5749  -26.6382   21.5209 C   0  0  0  0  0  0
  -18.1927  -26.7929   22.1619 C   0  0  0  0  0  0
  -19.1537  -28.8852   23.2884 C   0  0  0  0  0  0
  -18.9459  -30.1456   23.8896 C   0  0  0  0  0  0
  -17.6458  -30.6587   24.0567 C   0  0  0  0  0  0
  -25.9047  -34.9452   23.5106 C   0  0  0  0  0  0
  -16.5349  -29.9087   23.6328 C   0  0  0  0  0  0
  -16.7269  -28.6506   23.0346 C   0  0  0  0  0  0
  -26.4484  -31.6585   25.0717 C   0  0  0  0  0  0
  -25.3723  -31.3724   26.1446 C   0  0  0  0  0  0
  -27.0315  -30.3009   24.6144 C   0  0  0  0  0  0
  -27.6052  -32.4313   25.7485 C   0  0  0  0  0  0
  -27.5583  -37.1805   24.8461 C   0  0  0  0  0  0
  -21.4179  -29.3042   22.3693 N   0  0  0  0  0  0
  -26.4294  -37.3774   23.9401 N   0  0  0  0  0  0
  -24.6828  -31.0658   22.0968 N   0  0  0  0  0  0
  -23.4197  -28.8165   23.3001 O   0  0  0  0  0  0
  -28.3344  -26.5096   20.1464 O   0  0  0  0  0  0
  -26.5612  -34.8919   22.4674 O   0  0  0  0  0  0
  -23.5399  -32.1390   23.7387 O   0  0  0  0  0  0
  -29.0117  -21.3739   19.9986 C   0  0  0  0  0  0
  -30.8679  -17.0698   20.1343 C   0  0  0  0  0  0
  -27.9954  -22.3407   21.8256 C   0  0  0  0  0  0
  -30.1495  -18.4361   19.8573 C   0  0  0  0  0  0
  -28.2183  -17.6454   21.0047 C   0  0  0  0  0  0
  -28.4352  -20.1588   20.8002 C   0  0  2  0  0  0
  -28.2482  -20.8529   22.1748 C   0  0  2  0  0  0
  -28.8889  -16.2819   21.3949 C   0  0  2  0  0  0
  -29.2292  -16.2384   22.8974 C   0  0  0  0  0  0
  -25.7278  -20.4873   25.1824 C   0  0  0  0  0  0
  -28.2112  -20.8789   25.3607 C   0  0  0  0  0  0
  -27.1655  -20.2572   23.1085 C   0  0  0  0  0  0
  -28.9228  -23.9548   20.0174 C   0  0  0  0  0  0
  -28.1257  -25.1523   20.6792 C   0  0  0  0  0  0
  -26.9774  -20.9995   24.4507 C   0  0  0  0  0  0
  -28.6740  -22.5698   20.5568 N   0  0  0  0  0  0
  -30.0632  -15.8808   20.5714 N   0  0  0  0  0  0
  -29.1528  -18.8048   20.8940 N   0  3  2  0  0  0
  -29.6415  -21.2524   18.9445 O   0  0  0  0  0  0
  -31.4530  -12.5091   19.1188 H   0  0  0  0  0  0
  -30.3510  -11.4178   19.8953 H   0  0  0  0  0  0
  -29.7539  -11.7394   17.4726 H   0  0  0  0  0  0
  -29.6238  -13.4636   17.7165 H   0  0  0  0  0  0
  -27.8538  -11.2823   18.8665 H   0  0  0  0  0  0
  -27.3529  -12.5586   17.7898 H   0  0  0  0  0  0
  -27.6544  -14.2412   19.4987 H   0  0  0  0  0  0
  -28.7373  -12.0378   21.3216 H   0  0  0  0  0  0
  -28.4563  -13.6382   21.8731 H   0  0  0  0  0  0
  -25.2727   -9.5680   22.4797 H   0  0  0  0  0  0
  -23.9981   -7.4616   22.7474 H   0  0  0  0  0  0
  -21.0825   -8.8762   19.8957 H   0  0  0  0  0  0
  -22.3661  -10.9674   19.6195 H   0  0  0  0  0  0
  -21.1999   -7.6140   23.9725 H   0  0  0  0  0  0
  -21.1484   -6.0515   25.9090 H   0  0  0  0  0  0
  -22.0597   -2.7604   23.2851 H   0  0  0  0  0  0
  -22.4008  -11.9903   22.4836 H   0  0  0  0  0  0
  -21.1045  -13.1308   22.2612 H   0  0  0  0  0  0
  -24.6127  -15.8041   20.4372 H   0  0  0  0  0  0
  -26.1918  -15.5802   19.8832 H   0  0  0  0  0  0
  -26.7156  -32.5464   23.1120 H   0  0  0  0  0  0
  -25.0061  -33.9742   25.0429 H   0  0  0  0  0  0
  -22.7074  -31.3038   21.4031 H   0  0  0  0  0  0
  -23.3745  -35.9639   23.3293 H   0  0  0  0  0  0
  -24.3585  -36.8922   22.2053 H   0  0  0  0  0  0
  -23.7244  -37.6508   23.6662 H   0  0  0  0  0  0
  -26.0790  -31.5651   20.6005 H   0  0  0  0  0  0
  -26.8382  -30.8538   21.9930 H   0  0  0  0  0  0
  -28.1130  -29.0161   21.1831 H   0  0  0  0  0  0
  -26.0147  -25.9417   18.9999 H   0  0  0  0  0  0
  -23.9750  -27.3073   19.0067 H   0  0  0  0  0  0
  -23.7431  -30.5945   19.4016 H   0  0  0  0  0  0
  -22.7510  -29.2423   19.8596 H   0  0  0  0  0  0
  -25.1294  -36.1941   25.0819 H   0  0  0  0  0  0
  -20.9981  -28.3247   24.1409 H   0  0  0  0  0  0
  -20.5673  -26.2286   23.3604 H   0  0  0  0  0  0
  -21.6648  -26.7434   22.1205 H   0  0  0  0  0  0
  -19.6899  -25.6292   21.1238 H   0  0  0  0  0  0
  -19.6691  -27.3204   20.6749 H   0  0  0  0  0  0
  -17.4199  -26.6678   21.4017 H   0  0  0  0  0  0
  -18.0329  -26.0080   22.9027 H   0  0  0  0  0  0
  -19.7933  -30.7278   24.2262 H   0  0  0  0  0  0
  -17.5009  -31.6268   24.5169 H   0  0  0  0  0  0
  -15.5348  -30.2985   23.7662 H   0  0  0  0  0  0
  -15.8670  -28.0830   22.7050 H   0  0  0  0  0  0
  -24.5898  -30.7069   25.7778 H   0  0  0  0  0  0
  -24.8921  -32.2900   26.4864 H   0  0  0  0  0  0
  -25.8056  -30.8907   27.0220 H   0  0  0  0  0  0
  -26.2878  -29.6771   24.1171 H   0  0  0  0  0  0
  -27.4028  -29.7246   25.4628 H   0  0  0  0  0  0
  -27.8742  -30.4303   23.9343 H   0  0  0  0  0  0
  -27.2667  -33.3607   26.2080 H   0  0  0  0  0  0
  -28.3864  -32.6875   25.0314 H   0  0  0  0  0  0
  -28.0723  -31.8420   26.5390 H   0  0  0  0  0  0
  -28.2599  -38.0104   24.7516 H   0  0  0  0  0  0
  -28.1080  -36.2639   24.6279 H   0  0  0  0  0  0
  -27.2305  -37.1445   25.8864 H   0  0  0  0  0  0
  -20.9345  -29.8763   21.6915 H   0  0  0  0  0  0
  -26.0172  -38.2844   24.1410 H   0  0  0  0  0  0
  -31.6275  -17.2370   20.9011 H   0  0  0  0  0  0
  -31.4212  -16.8290   19.2239 H   0  0  0  0  0  0
  -28.3762  -22.9963   22.6101 H   0  0  0  0  0  0
  -26.9300  -22.5419   21.6988 H   0  0  0  0  0  0
  -29.6576  -18.4005   18.8837 H   0  0  0  0  0  0
  -30.9173  -19.2071   19.7886 H   0  0  0  0  0  0
  -27.4093  -17.8529   21.7016 H   0  0  0  0  0  0
  -27.7193  -17.5248   20.0409 H   0  0  0  0  0  0
  -27.4577  -19.9875   20.3460 H   0  0  0  0  0  0
  -29.2086  -20.8026   22.6902 H   0  0  0  0  0  0
  -28.0864  -15.5741   21.2309 H   0  0  0  0  0  0
  -30.0045  -16.9594   23.1584 H   0  0  0  0  0  0
  -29.5849  -15.2549   23.2055 H   0  0  0  0  0  0
  -28.3506  -16.4627   23.5047 H   0  0  0  0  0  0
  -25.5675  -21.0283   26.1158 H   0  0  0  0  0  0
  -25.8139  -19.4272   25.4252 H   0  0  0  0  0  0
  -24.8317  -20.6167   24.5741 H   0  0  0  0  0  0
  -28.0440  -21.3763   26.3168 H   0  0  0  0  0  0
  -29.0939  -21.3366   24.9149 H   0  0  0  0  0  0
  -28.4485  -19.8358   25.5742 H   0  0  0  0  0  0
  -27.4088  -19.2227   23.3457 H   0  0  0  0  0  0
  -26.2143  -20.2314   22.5747 H   0  0  0  0  0  0
  -29.9918  -24.1568   20.0983 H   0  0  0  0  0  0
  -28.7022  -23.9424   18.9493 H   0  0  0  0  0  0
  -28.4052  -25.2077   21.7317 H   0  0  0  0  0  0
  -27.0697  -24.8830   20.6866 H   0  0  0  0  0  0
  -26.8091  -22.0587   24.2500 H   0  0  0  0  0  0
  -29.6738  -18.8551   21.7553 H   0  0  0  0  0  0
  1 25  1  0  0  0
  1 30  2  0  0  0
  1 87  1  0  0  0
  2  3  1  0  0  0
  2 25  1  0  0  0
  2 90  1  0  0  0
  2 91  1  0  0  0
  3  4  1  0  0  0
  3 92  1  0  0  0
  3 93  1  0  0  0
  4  5  1  0  0  0
  4 94  1  0  0  0
  4 95  1  0  0  0
  5  6  1  0  0  0
  5 26  1  0  0  0
  5 96  1  0  0  0
  6 25  1  0  0  0
  6 97  1  0  0  0
  6 98  1  0  0  0
  7  8  2  0  0  0
  7 26  1  0  0  0
  7 29  1  0  0  0
  8  9  1  0  0  0
  8 22  1  0  0  0
  9 10  1  0  0  0
  9 27  2  0  0  0
 10 11  2  0  0  0
 10 15  1  0  0  0
 11 12  1  0  0  0
 11 99  1  0  0  0
 12 13  2  0  0  0
 12100  1  0  0  0
 13 14  1  0  0  0
 13 31  1  0  0  0
 14 15  2  0  0  0
 14101  1  0  0  0
 15102  1  0  0  0
 16 17  2  0  0  0
 16 21  1  0  0  0
 16 31  1  0  0  0
 17 18  1  0  0  0
 17103  1  0  0  0
 18 19  2  0  0  0
 18104  1  0  0  0
 19 20  1  0  0  0
 19 24  1  0  0  0
 20 21  2  0  0  0
 20105  1  0  0  0
 21 23  1  0  0  0
 22 28  1  0  0  0
 22 32  2  0  0  0
 26 27  1  0  0  0
 28106  1  0  0  0
 28107  1  0  0  0
 29108  1  0  0  0
 29109  1  0  0  0
 33 34  1  0  0  0
 33 66  1  0  0  0
 33 70  2  0  0  0
 34 36  1  0  0  0
 34 59  1  0  0  0
 34110  1  0  0  0
 35 44  2  0  0  0
 35 45  1  0  0  0
 35 68  1  0  0  0
 36 56  1  0  0  0
 36111  1  0  0  0
 37 39  1  0  0  0
 37 47  1  0  0  0
 37 66  1  0  0  0
 37112  1  0  0  0
 38 43  2  0  0  0
 38 46  1  0  0  0
 38 47  1  0  0  0
 39 64  1  0  0  0
 39 67  2  0  0  0
 40 52  1  0  0  0
 40 53  2  0  0  0
 40 58  1  0  0  0
 41113  1  0  0  0
 41114  1  0  0  0
 41115  1  0  0  0
 41 48  1  0  0  0
 42 43  1  0  0  0
 42 66  1  0  0  0
 42116  1  0  0  0
 42117  1  0  0  0
 43 44  1  0  0  0
 44118  1  0  0  0
 45 46  2  0  0  0
 45119  1  0  0  0
 46120  1  0  0  0
 47121  1  0  0  0
 47122  1  0  0  0
 48 56  1  0  0  0
 48 65  1  0  0  0
 48123  1  0  0  0
 49 50  1  0  0  0
 49 53  1  0  0  0
 49 64  1  0  0  0
 49124  1  0  0  0
 50 51  1  0  0  0
 50125  1  0  0  0
 50126  1  0  0  0
 51 52  1  0  0  0
 51127  1  0  0  0
 51128  1  0  0  0
 52129  1  0  0  0
 52130  1  0  0  0
 53 54  1  0  0  0
 54 55  2  0  0  0
 54131  1  0  0  0
 55 57  1  0  0  0
 55132  1  0  0  0
 56 69  2  0  0  0
 57 58  2  0  0  0
 57133  1  0  0  0
 58134  1  0  0  0
 59 60  1  0  0  0
 59 61  1  0  0  0
 59 62  1  0  0  0
 60135  1  0  0  0
 60136  1  0  0  0
 60137  1  0  0  0
 61138  1  0  0  0
 61139  1  0  0  0
 61140  1  0  0  0
 62141  1  0  0  0
 62142  1  0  0  0
 62143  1  0  0  0
 63 65  1  0  0  0
 63144  1  0  0  0
 63145  1  0  0  0
 63146  1  0  0  0
 64147  1  0  0  0
 65148  1  0  0  0
 68 84  1  0  0  0
 71 86  1  0  0  0
 71 89  2  0  0  0
 71 76  1  0  0  0
 72 74  1  0  0  0
 72 87  1  0  0  0
 72149  1  0  0  0
 72150  1  0  0  0
 73 77  1  0  0  0
 73 86  1  0  0  0
 73151  1  0  0  0
 73152  1  0  0  0
 74153  1  0  0  0
 74154  1  0  0  0
 74 88  1  0  0  0
 75 78  1  0  0  0
 75 88  1  0  0  0
 75155  1  0  0  0
 75156  1  0  0  0
 76 77  1  0  0  0
 76 88  1  0  0  0
 76157  1  0  0  0
 77 82  1  0  0  0
 77158  1  0  0  0
 78 79  1  0  0  0
 78 87  1  0  0  0
 78159  1  0  0  0
 79160  1  0  0  0
 79161  1  0  0  0
 79162  1  0  0  0
 80163  1  0  0  0
 80164  1  0  0  0
 80165  1  0  0  0
 80 85  1  0  0  0
 81 85  1  0  0  0
 81166  1  0  0  0
 81167  1  0  0  0
 81168  1  0  0  0
 82 85  1  0  0  0
 82169  1  0  0  0
 82170  1  0  0  0
 83 84  1  0  0  0
 83 86  1  0  0  0
 83171  1  0  0  0
 83172  1  0  0  0
 84173  1  0  0  0
 84174  1  0  0  0
 85175  1  0  0  0
 88176  1  0  0  0
M  CHG  1  88   1
M  ISO  4   1 100  68 101  84 101  87 100
M  END
> <chiral flag>
0

> <version>
0

> <s_m_source_file>
/data/baiqing/PycharmProjects/Reinvent-master-3.2/result/LINK_invent/BTK/process_docking_weight1_custom_sum_contain_oxygen_bond_distance_aromatic_linkinvent_7_9_3/rearranged_h_0169.sdf

> <i_m_source_file_index>
54

> <r_mmod_Potential_Energy-OPLS-2005>
229.651458740234

> <r_mmod_Stretch_Energy-OPLS-2005>
80.6409378051758

> <r_mmod_Bend_Energy-OPLS-2005>
210.79069519043

> <r_mmod_Torsional_Energy-OPLS-2005>
437.545623779297

> <r_mmod_Improper_Torsional_Energy-OPLS-2005>
13.0084190368652

> <r_mmod_Van_der_Waal_Energy-OPLS-2005>
133.889114379883

> <r_mmod_Electrostatic_Energy-OPLS-2005>
-245.263732910156

> <r_mmod_Solvation_Energy-OPLS-2005>
-447.062561035156

> <b_mmod_Minimization_Converged-OPLS-2005>
0

> <r_mmod_RMS_Derivative-OPLS-2005>
1.38776683807373

$$$$
54
                    3D
 Structure written by MMmdl.
163172  0  0  1  0            999 V2000
  -30.3074  -15.6845   20.4124 C   0  0  0  0  0  0
  -30.4180  -13.1184   19.5707 C   0  0  0  0  0  0
  -29.5660  -12.6679   18.3445 C   0  0  0  0  0  0
  -28.1379  -12.2909   18.7633 C   0  0  0  0  0  0
  -27.5916  -13.3025   19.7890 C   0  0  2  0  0  0
  -28.5846  -13.6459   20.9157 C   0  0  0  0  0  0
  -25.2324  -13.8267   20.5713 C   0  0  0  0  0  0
  -24.1713  -13.0433   20.9246 C   0  0  0  0  0  0
  -24.6400  -11.6938   20.8708 C   0  0  0  0  0  0
  -23.9101  -10.4295   21.0377 C   0  0  0  0  0  0
  -24.3647   -9.4222   21.9169 C   0  0  0  0  0  0
  -23.6311   -8.2267   22.0764 C   0  0  0  0  0  0
  -22.4293   -8.0298   21.3560 C   0  0  0  0  0  0
  -21.9923   -9.0262   20.4654 C   0  0  0  0  0  0
  -22.7264  -10.2133   20.3038 C   0  0  0  0  0  0
  -21.6860   -6.0747   22.5293 C   0  0  0  0  0  0
  -21.4015   -6.5649   23.8227 C   0  0  0  0  0  0
  -21.3654   -5.6804   24.9189 C   0  0  0  0  0  0
  -21.6037   -4.3068   24.7239 C   0  0  0  0  0  0
  -21.8809   -3.8158   23.4365 C   0  0  0  0  0  0
  -21.9189   -4.6970   22.3418 C   0  0  0  0  0  0
  -22.7728  -13.5166   21.1927 C   0  0  0  0  0  0
  -22.1644   -4.2149   21.0999 F   0  0  0  0  0  0
  -21.5633   -3.4555   25.7753 F   0  0  0  0  0  0
  -29.7739  -14.3071   20.3161 N   0  0  0  0  0  0
  -26.2728  -12.9572   20.3030 N   0  0  0  0  0  0
  -25.9329  -11.6659   20.5572 N   0  0  0  0  0  0
  -22.0408  -12.8143   22.0487 N   0  0  0  0  0  0
  -25.3963  -15.2023   20.4243 N   0  0  0  0  0  0
  -31.5179  -15.5971   20.1154 O   0  0  0  0  0  0
  -21.6655   -6.8896   21.4259 O   0  0  0  0  0  0
  -22.3392  -14.5470   20.6786 O   0  0  0  0  0  0
  -24.6864  -31.7975   23.1488 C   0  0  0  0  0  0
  -25.9427  -32.4464   23.8052 C   0  0  1  0  0  0
  -27.2238  -26.6620   20.2336 C   0  0  0  0  0  0
  -25.5995  -33.8293   24.1939 N   0  0  0  0  0  0
  -23.5148  -30.3967   21.5053 C   0  0  2  0  0  0
  -24.9727  -28.7282   20.1288 C   0  0  0  0  0  0
  -22.7781  -29.4293   22.4718 C   0  0  0  0  0  0
  -18.0333  -28.1423   22.8458 C   0  0  0  0  0  0
  -24.1490  -36.7142   23.2653 C   0  0  0  0  0  0
  -26.0983  -30.5196   21.4188 C   0  0  0  0  0  0
  -26.1646  -29.0780   20.7743 C   0  0  0  0  0  0
  -27.2779  -28.0768   20.7861 C   0  0  0  0  0  0
  -25.9953  -26.5300   19.5360 C   0  0  0  0  0  0
  -24.9283  -27.4798   19.4855 C   0  0  0  0  0  0
  -23.7724  -29.6897   20.1440 C   0  0  0  0  0  0
  -25.4147  -36.2900   24.0281 C   0  0  1  0  0  0
  -20.5972  -28.3783   23.1150 C   0  0  2  0  0  0
  -20.6809  -26.9443   22.5414 C   0  0  0  0  0  0
  -19.5787  -26.6370   21.5230 C   0  0  0  0  0  0
  -18.1961  -26.7952   22.1618 C   0  0  0  0  0  0
  -19.1598  -28.8931   23.2781 C   0  0  0  0  0  0
  -18.9505  -30.1510   23.8834 C   0  0  0  0  0  0
  -17.6495  -30.6611   24.0552 C   0  0  0  0  0  0
  -25.9134  -34.9289   23.4949 C   0  0  0  0  0  0
  -16.5386  -29.9091   23.6353 C   0  0  0  0  0  0
  -16.7312  -28.6508   23.0385 C   0  0  0  0  0  0
  -26.4596  -31.6502   25.0678 C   0  0  0  0  0  0
  -25.3645  -31.3833   26.1275 C   0  0  0  0  0  0
  -27.0533  -30.2832   24.6600 C   0  0  0  0  0  0
  -27.6051  -32.4362   25.7490 C   0  0  0  0  0  0
  -27.5569  -37.1726   24.8467 C   0  0  0  0  0  0
  -21.4427  -29.3019   22.3465 N   0  0  0  0  0  0
  -26.4277  -37.3661   23.9410 N   0  0  0  0  0  0
  -24.7905  -30.9380   22.0766 N   0  0  0  0  0  0
  -23.4210  -28.7900   23.3085 O   0  0  0  0  0  0
  -28.1987  -25.4374   20.2224 O   0  0  0  0  0  0
  -26.5778  -34.8869   22.4570 O   0  0  0  0  0  0
  -23.5874  -32.1071   23.6407 O   0  0  0  0  0  0
  -32.1251  -19.6716   21.6257 C   0  0  0  0  0  0
  -31.0894  -18.7481   21.5420 C   0  0  0  0  0  0
  -32.0814  -20.8142   20.8404 C   0  0  0  0  0  0
  -30.8662  -21.1846   20.2208 C   0  0  0  0  0  0
  -29.6473  -20.4274   20.3731 C   0  0  0  0  0  0
  -29.9866  -18.7930   20.6561 C   0  0  0  0  0  0
  -30.9911  -17.6721   22.5801 C   0  0  0  0  0  0
  -29.6261  -17.0757   22.2706 C   0  0  1  0  0  0
  -33.3201  -21.6980   20.8076 C   0  0  0  0  0  0
  -30.8902  -22.5088   19.4450 C   0  0  0  0  0  0
  -29.3171  -15.8516   23.1643 C   0  0  0  0  0  0
  -27.1235  -21.0823   20.7824 C   0  0  0  0  0  0
  -28.0649  -23.6973   20.5809 C   0  0  0  0  0  0
  -28.3673  -21.7648   20.1908 C   0  0  1  0  0  0
  -29.6312  -17.0817   20.7794 N   0  0  0  0  0  0
  -31.4131  -13.3761   19.2086 H   0  0  0  0  0  0
  -30.5849  -12.2805   20.2497 H   0  0  0  0  0  0
  -30.0432  -11.8267   17.8389 H   0  0  0  0  0  0
  -29.5305  -13.4815   17.6192 H   0  0  0  0  0  0
  -28.1695  -11.2976   19.2129 H   0  0  0  0  0  0
  -27.4826  -12.2168   17.8943 H   0  0  0  0  0  0
  -27.4540  -14.2198   19.2142 H   0  0  0  0  0  0
  -28.8336  -12.7804   21.5315 H   0  0  0  0  0  0
  -28.0627  -14.3416   21.5570 H   0  0  0  0  0  0
  -25.2791   -9.5706   22.4745 H   0  0  0  0  0  0
  -24.0014   -7.4659   22.7492 H   0  0  0  0  0  0
  -21.0851   -8.8785   19.8964 H   0  0  0  0  0  0
  -22.3720  -10.9669   19.6147 H   0  0  0  0  0  0
  -21.2004   -7.6155   23.9726 H   0  0  0  0  0  0
  -21.1478   -6.0545   25.9093 H   0  0  0  0  0  0
  -22.0582   -2.7617   23.2881 H   0  0  0  0  0  0
  -22.4042  -11.9809   22.4868 H   0  0  0  0  0  0
  -21.1018  -13.1147   22.2693 H   0  0  0  0  0  0
  -24.6389  -15.8583   20.5791 H   0  0  0  0  0  0
  -26.2512  -15.6523   20.1227 H   0  0  0  0  0  0
  -26.7515  -32.4937   23.0774 H   0  0  0  0  0  0
  -25.0064  -33.9343   25.0039 H   0  0  0  0  0  0
  -22.8412  -31.2341   21.3111 H   0  0  0  0  0  0
  -23.3793  -35.9429   23.3258 H   0  0  0  0  0  0
  -24.3554  -36.8864   22.2079 H   0  0  0  0  0  0
  -23.7210  -37.6286   23.6768 H   0  0  0  0  0  0
  -26.3052  -31.2425   20.6281 H   0  0  0  0  0  0
  -26.9471  -30.5915   22.0860 H   0  0  0  0  0  0
  -28.1836  -28.3598   21.3038 H   0  0  0  0  0  0
  -25.8263  -25.5901   19.0295 H   0  0  0  0  0  0
  -24.0282  -27.2039   18.9532 H   0  0  0  0  0  0
  -23.9533  -30.4482   19.3813 H   0  0  0  0  0  0
  -22.8765  -29.1583   19.8174 H   0  0  0  0  0  0
  -25.1357  -36.1666   25.0772 H   0  0  0  0  0  0
  -21.0047  -28.3416   24.1281 H   0  0  0  0  0  0
  -20.5699  -26.2405   23.3677 H   0  0  0  0  0  0
  -21.6669  -26.7410   22.1220 H   0  0  0  0  0  0
  -19.6957  -25.6264   21.1304 H   0  0  0  0  0  0
  -19.6738  -27.3151   20.6739 H   0  0  0  0  0  0
  -17.4240  -26.6710   21.4007 H   0  0  0  0  0  0
  -18.0326  -26.0104   22.9020 H   0  0  0  0  0  0
  -19.7979  -30.7331   24.2194 H   0  0  0  0  0  0
  -17.5045  -31.6289   24.5155 H   0  0  0  0  0  0
  -15.5383  -30.2977   23.7715 H   0  0  0  0  0  0
  -15.8708  -28.0799   22.7167 H   0  0  0  0  0  0
  -24.5882  -30.7131   25.7563 H   0  0  0  0  0  0
  -24.8778  -32.3057   26.4449 H   0  0  0  0  0  0
  -25.7795  -30.9168   27.0216 H   0  0  0  0  0  0
  -26.3261  -29.6426   24.1598 H   0  0  0  0  0  0
  -27.3954  -29.7296   25.5356 H   0  0  0  0  0  0
  -27.9241  -30.3943   24.0138 H   0  0  0  0  0  0
  -27.2617  -33.3759   26.1825 H   0  0  0  0  0  0
  -28.3976  -32.6761   25.0389 H   0  0  0  0  0  0
  -28.0584  -31.8649   26.5600 H   0  0  0  0  0  0
  -28.2551  -38.0057   24.7535 H   0  0  0  0  0  0
  -28.1106  -36.2581   24.6275 H   0  0  0  0  0  0
  -27.2285  -37.1338   25.8870 H   0  0  0  0  0  0
  -20.9737  -29.8652   21.6507 H   0  0  0  0  0  0
  -26.0106  -38.2706   24.1440 H   0  0  0  0  0  0
  -32.9637  -19.4797   22.2822 H   0  0  0  0  0  0
  -31.0260  -18.0900   23.5878 H   0  0  0  0  0  0
  -31.8102  -16.9588   22.4771 H   0  0  0  0  0  0
  -28.8671  -17.8051   22.5657 H   0  0  0  0  0  0
  -34.0794  -21.3473   21.5076 H   0  0  0  0  0  0
  -33.0783  -22.7265   21.0754 H   0  0  0  0  0  0
  -33.7653  -21.6926   19.8128 H   0  0  0  0  0  0
  -31.8478  -22.6774   18.9549 H   0  0  0  0  0  0
  -30.7172  -23.3544   20.1114 H   0  0  0  0  0  0
  -30.1740  -22.5396   18.6254 H   0  0  0  0  0  0
  -29.5341  -16.1042   24.2026 H   0  0  0  0  0  0
  -29.9198  -14.9673   22.9601 H   0  0  0  0  0  0
  -28.2561  -15.6096   23.1615 H   0  0  0  0  0  0
  -26.9905  -20.0830   20.3649 H   0  0  0  0  0  0
  -26.2087  -21.6358   20.5762 H   0  0  0  0  0  0
  -27.2156  -20.9796   21.8638 H   0  0  0  0  0  0
  -28.2616  -23.7235   21.6527 H   0  0  0  0  0  0
  -26.9777  -23.6999   20.5252 H   0  0  0  0  0  0
  -28.1840  -21.7303   19.1164 H   0  0  0  0  0  0
  1 25  1  0  0  0
  1 30  2  0  0  0
  1 85  1  0  0  0
  2  3  1  0  0  0
  2 25  1  0  0  0
  2 86  1  0  0  0
  2 87  1  0  0  0
  3  4  1  0  0  0
  3 88  1  0  0  0
  3 89  1  0  0  0
  4  5  1  0  0  0
  4 90  1  0  0  0
  4 91  1  0  0  0
  5  6  1  0  0  0
  5 26  1  0  0  0
  5 92  1  0  0  0
  6 25  1  0  0  0
  6 93  1  0  0  0
  6 94  1  0  0  0
  7  8  2  0  0  0
  7 26  1  0  0  0
  7 29  1  0  0  0
  8  9  1  0  0  0
  8 22  1  0  0  0
  9 10  1  0  0  0
  9 27  2  0  0  0
 10 11  2  0  0  0
 10 15  1  0  0  0
 11 12  1  0  0  0
 11 95  1  0  0  0
 12 13  2  0  0  0
 12 96  1  0  0  0
 13 14  1  0  0  0
 13 31  1  0  0  0
 14 15  2  0  0  0
 14 97  1  0  0  0
 15 98  1  0  0  0
 16 17  2  0  0  0
 16 21  1  0  0  0
 16 31  1  0  0  0
 17 18  1  0  0  0
 17 99  1  0  0  0
 18 19  2  0  0  0
 18100  1  0  0  0
 19 20  1  0  0  0
 19 24  1  0  0  0
 20 21  2  0  0  0
 20101  1  0  0  0
 21 23  1  0  0  0
 22 28  1  0  0  0
 22 32  2  0  0  0
 26 27  1  0  0  0
 28102  1  0  0  0
 28103  1  0  0  0
 29104  1  0  0  0
 29105  1  0  0  0
 33 34  1  0  0  0
 33 66  1  0  0  0
 33 70  2  0  0  0
 34 36  1  0  0  0
 34 59  1  0  0  0
 34106  1  0  0  0
 35 44  2  0  0  0
 35 45  1  0  0  0
 35 68  1  0  0  0
 36 56  1  0  0  0
 36107  1  0  0  0
 37 39  1  0  0  0
 37 47  1  0  0  0
 37 66  1  0  0  0
 37108  1  0  0  0
 38 43  2  0  0  0
 38 46  1  0  0  0
 38 47  1  0  0  0
 39 64  1  0  0  0
 39 67  2  0  0  0
 40 52  1  0  0  0
 40 53  2  0  0  0
 40 58  1  0  0  0
 41109  1  0  0  0
 41110  1  0  0  0
 41111  1  0  0  0
 41 48  1  0  0  0
 42 43  1  0  0  0
 42 66  1  0  0  0
 42112  1  0  0  0
 42113  1  0  0  0
 43 44  1  0  0  0
 44114  1  0  0  0
 45 46  2  0  0  0
 45115  1  0  0  0
 46116  1  0  0  0
 47117  1  0  0  0
 47118  1  0  0  0
 48 56  1  0  0  0
 48 65  1  0  0  0
 48119  1  0  0  0
 49 50  1  0  0  0
 49 53  1  0  0  0
 49 64  1  0  0  0
 49120  1  0  0  0
 50 51  1  0  0  0
 50121  1  0  0  0
 50122  1  0  0  0
 51 52  1  0  0  0
 51123  1  0  0  0
 51124  1  0  0  0
 52125  1  0  0  0
 52126  1  0  0  0
 53 54  1  0  0  0
 54 55  2  0  0  0
 54127  1  0  0  0
 55 57  1  0  0  0
 55128  1  0  0  0
 56 69  2  0  0  0
 57 58  2  0  0  0
 57129  1  0  0  0
 58130  1  0  0  0
 59 60  1  0  0  0
 59 61  1  0  0  0
 59 62  1  0  0  0
 60131  1  0  0  0
 60132  1  0  0  0
 60133  1  0  0  0
 61134  1  0  0  0
 61135  1  0  0  0
 61136  1  0  0  0
 62137  1  0  0  0
 62138  1  0  0  0
 62139  1  0  0  0
 63 65  1  0  0  0
 63140  1  0  0  0
 63141  1  0  0  0
 63142  1  0  0  0
 64143  1  0  0  0
 65144  1  0  0  0
 68 83  1  0  0  0
 71 72  2  0  0  0
 71 73  1  0  0  0
 71145  1  0  0  0
 72 76  1  0  0  0
 72 77  1  0  0  0
 73 74  2  0  0  0
 73 79  1  0  0  0
 74 75  1  0  0  0
 74 80  1  0  0  0
 75 76  2  0  0  0
 75 84  1  0  0  0
 76 85  1  0  0  0
 77 78  1  0  0  0
 77146  1  0  0  0
 77147  1  0  0  0
 78 81  1  0  0  0
 78 85  1  0  0  0
 78148  1  0  0  0
 79149  1  0  0  0
 79150  1  0  0  0
 79151  1  0  0  0
 80152  1  0  0  0
 80153  1  0  0  0
 80154  1  0  0  0
 81155  1  0  0  0
 81156  1  0  0  0
 81157  1  0  0  0
 82158  1  0  0  0
 82159  1  0  0  0
 82160  1  0  0  0
 82 84  1  0  0  0
 83 84  1  0  0  0
 83161  1  0  0  0
 83162  1  0  0  0
 84163  1  0  0  0
M  ISO  4   1 100  68 101  83 101  85 100
M  END
> <chiral flag>
0

> <version>
0

> <s_m_source_file>
/data/baiqing/PycharmProjects/Reinvent-master-3.2/result/LINK_invent/BTK/process_docking_weight1_custom_sum_contain_oxygen_bond_distance_aromatic_linkinvent_7_9_3/rearranged_h_0169.sdf

> <i_m_source_file_index>
55

> <r_mmod_Potential_Energy-OPLS-2005>
3411.279296875

> <r_mmod_Stretch_Energy-OPLS-2005>
1317.50549316406

> <r_mmod_Bend_Energy-OPLS-2005>
1020.24884033203

> <r_mmod_Torsional_Energy-OPLS-2005>
407.479064941406

> <r_mmod_Improper_Torsional_Energy-OPLS-2005>
15.4816026687622

> <r_mmod_Van_der_Waal_Energy-OPLS-2005>
160.637008666992

> <r_mmod_Electrostatic_Energy-OPLS-2005>
-279.777496337891

> <r_mmod_Solvation_Energy-OPLS-2005>
-190.749649047852

> <b_mmod_Minimization_Converged-OPLS-2005>
0

> <r_mmod_RMS_Derivative-OPLS-2005>
1.52751326560974

$$$$
55
                    3D
 Structure written by MMmdl.
163173  0  0  1  0            999 V2000
  -30.6313  -14.9791   20.4290 C   0  0  0  0  0  0
  -30.4218  -12.6246   19.5010 C   0  0  0  0  0  0
  -29.5149  -12.5247   18.2575 C   0  0  0  0  0  0
  -28.0570  -12.3023   18.6877 C   0  0  0  0  0  0
  -27.6231  -13.2617   19.8273 C   0  0  2  0  0  0
  -28.6669  -13.3735   20.9599 C   0  0  0  0  0  0
  -25.2450  -13.8261   20.5730 C   0  0  0  0  0  0
  -24.1769  -13.0469   20.9228 C   0  0  0  0  0  0
  -24.6397  -11.6951   20.8760 C   0  0  0  0  0  0
  -23.9086  -10.4314   21.0413 C   0  0  0  0  0  0
  -24.3643   -9.4222   21.9186 C   0  0  0  0  0  0
  -23.6300   -8.2255   22.0759 C   0  0  0  0  0  0
  -22.4276   -8.0301   21.3554 C   0  0  0  0  0  0
  -21.9917   -9.0277   20.4657 C   0  0  0  0  0  0
  -22.7257  -10.2148   20.3059 C   0  0  0  0  0  0
  -21.6857   -6.0737   22.5270 C   0  0  0  0  0  0
  -21.4025   -6.5634   23.8204 C   0  0  0  0  0  0
  -21.3659   -5.6787   24.9167 C   0  0  0  0  0  0
  -21.6043   -4.3049   24.7219 C   0  0  0  0  0  0
  -21.8822   -3.8143   23.4338 C   0  0  0  0  0  0
  -21.9193   -4.6966   22.3393 C   0  0  0  0  0  0
  -22.7782  -13.5228   21.1865 C   0  0  0  0  0  0
  -22.1661   -4.2152   21.0972 F   0  0  0  0  0  0
  -21.5623   -3.4532   25.7730 F   0  0  0  0  0  0
  -29.9341  -13.7711   20.3334 N   0  0  0  0  0  0
  -26.2877  -12.9508   20.3253 N   0  0  0  0  0  0
  -25.9337  -11.6632   20.5752 N   0  0  0  0  0  0
  -22.0432  -12.8221   22.0425 N   0  0  0  0  0  0
  -25.4154  -15.1986   20.4160 N   0  0  0  0  0  0
  -31.8424  -14.9068   20.1948 O   0  0  0  0  0  0
  -21.6646   -6.8892   21.4241 O   0  0  0  0  0  0
  -22.3450  -14.5519   20.6698 O   0  0  0  0  0  0
  -24.6466  -31.8420   23.1890 C   0  0  0  0  0  0
  -25.9225  -32.4684   23.8289 C   0  0  1  0  0  0
  -27.2069  -27.1026   20.1564 C   0  0  0  0  0  0
  -25.5949  -33.8486   24.2205 N   0  0  0  0  0  0
  -23.4516  -30.4637   21.5352 C   0  0  2  0  0  0
  -24.9019  -28.8952   20.1073 C   0  0  0  0  0  0
  -22.7579  -29.4538   22.4850 C   0  0  0  0  0  0
  -18.0304  -28.1386   22.8466 C   0  0  0  0  0  0
  -24.1496  -36.7259   23.2647 C   0  0  0  0  0  0
  -26.0117  -30.7046   21.3967 C   0  0  0  0  0  0
  -26.0816  -29.3155   20.7350 C   0  0  0  0  0  0
  -27.2339  -28.4345   20.7478 C   0  0  0  0  0  0
  -26.0055  -26.8119   19.4655 C   0  0  0  0  0  0
  -24.8796  -27.6578   19.4555 C   0  0  0  0  0  0
  -23.6794  -29.7979   20.1533 C   0  0  0  0  0  0
  -25.4119  -36.3023   24.0325 C   0  0  1  0  0  0
  -20.5918  -28.3718   23.1213 C   0  0  2  0  0  0
  -20.6778  -26.9412   22.5391 C   0  0  0  0  0  0
  -19.5756  -26.6373   21.5190 C   0  0  0  0  0  0
  -18.1941  -26.7925   22.1607 C   0  0  0  0  0  0
  -19.1560  -28.8873   23.2831 C   0  0  0  0  0  0
  -18.9477  -30.1467   23.8868 C   0  0  0  0  0  0
  -17.6470  -30.6582   24.0552 C   0  0  0  0  0  0
  -25.9065  -34.9396   23.5074 C   0  0  0  0  0  0
  -16.5362  -29.9068   23.6332 C   0  0  0  0  0  0
  -16.7288  -28.6482   23.0359 C   0  0  0  0  0  0
  -26.4529  -31.6551   25.0741 C   0  0  0  0  0  0
  -25.3707  -31.3740   26.1434 C   0  0  0  0  0  0
  -27.0395  -30.2939   24.6354 C   0  0  0  0  0  0
  -27.6073  -32.4311   25.7505 C   0  0  0  0  0  0
  -27.5576  -37.1782   24.8462 C   0  0  0  0  0  0
  -21.4269  -29.3047   22.3596 N   0  0  0  0  0  0
  -26.4291  -37.3728   23.9400 N   0  0  0  0  0  0
  -24.7233  -31.0249   22.0951 N   0  0  0  0  0  0
  -23.4211  -28.8083   23.3008 O   0  0  0  0  0  0
  -28.2109  -26.0538   20.2581 O   0  0  0  0  0  0
  -26.5648  -34.8894   22.4653 O   0  0  0  0  0  0
  -23.5573  -32.1318   23.7082 O   0  0  0  0  0  0
  -29.9466  -21.2536   21.2930 C   0  0  0  0  0  0
  -29.5054  -22.6553   21.1540 C   0  0  0  0  0  0
  -28.4844  -23.0666   20.2310 C   0  0  0  0  0  0
  -29.3304  -20.1466   20.5763 C   0  0  0  0  0  0
  -27.9624  -21.8930   19.5578 C   0  0  0  0  0  0
  -32.4079  -21.6600   22.2047 C   0  0  0  0  0  0
  -32.3262  -20.2291   21.7526 C   0  0  0  0  0  0
  -28.8943  -17.1458   20.8505 C   0  0  0  0  0  0
  -30.6728  -17.5903   19.8523 C   0  0  0  0  0  0
  -31.0764  -20.9330   22.2405 C   0  0  0  0  0  0
  -29.7275  -18.5137   20.7186 C   0  0  0  0  0  0
  -30.1003  -23.7461   22.0350 C   0  0  0  0  0  0
  -26.7985  -22.0371   18.5942 C   0  0  0  0  0  0
  -27.7793  -24.5704   19.9962 C   0  0  0  0  0  0
  -28.3622  -20.5638   19.7036 N   0  0  0  0  0  0
  -30.0572  -16.2999   20.3646 N   0  0  0  0  0  0
  -31.4587  -12.7433   19.1838 H   0  0  0  0  0  0
  -30.3977  -11.6953   20.0722 H   0  0  0  0  0  0
  -29.8439  -11.7106   17.6102 H   0  0  0  0  0  0
  -29.5959  -13.4387   17.6662 H   0  0  0  0  0  0
  -27.9744  -11.2683   19.0261 H   0  0  0  0  0  0
  -27.3886  -12.3998   17.8318 H   0  0  0  0  0  0
  -27.5649  -14.2452   19.3589 H   0  0  0  0  0  0
  -28.7675  -12.4384   21.5111 H   0  0  0  0  0  0
  -28.3580  -14.1329   21.6812 H   0  0  0  0  0  0
  -25.2804   -9.5676   22.4742 H   0  0  0  0  0  0
  -24.0016   -7.4640   22.7453 H   0  0  0  0  0  0
  -21.0853   -8.8795   19.8948 H   0  0  0  0  0  0
  -22.3738  -10.9682   19.6148 H   0  0  0  0  0  0
  -21.2036   -7.6146   23.9704 H   0  0  0  0  0  0
  -21.1470   -6.0521   25.9066 H   0  0  0  0  0  0
  -22.0606   -2.7607   23.2831 H   0  0  0  0  0  0
  -22.4054  -11.9925   22.4881 H   0  0  0  0  0  0
  -21.1035  -13.1221   22.2596 H   0  0  0  0  0  0
  -24.6542  -15.8599   20.5218 H   0  0  0  0  0  0
  -26.2702  -15.6302   20.0897 H   0  0  0  0  0  0
  -26.7296  -32.5283   23.1016 H   0  0  0  0  0  0
  -25.0035  -33.9598   25.0312 H   0  0  0  0  0  0
  -22.7547  -31.2899   21.3800 H   0  0  0  0  0  0
  -23.3749  -35.9602   23.3308 H   0  0  0  0  0  0
  -24.3578  -36.8891   22.2061 H   0  0  0  0  0  0
  -23.7272  -37.6467   23.6680 H   0  0  0  0  0  0
  -26.1751  -31.4615   20.6284 H   0  0  0  0  0  0
  -26.8789  -30.7499   22.0437 H   0  0  0  0  0  0
  -28.1236  -28.7439   21.2780 H   0  0  0  0  0  0
  -25.8781  -25.8797   18.9402 H   0  0  0  0  0  0
  -23.9844  -27.3346   18.9415 H   0  0  0  0  0  0
  -23.8171  -30.5743   19.4003 H   0  0  0  0  0  0
  -22.7956  -29.2405   19.8395 H   0  0  0  0  0  0
  -25.1308  -36.1854   25.0819 H   0  0  0  0  0  0
  -21.0001  -28.3308   24.1335 H   0  0  0  0  0  0
  -20.5622  -26.2336   23.3615 H   0  0  0  0  0  0
  -21.6651  -26.7383   22.1220 H   0  0  0  0  0  0
  -19.6908  -25.6270   21.1249 H   0  0  0  0  0  0
  -19.6699  -27.3159   20.6698 H   0  0  0  0  0  0
  -17.4198  -26.6663   21.4021 H   0  0  0  0  0  0
  -18.0351  -26.0074   22.9012 H   0  0  0  0  0  0
  -19.7952  -30.7281   24.2241 H   0  0  0  0  0  0
  -17.5023  -31.6264   24.5146 H   0  0  0  0  0  0
  -15.5361  -30.2955   23.7674 H   0  0  0  0  0  0
  -15.8690  -28.0784   22.7105 H   0  0  0  0  0  0
  -24.5890  -30.7084   25.7750 H   0  0  0  0  0  0
  -24.8891  -32.2918   26.4815 H   0  0  0  0  0  0
  -25.7988  -30.8937   27.0243 H   0  0  0  0  0  0
  -26.3026  -29.6645   24.1356 H   0  0  0  0  0  0
  -27.3976  -29.7251   25.4943 H   0  0  0  0  0  0
  -27.8951  -30.4155   23.9711 H   0  0  0  0  0  0
  -27.2687  -33.3627   26.2043 H   0  0  0  0  0  0
  -28.3890  -32.6838   25.0331 H   0  0  0  0  0  0
  -28.0736  -31.8462   26.5441 H   0  0  0  0  0  0
  -28.2595  -38.0073   24.7476 H   0  0  0  0  0  0
  -28.1070  -36.2602   24.6320 H   0  0  0  0  0  0
  -27.2296  -37.1478   25.8866 H   0  0  0  0  0  0
  -20.9476  -29.8797   21.6809 H   0  0  0  0  0  0
  -26.0164  -38.2811   24.1357 H   0  0  0  0  0  0
  -32.5746  -22.4079   21.4326 H   0  0  0  0  0  0
  -32.9128  -21.8469   23.1511 H   0  0  0  0  0  0
  -32.7793  -19.4818   22.4022 H   0  0  0  0  0  0
  -32.4391  -20.0537   20.6846 H   0  0  0  0  0  0
  -28.0424  -17.1217   20.1701 H   0  0  0  0  0  0
  -28.5721  -16.9377   21.8713 H   0  0  0  0  0  0
  -31.7277  -17.7182   20.0984 H   0  0  0  0  0  0
  -30.5267  -17.7337   18.7819 H   0  0  0  0  0  0
  -30.6859  -20.6517   23.2172 H   0  0  0  0  0  0
  -30.2162  -18.5404   21.6907 H   0  0  0  0  0  0
  -30.3990  -23.3675   23.0122 H   0  0  0  0  0  0
  -29.3783  -24.5401   22.2253 H   0  0  0  0  0  0
  -30.9690  -24.1957   21.5542 H   0  0  0  0  0  0
  -26.0393  -22.7156   18.9824 H   0  0  0  0  0  0
  -26.3006  -21.0821   18.4265 H   0  0  0  0  0  0
  -27.1421  -22.4115   17.6296 H   0  0  0  0  0  0
  -26.8149  -24.4604   20.4948 H   0  0  0  0  0  0
  -27.5723  -24.5688   18.9269 H   0  0  0  0  0  0
  1 25  1  0  0  0
  1 30  2  0  0  0
  1 86  1  0  0  0
  2  3  1  0  0  0
  2 25  1  0  0  0
  2 87  1  0  0  0
  2 88  1  0  0  0
  3  4  1  0  0  0
  3 89  1  0  0  0
  3 90  1  0  0  0
  4  5  1  0  0  0
  4 91  1  0  0  0
  4 92  1  0  0  0
  5  6  1  0  0  0
  5 26  1  0  0  0
  5 93  1  0  0  0
  6 25  1  0  0  0
  6 94  1  0  0  0
  6 95  1  0  0  0
  7  8  2  0  0  0
  7 26  1  0  0  0
  7 29  1  0  0  0
  8  9  1  0  0  0
  8 22  1  0  0  0
  9 10  1  0  0  0
  9 27  2  0  0  0
 10 11  2  0  0  0
 10 15  1  0  0  0
 11 12  1  0  0  0
 11 96  1  0  0  0
 12 13  2  0  0  0
 12 97  1  0  0  0
 13 14  1  0  0  0
 13 31  1  0  0  0
 14 15  2  0  0  0
 14 98  1  0  0  0
 15 99  1  0  0  0
 16 17  2  0  0  0
 16 21  1  0  0  0
 16 31  1  0  0  0
 17 18  1  0  0  0
 17100  1  0  0  0
 18 19  2  0  0  0
 18101  1  0  0  0
 19 20  1  0  0  0
 19 24  1  0  0  0
 20 21  2  0  0  0
 20102  1  0  0  0
 21 23  1  0  0  0
 22 28  1  0  0  0
 22 32  2  0  0  0
 26 27  1  0  0  0
 28103  1  0  0  0
 28104  1  0  0  0
 29105  1  0  0  0
 29106  1  0  0  0
 33 34  1  0  0  0
 33 66  1  0  0  0
 33 70  2  0  0  0
 34 36  1  0  0  0
 34 59  1  0  0  0
 34107  1  0  0  0
 35 44  2  0  0  0
 35 45  1  0  0  0
 35 68  1  0  0  0
 36 56  1  0  0  0
 36108  1  0  0  0
 37 39  1  0  0  0
 37 47  1  0  0  0
 37 66  1  0  0  0
 37109  1  0  0  0
 38 43  2  0  0  0
 38 46  1  0  0  0
 38 47  1  0  0  0
 39 64  1  0  0  0
 39 67  2  0  0  0
 40 52  1  0  0  0
 40 53  2  0  0  0
 40 58  1  0  0  0
 41110  1  0  0  0
 41111  1  0  0  0
 41112  1  0  0  0
 41 48  1  0  0  0
 42 43  1  0  0  0
 42 66  1  0  0  0
 42113  1  0  0  0
 42114  1  0  0  0
 43 44  1  0  0  0
 44115  1  0  0  0
 45 46  2  0  0  0
 45116  1  0  0  0
 46117  1  0  0  0
 47118  1  0  0  0
 47119  1  0  0  0
 48 56  1  0  0  0
 48 65  1  0  0  0
 48120  1  0  0  0
 49 50  1  0  0  0
 49 53  1  0  0  0
 49 64  1  0  0  0
 49121  1  0  0  0
 50 51  1  0  0  0
 50122  1  0  0  0
 50123  1  0  0  0
 51 52  1  0  0  0
 51124  1  0  0  0
 51125  1  0  0  0
 52126  1  0  0  0
 52127  1  0  0  0
 53 54  1  0  0  0
 54 55  2  0  0  0
 54128  1  0  0  0
 55 57  1  0  0  0
 55129  1  0  0  0
 56 69  2  0  0  0
 57 58  2  0  0  0
 57130  1  0  0  0
 58131  1  0  0  0
 59 60  1  0  0  0
 59 61  1  0  0  0
 59 62  1  0  0  0
 60132  1  0  0  0
 60133  1  0  0  0
 60134  1  0  0  0
 61135  1  0  0  0
 61136  1  0  0  0
 61137  1  0  0  0
 62138  1  0  0  0
 62139  1  0  0  0
 62140  1  0  0  0
 63 65  1  0  0  0
 63141  1  0  0  0
 63142  1  0  0  0
 63143  1  0  0  0
 64144  1  0  0  0
 65145  1  0  0  0
 68 84  1  0  0  0
 71 72  2  0  0  0
 71 74  1  0  0  0
 71 80  1  0  0  0
 72 73  1  0  0  0
 72 82  1  0  0  0
 73 75  2  0  0  0
 73 84  1  0  0  0
 74 85  2  0  0  0
 74 81  1  0  0  0
 75 83  1  0  0  0
 75 85  1  0  0  0
 76 77  1  0  0  0
 76 80  1  0  0  0
 76146  1  0  0  0
 76147  1  0  0  0
 77 80  1  0  0  0
 77148  1  0  0  0
 77149  1  0  0  0
 78 81  1  0  0  0
 78 86  1  0  0  0
 78150  1  0  0  0
 78151  1  0  0  0
 79 81  1  0  0  0
 79 86  1  0  0  0
 79152  1  0  0  0
 79153  1  0  0  0
 80154  1  0  0  0
 81155  1  0  0  0
 82156  1  0  0  0
 82157  1  0  0  0
 82158  1  0  0  0
 83159  1  0  0  0
 83160  1  0  0  0
 83161  1  0  0  0
 84162  1  0  0  0
 84163  1  0  0  0
M  ISO  4   1 100  68 101  84 101  86 100
M  END
> <chiral flag>
0

> <version>
0

> <s_m_source_file>
/data/baiqing/PycharmProjects/Reinvent-master-3.2/result/LINK_invent/BTK/process_docking_weight1_custom_sum_contain_oxygen_bond_distance_aromatic_linkinvent_7_9_3/rearranged_h_0169.sdf

> <i_m_source_file_index>
56

> <r_mmod_Potential_Energy-OPLS-2005>
619.20703125

> <r_mmod_Stretch_Energy-OPLS-2005>
261.8544921875

> <r_mmod_Bend_Energy-OPLS-2005>
349.042938232422

> <r_mmod_Torsional_Energy-OPLS-2005>
284.114105224609

> <r_mmod_Improper_Torsional_Energy-OPLS-2005>
13.111967086792

> <r_mmod_Van_der_Waal_Energy-OPLS-2005>
139.327941894531

> <r_mmod_Electrostatic_Energy-OPLS-2005>
-437.401916503906

> <r_mmod_Solvation_Energy-OPLS-2005>
-221.858749389648

> <b_mmod_Minimization_Converged-OPLS-2005>
0

> <r_mmod_RMS_Derivative-OPLS-2005>
2.23572540283203

$$$$
56
                    3D
 Structure written by MMmdl.
171180  0  0  1  0            999 V2000
  -30.6020  -14.7901   20.4918 C   0  0  0  0  0  0
  -30.4370  -12.4991   19.4826 C   0  0  0  0  0  0
  -29.5186  -12.5373   18.2416 C   0  0  0  0  0  0
  -28.0421  -12.3548   18.6462 C   0  0  0  0  0  0
  -27.6428  -13.2419   19.8559 C   0  0  2  0  0  0
  -28.6865  -13.1872   20.9934 C   0  0  0  0  0  0
  -25.2503  -13.8213   20.5684 C   0  0  0  0  0  0
  -24.1811  -13.0436   20.9210 C   0  0  0  0  0  0
  -24.6423  -11.6927   20.8744 C   0  0  0  0  0  0
  -23.9106  -10.4309   21.0396 C   0  0  0  0  0  0
  -24.3650   -9.4219   21.9177 C   0  0  0  0  0  0
  -23.6312   -8.2263   22.0749 C   0  0  0  0  0  0
  -22.4290   -8.0306   21.3557 C   0  0  0  0  0  0
  -21.9933   -9.0274   20.4644 C   0  0  0  0  0  0
  -22.7271  -10.2148   20.3051 C   0  0  0  0  0  0
  -21.6870   -6.0741   22.5277 C   0  0  0  0  0  0
  -21.4018   -6.5640   23.8208 C   0  0  0  0  0  0
  -21.3660   -5.6792   24.9171 C   0  0  0  0  0  0
  -21.6054   -4.3055   24.7225 C   0  0  0  0  0  0
  -21.8819   -3.8152   23.4341 C   0  0  0  0  0  0
  -21.9193   -4.6970   22.3399 C   0  0  0  0  0  0
  -22.7836  -13.5215   21.1873 C   0  0  0  0  0  0
  -22.1660   -4.2163   21.0974 F   0  0  0  0  0  0
  -21.5640   -3.4527   25.7734 F   0  0  0  0  0  0
  -29.9826  -13.5601   20.4144 N   0  0  0  0  0  0
  -26.2953  -12.9439   20.3299 N   0  0  0  0  0  0
  -25.9362  -11.6573   20.5755 N   0  0  0  0  0  0
  -22.0484  -12.8187   22.0424 N   0  0  0  0  0  0
  -25.4177  -15.1937   20.4093 N   0  0  0  0  0  0
  -31.7758  -14.9131   20.1259 O   0  0  0  0  0  0
  -21.6662   -6.8893   21.4247 O   0  0  0  0  0  0
  -22.3526  -14.5517   20.6722 O   0  0  0  0  0  0
  -24.6347  -31.8501   23.2008 C   0  0  0  0  0  0
  -25.9159  -32.4734   23.8327 C   0  0  1  0  0  0
  -27.2098  -27.2093   20.1336 C   0  0  0  0  0  0
  -25.5955  -33.8535   24.2236 N   0  0  0  0  0  0
  -23.4331  -30.4737   21.5470 C   0  0  2  0  0  0
  -24.8815  -28.9235   20.1116 C   0  0  0  0  0  0
  -22.7526  -29.4538   22.4928 C   0  0  0  0  0  0
  -18.0279  -28.1378   22.8481 C   0  0  0  0  0  0
  -24.1497  -36.7271   23.2637 C   0  0  0  0  0  0
  -25.9851  -30.7438   21.3942 C   0  0  0  0  0  0
  -26.0559  -29.3649   20.7331 C   0  0  0  0  0  0
  -27.2208  -28.5201   20.7392 C   0  0  0  0  0  0
  -26.0125  -26.8707   19.4565 C   0  0  0  0  0  0
  -24.8679  -27.6847   19.4625 C   0  0  0  0  0  0
  -23.6561  -29.8149   20.1620 C   0  0  0  0  0  0
  -25.4132  -36.3057   24.0311 C   0  0  1  0  0  0
  -20.5888  -28.3681   23.1287 C   0  0  2  0  0  0
  -20.6782  -26.9400   22.5426 C   0  0  0  0  0  0
  -19.5759  -26.6373   21.5227 C   0  0  0  0  0  0
  -18.1929  -26.7918   22.1622 C   0  0  0  0  0  0
  -19.1536  -28.8849   23.2867 C   0  0  0  0  0  0
  -18.9452  -30.1458   23.8877 C   0  0  0  0  0  0
  -17.6448  -30.6582   24.0551 C   0  0  0  0  0  0
  -25.9070  -34.9426   23.5073 C   0  0  0  0  0  0
  -16.5342  -29.9067   23.6340 C   0  0  0  0  0  0
  -16.7263  -28.6489   23.0353 C   0  0  0  0  0  0
  -26.4516  -31.6576   25.0733 C   0  0  0  0  0  0
  -25.3730  -31.3711   26.1443 C   0  0  0  0  0  0
  -27.0375  -30.2994   24.6251 C   0  0  0  0  0  0
  -27.6051  -32.4333   25.7518 C   0  0  0  0  0  0
  -27.5579  -37.1806   24.8457 C   0  0  0  0  0  0
  -21.4230  -29.3015   22.3681 N   0  0  0  0  0  0
  -26.4295  -37.3773   23.9397 N   0  0  0  0  0  0
  -24.7031  -31.0414   22.1030 N   0  0  0  0  0  0
  -23.4213  -28.8058   23.3018 O   0  0  0  0  0  0
  -28.2630  -26.2432   20.2246 O   0  0  0  0  0  0
  -26.5638  -34.8906   22.4640 O   0  0  0  0  0  0
  -23.5493  -32.1324   23.7299 O   0  0  0  0  0  0
  -27.4871  -19.5978   19.2404 C   0  0  0  0  0  0
  -28.1935  -21.9947   19.3504 C   0  0  0  0  0  0
  -28.3963  -20.5590   19.7669 C   0  0  0  0  0  0
  -26.4786  -19.9261   18.3362 C   0  0  0  0  0  0
  -27.2806  -22.1441   18.2384 C   0  0  0  0  0  0
  -29.2512  -18.5807   21.2799 C   0  0  0  0  0  0
  -30.6390  -19.5894   19.7040 C   0  0  0  0  0  0
  -30.2708  -17.4191   20.8266 C   0  0  2  0  0  0
  -30.7381  -18.0380   19.5020 C   0  0  2  0  0  0
  -25.4773  -18.9203   17.8062 C   0  0  0  0  0  0
  -27.1603  -23.3215   17.2853 C   0  0  0  0  0  0
  -30.2348  -23.5889   19.3742 C   0  0  0  0  0  0
  -27.9721  -24.8070   19.8063 C   0  0  0  0  0  0
  -28.8259  -23.3806   19.9471 C   0  0  1  0  0  0
  -26.4562  -21.1595   17.8452 N   0  3  0  0  0  0
  -29.4547  -19.8938   20.5218 N   0  0  0  0  0  0
  -29.8502  -15.9317   20.7673 N   0  0  0  0  0  0
  -32.0792  -17.5674   19.1173 N   0  3  0  0  0  0
  -31.4772  -12.6356   19.1841 H   0  0  0  0  0  0
  -30.3949  -11.5230   19.9660 H   0  0  0  0  0  0
  -29.8101  -11.7642   17.5306 H   0  0  0  0  0  0
  -29.6412  -13.4912   17.7261 H   0  0  0  0  0  0
  -27.8912  -11.3017   18.8861 H   0  0  0  0  0  0
  -27.3920  -12.5717   17.7982 H   0  0  0  0  0  0
  -27.6308  -14.2667   19.4836 H   0  0  0  0  0  0
  -28.7355  -12.1917   21.4344 H   0  0  0  0  0  0
  -28.4126  -13.8674   21.8014 H   0  0  0  0  0  0
  -25.2795   -9.5687   22.4757 H   0  0  0  0  0  0
  -24.0025   -7.4644   22.7455 H   0  0  0  0  0  0
  -21.0875   -8.8781   19.8942 H   0  0  0  0  0  0
  -22.3722  -10.9686   19.6163 H   0  0  0  0  0  0
  -21.2004   -7.6143   23.9708 H   0  0  0  0  0  0
  -21.1487   -6.0525   25.9073 H   0  0  0  0  0  0
  -22.0598   -2.7616   23.2833 H   0  0  0  0  0  0
  -22.4096  -11.9833   22.4786 H   0  0  0  0  0  0
  -21.1097  -13.1204   22.2640 H   0  0  0  0  0  0
  -24.6442  -15.8411   20.5133 H   0  0  0  0  0  0
  -26.2571  -15.6307   20.0545 H   0  0  0  0  0  0
  -26.7191  -32.5366   23.1024 H   0  0  0  0  0  0
  -25.0124  -33.9661   25.0397 H   0  0  0  0  0  0
  -22.7291  -31.2959   21.4040 H   0  0  0  0  0  0
  -23.3771  -35.9592   23.3296 H   0  0  0  0  0  0
  -24.3572  -36.8914   22.2052 H   0  0  0  0  0  0
  -23.7249  -37.6464   23.6673 H   0  0  0  0  0  0
  -26.1314  -31.5011   20.6227 H   0  0  0  0  0  0
  -26.8593  -30.7898   22.0318 H   0  0  0  0  0  0
  -28.1090  -28.8486   21.2605 H   0  0  0  0  0  0
  -25.8983  -25.9399   18.9250 H   0  0  0  0  0  0
  -23.9716  -27.3434   18.9635 H   0  0  0  0  0  0
  -23.7947  -30.5940   19.4126 H   0  0  0  0  0  0
  -22.7722  -29.2560   19.8491 H   0  0  0  0  0  0
  -25.1332  -36.1884   25.0806 H   0  0  0  0  0  0
  -20.9940  -28.3255   24.1422 H   0  0  0  0  0  0
  -20.5720  -26.2270   23.3621 H   0  0  0  0  0  0
  -21.6645  -26.7451   22.1194 H   0  0  0  0  0  0
  -19.6929  -25.6286   21.1255 H   0  0  0  0  0  0
  -19.6713  -27.3194   20.6770 H   0  0  0  0  0  0
  -17.4215  -26.6670   21.4006 H   0  0  0  0  0  0
  -18.0313  -26.0054   22.9009 H   0  0  0  0  0  0
  -19.7924  -30.7287   24.2239 H   0  0  0  0  0  0
  -17.4993  -31.6265   24.5145 H   0  0  0  0  0  0
  -15.5336  -30.2955   23.7693 H   0  0  0  0  0  0
  -15.8662  -28.0809   22.7075 H   0  0  0  0  0  0
  -24.5924  -30.7040   25.7760 H   0  0  0  0  0  0
  -24.8897  -32.2869   26.4858 H   0  0  0  0  0  0
  -25.8049  -30.8892   27.0223 H   0  0  0  0  0  0
  -26.2969  -29.6737   24.1257 H   0  0  0  0  0  0
  -27.4018  -29.7265   25.4785 H   0  0  0  0  0  0
  -27.8865  -30.4264   23.9533 H   0  0  0  0  0  0
  -27.2634  -33.3629   26.2081 H   0  0  0  0  0  0
  -28.3878  -32.6907   25.0368 H   0  0  0  0  0  0
  -28.0695  -31.8470   26.5455 H   0  0  0  0  0  0
  -28.2600  -38.0106   24.7520 H   0  0  0  0  0  0
  -28.1082  -36.2637   24.6280 H   0  0  0  0  0  0
  -27.2279  -37.1445   25.8856 H   0  0  0  0  0  0
  -20.9434  -29.8708   21.6855 H   0  0  0  0  0  0
  -26.0162  -38.2836   24.1429 H   0  0  0  0  0  0
  -27.5524  -18.5492   19.4637 H   0  0  0  0  0  0
  -29.4381  -18.7937   22.3339 H   0  0  0  0  0  0
  -28.2247  -18.2198   21.2890 H   0  0  0  0  0  0
  -30.6171  -20.1106   18.7439 H   0  0  0  0  0  0
  -31.5167  -19.9606   20.2379 H   0  0  0  0  0  0
  -31.1027  -17.4630   21.5335 H   0  0  0  0  0  0
  -30.0375  -17.7458   18.7199 H   0  0  0  0  0  0
  -25.5328  -17.9750   18.3466 H   0  0  0  0  0  0
  -25.6615  -18.7239   16.7502 H   0  0  0  0  0  0
  -24.4632  -19.3054   17.9171 H   0  0  0  0  0  0
  -26.4109  -24.0340   17.6285 H   0  0  0  0  0  0
  -26.8289  -22.9926   16.2991 H   0  0  0  0  0  0
  -28.1236  -23.7969   17.1058 H   0  0  0  0  0  0
  -30.8922  -22.7573   19.6242 H   0  0  0  0  0  0
  -30.6863  -24.4997   19.7688 H   0  0  0  0  0  0
  -30.2119  -23.6778   18.2877 H   0  0  0  0  0  0
  -26.9728  -24.5567   20.1632 H   0  0  0  0  0  0
  -27.9231  -25.0295   18.7557 H   0  0  0  0  0  0
  -28.9310  -23.2048   21.0179 H   0  0  0  0  0  0
  -25.7925  -21.3625   17.0947 H   0  0  0  0  0  0
  -28.8833  -15.7492   20.9885 H   0  0  0  0  0  0
  -32.7825  -17.9516   19.7226 H   0  0  0  0  0  0
  -32.2934  -17.8163   18.1681 H   0  0  0  0  0  0
  -32.1160  -16.5593   19.2114 H   0  0  0  0  0  0
  1 25  1  0  0  0
  1 30  2  0  0  0
  1 87  1  0  0  0
  2  3  1  0  0  0
  2 25  1  0  0  0
  2 89  1  0  0  0
  2 90  1  0  0  0
  3  4  1  0  0  0
  3 91  1  0  0  0
  3 92  1  0  0  0
  4  5  1  0  0  0
  4 93  1  0  0  0
  4 94  1  0  0  0
  5  6  1  0  0  0
  5 26  1  0  0  0
  5 95  1  0  0  0
  6 25  1  0  0  0
  6 96  1  0  0  0
  6 97  1  0  0  0
  7  8  2  0  0  0
  7 26  1  0  0  0
  7 29  1  0  0  0
  8  9  1  0  0  0
  8 22  1  0  0  0
  9 10  1  0  0  0
  9 27  2  0  0  0
 10 11  2  0  0  0
 10 15  1  0  0  0
 11 12  1  0  0  0
 11 98  1  0  0  0
 12 13  2  0  0  0
 12 99  1  0  0  0
 13 14  1  0  0  0
 13 31  1  0  0  0
 14 15  2  0  0  0
 14100  1  0  0  0
 15101  1  0  0  0
 16 17  2  0  0  0
 16 21  1  0  0  0
 16 31  1  0  0  0
 17 18  1  0  0  0
 17102  1  0  0  0
 18 19  2  0  0  0
 18103  1  0  0  0
 19 20  1  0  0  0
 19 24  1  0  0  0
 20 21  2  0  0  0
 20104  1  0  0  0
 21 23  1  0  0  0
 22 28  1  0  0  0
 22 32  2  0  0  0
 26 27  1  0  0  0
 28105  1  0  0  0
 28106  1  0  0  0
 29107  1  0  0  0
 29108  1  0  0  0
 33 34  1  0  0  0
 33 66  1  0  0  0
 33 70  2  0  0  0
 34 36  1  0  0  0
 34 59  1  0  0  0
 34109  1  0  0  0
 35 44  2  0  0  0
 35 45  1  0  0  0
 35 68  1  0  0  0
 36 56  1  0  0  0
 36110  1  0  0  0
 37 39  1  0  0  0
 37 47  1  0  0  0
 37 66  1  0  0  0
 37111  1  0  0  0
 38 43  2  0  0  0
 38 46  1  0  0  0
 38 47  1  0  0  0
 39 64  1  0  0  0
 39 67  2  0  0  0
 40 52  1  0  0  0
 40 53  2  0  0  0
 40 58  1  0  0  0
 41112  1  0  0  0
 41113  1  0  0  0
 41114  1  0  0  0
 41 48  1  0  0  0
 42 43  1  0  0  0
 42 66  1  0  0  0
 42115  1  0  0  0
 42116  1  0  0  0
 43 44  1  0  0  0
 44117  1  0  0  0
 45 46  2  0  0  0
 45118  1  0  0  0
 46119  1  0  0  0
 47120  1  0  0  0
 47121  1  0  0  0
 48 56  1  0  0  0
 48 65  1  0  0  0
 48122  1  0  0  0
 49 50  1  0  0  0
 49 53  1  0  0  0
 49 64  1  0  0  0
 49123  1  0  0  0
 50 51  1  0  0  0
 50124  1  0  0  0
 50125  1  0  0  0
 51 52  1  0  0  0
 51126  1  0  0  0
 51127  1  0  0  0
 52128  1  0  0  0
 52129  1  0  0  0
 53 54  1  0  0  0
 54 55  2  0  0  0
 54130  1  0  0  0
 55 57  1  0  0  0
 55131  1  0  0  0
 56 69  2  0  0  0
 57 58  2  0  0  0
 57132  1  0  0  0
 58133  1  0  0  0
 59 60  1  0  0  0
 59 61  1  0  0  0
 59 62  1  0  0  0
 60134  1  0  0  0
 60135  1  0  0  0
 60136  1  0  0  0
 61137  1  0  0  0
 61138  1  0  0  0
 61139  1  0  0  0
 62140  1  0  0  0
 62141  1  0  0  0
 62142  1  0  0  0
 63 65  1  0  0  0
 63143  1  0  0  0
 63144  1  0  0  0
 63145  1  0  0  0
 64146  1  0  0  0
 65147  1  0  0  0
 68 83  1  0  0  0
 71 73  2  0  0  0
 71 74  1  0  0  0
 71148  1  0  0  0
 72 73  1  0  0  0
 72 75  2  0  0  0
 72 84  1  0  0  0
 73 86  1  0  0  0
 74 80  1  0  0  0
 74 85  2  0  0  0
 75 81  1  0  0  0
 75 85  1  0  0  0
 76 78  1  0  0  0
 76 86  1  0  0  0
 76149  1  0  0  0
 76150  1  0  0  0
 77 79  1  0  0  0
 77 86  1  0  0  0
 77151  1  0  0  0
 77152  1  0  0  0
 78 79  1  0  0  0
 78 87  1  0  0  0
 78153  1  0  0  0
 79 88  1  0  0  0
 79154  1  0  0  0
 80155  1  0  0  0
 80156  1  0  0  0
 80157  1  0  0  0
 81158  1  0  0  0
 81159  1  0  0  0
 81160  1  0  0  0
 82161  1  0  0  0
 82162  1  0  0  0
 82163  1  0  0  0
 82 84  1  0  0  0
 83 84  1  0  0  0
 83164  1  0  0  0
 83165  1  0  0  0
 84166  1  0  0  0
 85167  1  0  0  0
 87168  1  0  0  0
 88169  1  0  0  0
 88170  1  0  0  0
 88171  1  0  0  0
M  CHG  2  85   1  88   1
M  ISO  4   1 100  68 101  83 101  87 100
M  END
> <chiral flag>
0

> <version>
0

> <s_m_source_file>
/data/baiqing/PycharmProjects/Reinvent-master-3.2/result/LINK_invent/BTK/process_docking_weight1_custom_sum_contain_oxygen_bond_distance_aromatic_linkinvent_7_9_3/rearranged_h_0169.sdf

> <i_m_source_file_index>
57

> <r_mmod_Potential_Energy-OPLS-2005>
54.2765846252441

> <r_mmod_Stretch_Energy-OPLS-2005>
190.092437744141

> <r_mmod_Bend_Energy-OPLS-2005>
283.656524658203

> <r_mmod_Torsional_Energy-OPLS-2005>
330.949554443359

> <r_mmod_Improper_Torsional_Energy-OPLS-2005>
11.7076854705811

> <r_mmod_Van_der_Waal_Energy-OPLS-2005>
162.990158081055

> <r_mmod_Electrostatic_Energy-OPLS-2005>
-137.642318725586

> <r_mmod_Solvation_Energy-OPLS-2005>
-905.003967285156

> <b_mmod_Minimization_Converged-OPLS-2005>
0

> <r_mmod_RMS_Derivative-OPLS-2005>
2.37225985527039

$$$$
57
                    3D
 Structure written by MMmdl.
159168  0  0  1  0            999 V2000
  -30.5728  -15.0755   20.4027 C   0  0  0  0  0  0
  -30.4129  -12.6872   19.5073 C   0  0  0  0  0  0
  -29.5109  -12.5466   18.2629 C   0  0  0  0  0  0
  -28.0528  -12.3136   18.6880 C   0  0  0  0  0  0
  -27.6104  -13.2718   19.8250 C   0  0  2  0  0  0
  -28.6509  -13.3974   20.9577 C   0  0  0  0  0  0
  -25.2366  -13.8260   20.5740 C   0  0  0  0  0  0
  -24.1724  -13.0448   20.9258 C   0  0  0  0  0  0
  -24.6381  -11.6946   20.8778 C   0  0  0  0  0  0
  -23.9086  -10.4304   21.0413 C   0  0  0  0  0  0
  -24.3636   -9.4216   21.9186 C   0  0  0  0  0  0
  -23.6305   -8.2251   22.0753 C   0  0  0  0  0  0
  -22.4287   -8.0290   21.3544 C   0  0  0  0  0  0
  -21.9930   -9.0265   20.4646 C   0  0  0  0  0  0
  -22.7262  -10.2141   20.3058 C   0  0  0  0  0  0
  -21.6857   -6.0741   22.5278 C   0  0  0  0  0  0
  -21.4018   -6.5641   23.8214 C   0  0  0  0  0  0
  -21.3660   -5.6790   24.9174 C   0  0  0  0  0  0
  -21.6045   -4.3054   24.7223 C   0  0  0  0  0  0
  -21.8819   -3.8148   23.4344 C   0  0  0  0  0  0
  -21.9195   -4.6967   22.3400 C   0  0  0  0  0  0
  -22.7745  -13.5202   21.1898 C   0  0  0  0  0  0
  -22.1660   -4.2154   21.0979 F   0  0  0  0  0  0
  -21.5631   -3.4533   25.7733 F   0  0  0  0  0  0
  -29.8987  -13.8408   20.3231 N   0  0  0  0  0  0
  -26.2799  -12.9537   20.3238 N   0  0  0  0  0  0
  -25.9318  -11.6648   20.5754 N   0  0  0  0  0  0
  -22.0401  -12.8180   22.0454 N   0  0  0  0  0  0
  -25.3993  -15.1990   20.4172 N   0  0  0  0  0  0
  -31.7928  -14.9701   20.2146 O   0  0  0  0  0  0
  -21.6647   -6.8887   21.4242 O   0  0  0  0  0  0
  -22.3427  -14.5507   20.6744 O   0  0  0  0  0  0
  -24.6492  -31.8355   23.1807 C   0  0  0  0  0  0
  -25.9239  -32.4642   23.8221 C   0  0  1  0  0  0
  -27.2153  -27.0491   20.1810 C   0  0  0  0  0  0
  -25.5960  -33.8452   24.2136 N   0  0  0  0  0  0
  -23.4576  -30.4496   21.5264 C   0  0  2  0  0  0
  -24.9088  -28.8519   20.1169 C   0  0  0  0  0  0
  -22.7589  -29.4495   22.4824 C   0  0  0  0  0  0
  -18.0306  -28.1401   22.8467 C   0  0  0  0  0  0
  -24.1498  -36.7228   23.2640 C   0  0  0  0  0  0
  -26.0174  -30.6801   21.3933 C   0  0  0  0  0  0
  -26.0852  -29.2797   20.7440 C   0  0  0  0  0  0
  -27.2357  -28.3942   20.7578 C   0  0  0  0  0  0
  -26.0157  -26.7383   19.5083 C   0  0  0  0  0  0
  -24.8897  -27.5972   19.4841 C   0  0  0  0  0  0
  -23.6914  -29.7671   20.1501 C   0  0  0  0  0  0
  -25.4132  -36.3005   24.0307 C   0  0  1  0  0  0
  -20.5918  -28.3730   23.1209 C   0  0  2  0  0  0
  -20.6782  -26.9417   22.5409 C   0  0  0  0  0  0
  -19.5768  -26.6374   21.5205 C   0  0  0  0  0  0
  -18.1946  -26.7936   22.1612 C   0  0  0  0  0  0
  -19.1565  -28.8884   23.2831 C   0  0  0  0  0  0
  -18.9485  -30.1474   23.8866 C   0  0  0  0  0  0
  -17.6483  -30.6596   24.0557 C   0  0  0  0  0  0
  -25.9085  -34.9377   23.5040 C   0  0  0  0  0  0
  -16.5369  -29.9089   23.6335 C   0  0  0  0  0  0
  -16.7292  -28.6507   23.0355 C   0  0  0  0  0  0
  -26.4540  -31.6545   25.0701 C   0  0  0  0  0  0
  -25.3704  -31.3785   26.1389 C   0  0  0  0  0  0
  -27.0407  -30.2920   24.6353 C   0  0  0  0  0  0
  -27.6053  -32.4329   25.7502 C   0  0  0  0  0  0
  -27.5577  -37.1777   24.8462 C   0  0  0  0  0  0
  -21.4275  -29.3039   22.3570 N   0  0  0  0  0  0
  -26.4292  -37.3723   23.9400 N   0  0  0  0  0  0
  -24.7281  -31.0130   22.0877 N   0  0  0  0  0  0
  -23.4198  -28.8044   23.3004 O   0  0  0  0  0  0
  -28.2938  -26.0675   20.1937 O   0  0  0  0  0  0
  -26.5687  -34.8891   22.4627 O   0  0  0  0  0  0
  -23.5593  -32.1273   23.6975 O   0  0  0  0  0  0
  -27.8426  -22.1699   21.0335 C   0  0  0  0  0  0
  -28.8419  -21.4936   20.2341 C   0  0  0  0  0  0
  -27.5871  -23.6228   21.0404 C   0  0  0  0  0  0
  -29.5005  -22.5275   19.4565 C   0  0  0  0  0  0
  -28.2982  -24.5657   20.2088 C   0  0  0  0  0  0
  -30.5339  -19.1859   20.5600 C   0  0  0  0  0  0
  -28.2652  -18.6245   20.7073 C   0  0  0  0  0  0
  -30.9144  -17.6410   20.1923 C   0  0  0  0  0  0
  -28.6016  -17.0180   20.4212 C   0  0  0  0  0  0
  -29.1567  -19.8156   20.0961 C   0  0  0  0  0  0
  -26.5352  -24.1634   21.9904 C   0  0  0  0  0  0
  -30.5903  -22.1229   18.4814 C   0  0  0  0  0  0
  -29.2608  -23.9134   19.4641 N   0  0  0  0  0  0
  -30.0116  -16.4343   20.4484 N   0  0  0  0  0  0
  -31.4451  -12.8258   19.1826 H   0  0  0  0  0  0
  -30.4157  -11.7651   20.0910 H   0  0  0  0  0  0
  -29.8553  -11.7273   17.6305 H   0  0  0  0  0  0
  -29.5777  -13.4528   17.6582 H   0  0  0  0  0  0
  -27.9724  -11.2799   19.0253 H   0  0  0  0  0  0
  -27.3856  -12.4064   17.8305 H   0  0  0  0  0  0
  -27.5418  -14.2536   19.3554 H   0  0  0  0  0  0
  -28.7788  -12.4533   21.4895 H   0  0  0  0  0  0
  -28.3275  -14.1298   21.6982 H   0  0  0  0  0  0
  -25.2777   -9.5686   22.4769 H   0  0  0  0  0  0
  -24.0009   -7.4637   22.7466 H   0  0  0  0  0  0
  -21.0862   -8.8789   19.8948 H   0  0  0  0  0  0
  -22.3720  -10.9684   19.6173 H   0  0  0  0  0  0
  -21.2014   -7.6149   23.9721 H   0  0  0  0  0  0
  -21.1481   -6.0519   25.9076 H   0  0  0  0  0  0
  -22.0600   -2.7610   23.2842 H   0  0  0  0  0  0
  -22.4034  -11.9847   22.4844 H   0  0  0  0  0  0
  -21.1018  -13.1200   22.2654 H   0  0  0  0  0  0
  -24.6301  -15.8493   20.5374 H   0  0  0  0  0  0
  -26.2472  -15.6430   20.0917 H   0  0  0  0  0  0
  -26.7297  -32.5228   23.0932 H   0  0  0  0  0  0
  -25.0056  -33.9542   25.0255 H   0  0  0  0  0  0
  -22.7648  -31.2769   21.3608 H   0  0  0  0  0  0
  -23.3768  -35.9554   23.3294 H   0  0  0  0  0  0
  -24.3573  -36.8874   22.2055 H   0  0  0  0  0  0
  -23.7251  -37.6415   23.6692 H   0  0  0  0  0  0
  -26.1820  -31.4254   20.6139 H   0  0  0  0  0  0
  -26.8838  -30.7353   22.0405 H   0  0  0  0  0  0
  -28.1377  -28.7198   21.2566 H   0  0  0  0  0  0
  -25.9296  -25.7785   19.0194 H   0  0  0  0  0  0
  -23.9917  -27.2656   18.9817 H   0  0  0  0  0  0
  -23.8428  -30.5365   19.3919 H   0  0  0  0  0  0
  -22.8044  -29.2154   19.8340 H   0  0  0  0  0  0
  -25.1319  -36.1822   25.0800 H   0  0  0  0  0  0
  -21.0011  -28.3346   24.1331 H   0  0  0  0  0  0
  -20.5645  -26.2342   23.3636 H   0  0  0  0  0  0
  -21.6646  -26.7397   22.1221 H   0  0  0  0  0  0
  -19.6927  -25.6271   21.1264 H   0  0  0  0  0  0
  -19.6718  -27.3162   20.6715 H   0  0  0  0  0  0
  -17.4204  -26.6663   21.4029 H   0  0  0  0  0  0
  -18.0363  -26.0088   22.9021 H   0  0  0  0  0  0
  -19.7961  -30.7290   24.2235 H   0  0  0  0  0  0
  -17.5035  -31.6271   24.5161 H   0  0  0  0  0  0
  -15.5370  -30.2988   23.7668 H   0  0  0  0  0  0
  -15.8687  -28.0817   22.7096 H   0  0  0  0  0  0
  -24.5906  -30.7093   25.7737 H   0  0  0  0  0  0
  -24.8868  -32.2985   26.4688 H   0  0  0  0  0  0
  -25.7974  -30.9072   27.0252 H   0  0  0  0  0  0
  -26.3054  -29.6632   24.1319 H   0  0  0  0  0  0
  -27.3929  -29.7238   25.4972 H   0  0  0  0  0  0
  -27.9001  -30.4106   23.9748 H   0  0  0  0  0  0
  -27.2633  -33.3659   26.1995 H   0  0  0  0  0  0
  -28.3924  -32.6839   25.0380 H   0  0  0  0  0  0
  -28.0649  -31.8508   26.5498 H   0  0  0  0  0  0
  -28.2580  -38.0083   24.7484 H   0  0  0  0  0  0
  -28.1091  -36.2607   24.6324 H   0  0  0  0  0  0
  -27.2287  -37.1453   25.8864 H   0  0  0  0  0  0
  -20.9505  -29.8747   21.6724 H   0  0  0  0  0  0
  -26.0154  -38.2789   24.1405 H   0  0  0  0  0  0
  -27.2372  -21.5505   21.6805 H   0  0  0  0  0  0
  -31.3375  -19.8053   20.1655 H   0  0  0  0  0  0
  -30.6111  -19.3028   21.6421 H   0  0  0  0  0  0
  -28.2518  -18.7561   21.7903 H   0  0  0  0  0  0
  -27.2318  -18.7984   20.4068 H   0  0  0  0  0  0
  -31.8686  -17.4467   20.6859 H   0  0  0  0  0  0
  -31.1417  -17.6142   19.1255 H   0  0  0  0  0  0
  -28.2156  -16.7814   19.4294 H   0  0  0  0  0  0
  -27.9991  -16.4262   21.1096 H   0  0  0  0  0  0
  -29.1066  -19.6615   19.0178 H   0  0  0  0  0  0
  -26.2918  -23.4390   22.7680 H   0  0  0  0  0  0
  -25.6221  -24.4031   21.4446 H   0  0  0  0  0  0
  -26.8865  -25.0723   22.4798 H   0  0  0  0  0  0
  -31.4672  -21.7627   19.0158 H   0  0  0  0  0  0
  -30.9050  -22.9598   17.8566 H   0  0  0  0  0  0
  -30.2410  -21.3325   17.8181 H   0  0  0  0  0  0
  1 25  1  0  0  0
  1 30  2  0  0  0
  1 84  1  0  0  0
  2  3  1  0  0  0
  2 25  1  0  0  0
  2 85  1  0  0  0
  2 86  1  0  0  0
  3  4  1  0  0  0
  3 87  1  0  0  0
  3 88  1  0  0  0
  4  5  1  0  0  0
  4 89  1  0  0  0
  4 90  1  0  0  0
  5  6  1  0  0  0
  5 26  1  0  0  0
  5 91  1  0  0  0
  6 25  1  0  0  0
  6 92  1  0  0  0
  6 93  1  0  0  0
  7  8  2  0  0  0
  7 26  1  0  0  0
  7 29  1  0  0  0
  8  9  1  0  0  0
  8 22  1  0  0  0
  9 10  1  0  0  0
  9 27  2  0  0  0
 10 11  2  0  0  0
 10 15  1  0  0  0
 11 12  1  0  0  0
 11 94  1  0  0  0
 12 13  2  0  0  0
 12 95  1  0  0  0
 13 14  1  0  0  0
 13 31  1  0  0  0
 14 15  2  0  0  0
 14 96  1  0  0  0
 15 97  1  0  0  0
 16 17  2  0  0  0
 16 21  1  0  0  0
 16 31  1  0  0  0
 17 18  1  0  0  0
 17 98  1  0  0  0
 18 19  2  0  0  0
 18 99  1  0  0  0
 19 20  1  0  0  0
 19 24  1  0  0  0
 20 21  2  0  0  0
 20100  1  0  0  0
 21 23  1  0  0  0
 22 28  1  0  0  0
 22 32  2  0  0  0
 26 27  1  0  0  0
 28101  1  0  0  0
 28102  1  0  0  0
 29103  1  0  0  0
 29104  1  0  0  0
 33 34  1  0  0  0
 33 66  1  0  0  0
 33 70  2  0  0  0
 34 36  1  0  0  0
 34 59  1  0  0  0
 34105  1  0  0  0
 35 44  2  0  0  0
 35 45  1  0  0  0
 35 68  1  0  0  0
 36 56  1  0  0  0
 36106  1  0  0  0
 37 39  1  0  0  0
 37 47  1  0  0  0
 37 66  1  0  0  0
 37107  1  0  0  0
 38 43  2  0  0  0
 38 46  1  0  0  0
 38 47  1  0  0  0
 39 64  1  0  0  0
 39 67  2  0  0  0
 40 52  1  0  0  0
 40 53  2  0  0  0
 40 58  1  0  0  0
 41108  1  0  0  0
 41109  1  0  0  0
 41110  1  0  0  0
 41 48  1  0  0  0
 42 43  1  0  0  0
 42 66  1  0  0  0
 42111  1  0  0  0
 42112  1  0  0  0
 43 44  1  0  0  0
 44113  1  0  0  0
 45 46  2  0  0  0
 45114  1  0  0  0
 46115  1  0  0  0
 47116  1  0  0  0
 47117  1  0  0  0
 48 56  1  0  0  0
 48 65  1  0  0  0
 48118  1  0  0  0
 49 50  1  0  0  0
 49 53  1  0  0  0
 49 64  1  0  0  0
 49119  1  0  0  0
 50 51  1  0  0  0
 50120  1  0  0  0
 50121  1  0  0  0
 51 52  1  0  0  0
 51122  1  0  0  0
 51123  1  0  0  0
 52124  1  0  0  0
 52125  1  0  0  0
 53 54  1  0  0  0
 54 55  2  0  0  0
 54126  1  0  0  0
 55 57  1  0  0  0
 55127  1  0  0  0
 56 69  2  0  0  0
 57 58  2  0  0  0
 57128  1  0  0  0
 58129  1  0  0  0
 59 60  1  0  0  0
 59 61  1  0  0  0
 59 62  1  0  0  0
 60130  1  0  0  0
 60131  1  0  0  0
 60132  1  0  0  0
 61133  1  0  0  0
 61134  1  0  0  0
 61135  1  0  0  0
 62136  1  0  0  0
 62137  1  0  0  0
 62138  1  0  0  0
 63 65  1  0  0  0
 63139  1  0  0  0
 63140  1  0  0  0
 63141  1  0  0  0
 64142  1  0  0  0
 65143  1  0  0  0
 68 75  1  0  0  0
 71 72  2  0  0  0
 71 73  1  0  0  0
 71144  1  0  0  0
 72 74  1  0  0  0
 72 80  1  0  0  0
 73 75  2  0  0  0
 73 81  1  0  0  0
 74 82  1  0  0  0
 74 83  2  0  0  0
 75 83  1  0  0  0
 76 78  1  0  0  0
 76 80  1  0  0  0
 76145  1  0  0  0
 76146  1  0  0  0
 77 79  1  0  0  0
 77 80  1  0  0  0
 77147  1  0  0  0
 77148  1  0  0  0
 78 84  1  0  0  0
 78149  1  0  0  0
 78150  1  0  0  0
 79 84  1  0  0  0
 79151  1  0  0  0
 79152  1  0  0  0
 80153  1  0  0  0
 81154  1  0  0  0
 81155  1  0  0  0
 81156  1  0  0  0
 82157  1  0  0  0
 82158  1  0  0  0
 82159  1  0  0  0
M  ISO  4   1 100  68 101  75 101  84 100
M  END
> <chiral flag>
0

> <version>
0

> <s_m_source_file>
/data/baiqing/PycharmProjects/Reinvent-master-3.2/result/LINK_invent/BTK/process_docking_weight1_custom_sum_contain_oxygen_bond_distance_aromatic_linkinvent_7_9_3/rearranged_h_0169.sdf

> <i_m_source_file_index>
58

> <r_mmod_Potential_Energy-OPLS-2005>
768.899291992188

> <r_mmod_Stretch_Energy-OPLS-2005>
304.390594482422

> <r_mmod_Bend_Energy-OPLS-2005>
384.469757080078

> <r_mmod_Torsional_Energy-OPLS-2005>
303.372802734375

> <r_mmod_Improper_Torsional_Energy-OPLS-2005>
6.56501007080078

> <r_mmod_Van_der_Waal_Energy-OPLS-2005>
129.344711303711

> <r_mmod_Electrostatic_Energy-OPLS-2005>
-421.327117919922

> <r_mmod_Solvation_Energy-OPLS-2005>
-214.213821411133

> <b_mmod_Minimization_Converged-OPLS-2005>
0

> <r_mmod_RMS_Derivative-OPLS-2005>
1.59492266178131

$$$$
58
                    3D
 Structure written by MMmdl.
156166  0  0  1  0            999 V2000
  -30.4767  -15.0258   20.4390 C   0  0  0  0  0  0
  -30.4521  -12.6429   19.4951 C   0  0  0  0  0  0
  -29.5204  -12.5820   18.2594 C   0  0  0  0  0  0
  -28.0518  -12.3491   18.6777 C   0  0  0  0  0  0
  -27.6447  -13.2281   19.8847 C   0  0  2  0  0  0
  -28.7095  -13.1546   21.0089 C   0  0  0  0  0  0
  -25.2456  -13.8116   20.5611 C   0  0  0  0  0  0
  -24.1807  -13.0367   20.9329 C   0  0  0  0  0  0
  -24.6412  -11.6884   20.8824 C   0  0  0  0  0  0
  -23.9099  -10.4286   21.0425 C   0  0  0  0  0  0
  -24.3645   -9.4203   21.9195 C   0  0  0  0  0  0
  -23.6356   -8.2221   22.0741 C   0  0  0  0  0  0
  -22.4345   -8.0302   21.3526 C   0  0  0  0  0  0
  -21.9973   -9.0286   20.4641 C   0  0  0  0  0  0
  -22.7269  -10.2177   20.3083 C   0  0  0  0  0  0
  -21.6905   -6.0750   22.5270 C   0  0  0  0  0  0
  -21.4021   -6.5636   23.8200 C   0  0  0  0  0  0
  -21.3682   -5.6775   24.9143 C   0  0  0  0  0  0
  -21.6076   -4.3050   24.7189 C   0  0  0  0  0  0
  -21.8829   -3.8169   23.4300 C   0  0  0  0  0  0
  -21.9228   -4.6983   22.3357 C   0  0  0  0  0  0
  -22.7866  -13.5170   21.2001 C   0  0  0  0  0  0
  -22.1725   -4.2200   21.0937 F   0  0  0  0  0  0
  -21.5650   -3.4527   25.7679 F   0  0  0  0  0  0
  -29.9518  -13.7108   20.4265 N   0  0  0  0  0  0
  -26.2988  -12.9321   20.3512 N   0  0  0  0  0  0
  -25.9344  -11.6477   20.5904 N   0  0  0  0  0  0
  -22.0565  -12.8091   22.0544 N   0  0  0  0  0  0
  -25.3870  -15.1791   20.3491 N   0  0  0  0  0  0
  -31.6295  -15.1268   20.0018 O   0  0  0  0  0  0
  -21.6722   -6.8891   21.4230 O   0  0  0  0  0  0
  -22.3509  -14.5490   20.6932 O   0  0  0  0  0  0
  -24.6558  -31.8367   23.1780 C   0  0  0  0  0  0
  -25.9286  -32.4629   23.8215 C   0  0  1  0  0  0
  -27.2393  -27.0699   20.1321 C   0  0  0  0  0  0
  -25.5973  -33.8437   24.2152 N   0  0  0  0  0  0
  -23.4634  -30.4505   21.5300 C   0  0  2  0  0  0
  -24.9082  -28.8471   20.1276 C   0  0  0  0  0  0
  -22.7633  -29.4555   22.4898 C   0  0  0  0  0  0
  -18.0315  -28.1425   22.8447 C   0  0  0  0  0  0
  -24.1494  -36.7236   23.2630 C   0  0  0  0  0  0
  -26.0260  -30.6845   21.3850 C   0  0  0  0  0  0
  -26.0955  -29.2855   20.7303 C   0  0  0  0  0  0
  -27.2629  -28.4201   20.6956 C   0  0  0  0  0  0
  -26.0194  -26.7436   19.5028 C   0  0  0  0  0  0
  -24.8832  -27.5892   19.5027 C   0  0  0  0  0  0
  -23.6904  -29.7647   20.1576 C   0  0  0  0  0  0
  -25.4114  -36.3017   24.0322 C   0  0  1  0  0  0
  -20.5931  -28.3780   23.1208 C   0  0  2  0  0  0
  -20.6805  -26.9472   22.5398 C   0  0  0  0  0  0
  -19.5781  -26.6381   21.5206 C   0  0  0  0  0  0
  -18.1961  -26.7952   22.1603 C   0  0  0  0  0  0
  -19.1578  -28.8912   23.2799 C   0  0  0  0  0  0
  -18.9488  -30.1488   23.8845 C   0  0  0  0  0  0
  -17.6483  -30.6595   24.0564 C   0  0  0  0  0  0
  -25.9081  -34.9389   23.5071 C   0  0  0  0  0  0
  -16.5370  -29.9094   23.6346 C   0  0  0  0  0  0
  -16.7295  -28.6527   23.0343 C   0  0  0  0  0  0
  -26.4569  -31.6517   25.0681 C   0  0  0  0  0  0
  -25.3742  -31.3692   26.1358 C   0  0  0  0  0  0
  -27.0448  -30.2901   24.6333 C   0  0  0  0  0  0
  -27.6094  -32.4311   25.7424 C   0  0  0  0  0  0
  -27.5621  -37.1700   24.8446 C   0  0  0  0  0  0
  -21.4331  -29.3077   22.3579 N   0  0  0  0  0  0
  -26.4266  -37.3754   23.9477 N   0  0  0  0  0  0
  -24.7361  -31.0159   22.0854 N   0  0  0  0  0  0
  -23.4226  -28.8162   23.3120 O   0  0  0  0  0  0
  -28.3381  -26.1197   20.0246 O   0  0  0  0  0  0
  -26.5698  -34.8927   22.4669 O   0  0  0  0  0  0
  -23.5651  -32.1281   23.6921 O   0  0  0  0  0  0
  -31.1860  -19.4378   20.3437 C   0  0  0  0  0  0
  -29.8083  -19.2105   20.2735 C   0  0  0  0  0  0
  -31.6653  -20.7542   20.2253 C   0  0  0  0  0  0
  -29.5162  -21.7054   20.1263 C   0  0  0  0  0  0
  -28.1100  -17.5590   21.2473 C   0  0  0  0  0  0
  -27.3660  -23.5898   20.2104 C   0  0  0  0  0  0
  -28.5159  -16.1495   21.6382 C   0  0  0  0  0  0
  -29.2266  -17.6542   20.2101 C   0  0  2  0  0  0
  -28.7385  -23.1491   19.7226 C   0  0  1  0  0  0
  -28.4425  -24.6084   20.5230 C   0  0  2  0  0  0
  -33.1655  -20.9975   20.0840 C   0  0  0  0  0  0
  -29.0058  -20.3919   20.1224 N   0  0  0  0  0  0
  -30.8482  -21.8401   20.1516 N   0  0  0  0  0  0
  -29.6792  -16.1984   20.7488 N   0  0  0  0  0  0
  -31.4701  -12.8329   19.1610 H   0  0  0  0  0  0
  -30.5033  -11.6680   19.9857 H   0  0  0  0  0  0
  -29.8386  -11.7912   17.5804 H   0  0  0  0  0  0
  -29.6079  -13.5147   17.6946 H   0  0  0  0  0  0
  -27.9424  -11.2964   18.9368 H   0  0  0  0  0  0
  -27.3728  -12.5146   17.8402 H   0  0  0  0  0  0
  -27.6219  -14.2470   19.5018 H   0  0  0  0  0  0
  -28.8412  -12.1154   21.3163 H   0  0  0  0  0  0
  -28.4047  -13.6216   21.9464 H   0  0  0  0  0  0
  -25.2735   -9.5771   22.4795 H   0  0  0  0  0  0
  -24.0186   -7.4562   22.7333 H   0  0  0  0  0  0
  -21.0996   -8.8739   19.8824 H   0  0  0  0  0  0
  -22.3690  -10.9759   19.6285 H   0  0  0  0  0  0
  -21.1988   -7.6138   23.9707 H   0  0  0  0  0  0
  -21.1533   -6.0491   25.9055 H   0  0  0  0  0  0
  -22.0596   -2.7651   23.2740 H   0  0  0  0  0  0
  -22.4243  -11.9781   22.4911 H   0  0  0  0  0  0
  -21.1175  -13.1053   22.2714 H   0  0  0  0  0  0
  -24.5675  -15.7761   20.3487 H   0  0  0  0  0  0
  -26.1542  -15.5775   19.8225 H   0  0  0  0  0  0
  -26.7382  -32.5244   23.0949 H   0  0  0  0  0  0
  -25.0065  -33.9507   25.0264 H   0  0  0  0  0  0
  -22.7716  -31.2774   21.3624 H   0  0  0  0  0  0
  -23.3807  -35.9503   23.3132 H   0  0  0  0  0  0
  -24.3635  -36.9020   22.2091 H   0  0  0  0  0  0
  -23.7156  -37.6337   23.6768 H   0  0  0  0  0  0
  -26.1979  -31.4303   20.6090 H   0  0  0  0  0  0
  -26.8910  -30.7348   22.0320 H   0  0  0  0  0  0
  -28.1947  -28.7656   21.1194 H   0  0  0  0  0  0
  -25.9376  -25.8033   18.9811 H   0  0  0  0  0  0
  -23.9806  -27.2469   19.0096 H   0  0  0  0  0  0
  -23.8406  -30.5300   19.3944 H   0  0  0  0  0  0
  -22.8002  -29.2138   19.8517 H   0  0  0  0  0  0
  -25.1265  -36.1810   25.0799 H   0  0  0  0  0  0
  -20.9998  -28.3371   24.1331 H   0  0  0  0  0  0
  -20.5726  -26.2402   23.3635 H   0  0  0  0  0  0
  -21.6680  -26.7467   22.1190 H   0  0  0  0  0  0
  -19.6963  -25.6283   21.1269 H   0  0  0  0  0  0
  -19.6705  -27.3160   20.6724 H   0  0  0  0  0  0
  -17.4234  -26.6672   21.3996 H   0  0  0  0  0  0
  -18.0338  -26.0103   22.9029 H   0  0  0  0  0  0
  -19.7962  -30.7327   24.2178 H   0  0  0  0  0  0
  -17.5040  -31.6267   24.5198 H   0  0  0  0  0  0
  -15.5385  -30.2992   23.7692 H   0  0  0  0  0  0
  -15.8692  -28.0846   22.7069 H   0  0  0  0  0  0
  -24.5918  -30.7050   25.7661 H   0  0  0  0  0  0
  -24.8907  -32.2852   26.4790 H   0  0  0  0  0  0
  -25.7994  -30.8843   27.0159 H   0  0  0  0  0  0
  -26.3091  -29.6542   24.1392 H   0  0  0  0  0  0
  -27.4096  -29.7274   25.4949 H   0  0  0  0  0  0
  -27.8995  -30.4081   23.9649 H   0  0  0  0  0  0
  -27.2695  -33.3644   26.1939 H   0  0  0  0  0  0
  -28.3886  -32.6834   25.0210 H   0  0  0  0  0  0
  -28.0825  -31.8500   26.5361 H   0  0  0  0  0  0
  -28.2466  -38.0168   24.7762 H   0  0  0  0  0  0
  -28.1277  -36.2724   24.5897 H   0  0  0  0  0  0
  -27.2406  -37.0905   25.8847 H   0  0  0  0  0  0
  -20.9629  -29.8721   21.6638 H   0  0  0  0  0  0
  -26.0118  -38.2773   24.1623 H   0  0  0  0  0  0
  -31.8635  -18.5936   20.4086 H   0  0  0  0  0  0
  -28.2246  -18.2579   22.0868 H   0  0  0  0  0  0
  -27.1033  -17.6462   20.8172 H   0  0  0  0  0  0
  -26.9398  -23.0925   21.0782 H   0  0  0  0  0  0
  -26.6498  -23.7925   19.4211 H   0  0  0  0  0  0
  -27.7204  -15.4833   21.3296 H   0  0  0  0  0  0
  -28.7571  -16.0092   22.6951 H   0  0  0  0  0  0
  -28.8086  -17.5344   19.2082 H   0  0  0  0  0  0
  -28.9176  -23.2914   18.6583 H   0  0  0  0  0  0
  -28.8120  -24.6138   21.5425 H   0  0  0  0  0  0
  -33.6025  -21.3546   21.0189 H   0  0  0  0  0  0
  -33.3981  -21.7271   19.3068 H   0  0  0  0  0  0
  -33.6723  -20.0767   19.7846 H   0  0  0  0  0  0
  1 25  1  0  0  0
  1 30  2  0  0  0
  1 84  1  0  0  0
  2  3  1  0  0  0
  2 25  1  0  0  0
  2 85  1  0  0  0
  2 86  1  0  0  0
  3  4  1  0  0  0
  3 87  1  0  0  0
  3 88  1  0  0  0
  4  5  1  0  0  0
  4 89  1  0  0  0
  4 90  1  0  0  0
  5  6  1  0  0  0
  5 26  1  0  0  0
  5 91  1  0  0  0
  6 25  1  0  0  0
  6 92  1  0  0  0
  6 93  1  0  0  0
  7  8  2  0  0  0
  7 26  1  0  0  0
  7 29  1  0  0  0
  8  9  1  0  0  0
  8 22  1  0  0  0
  9 10  1  0  0  0
  9 27  2  0  0  0
 10 11  2  0  0  0
 10 15  1  0  0  0
 11 12  1  0  0  0
 11 94  1  0  0  0
 12 13  2  0  0  0
 12 95  1  0  0  0
 13 14  1  0  0  0
 13 31  1  0  0  0
 14 15  2  0  0  0
 14 96  1  0  0  0
 15 97  1  0  0  0
 16 17  2  0  0  0
 16 21  1  0  0  0
 16 31  1  0  0  0
 17 18  1  0  0  0
 17 98  1  0  0  0
 18 19  2  0  0  0
 18 99  1  0  0  0
 19 20  1  0  0  0
 19 24  1  0  0  0
 20 21  2  0  0  0
 20100  1  0  0  0
 21 23  1  0  0  0
 22 28  1  0  0  0
 22 32  2  0  0  0
 26 27  1  0  0  0
 28101  1  0  0  0
 28102  1  0  0  0
 29103  1  0  0  0
 29104  1  0  0  0
 33 34  1  0  0  0
 33 66  1  0  0  0
 33 70  2  0  0  0
 34 36  1  0  0  0
 34 59  1  0  0  0
 34105  1  0  0  0
 35 44  2  0  0  0
 35 45  1  0  0  0
 35 68  1  0  0  0
 36 56  1  0  0  0
 36106  1  0  0  0
 37 39  1  0  0  0
 37 47  1  0  0  0
 37 66  1  0  0  0
 37107  1  0  0  0
 38 43  2  0  0  0
 38 46  1  0  0  0
 38 47  1  0  0  0
 39 64  1  0  0  0
 39 67  2  0  0  0
 40 52  1  0  0  0
 40 53  2  0  0  0
 40 58  1  0  0  0
 41108  1  0  0  0
 41109  1  0  0  0
 41110  1  0  0  0
 41 48  1  0  0  0
 42 43  1  0  0  0
 42 66  1  0  0  0
 42111  1  0  0  0
 42112  1  0  0  0
 43 44  1  0  0  0
 44113  1  0  0  0
 45 46  2  0  0  0
 45114  1  0  0  0
 46115  1  0  0  0
 47116  1  0  0  0
 47117  1  0  0  0
 48 56  1  0  0  0
 48 65  1  0  0  0
 48118  1  0  0  0
 49 50  1  0  0  0
 49 53  1  0  0  0
 49 64  1  0  0  0
 49119  1  0  0  0
 50 51  1  0  0  0
 50120  1  0  0  0
 50121  1  0  0  0
 51 52  1  0  0  0
 51122  1  0  0  0
 51123  1  0  0  0
 52124  1  0  0  0
 52125  1  0  0  0
 53 54  1  0  0  0
 54 55  2  0  0  0
 54126  1  0  0  0
 55 57  1  0  0  0
 55127  1  0  0  0
 56 69  2  0  0  0
 57 58  2  0  0  0
 57128  1  0  0  0
 58129  1  0  0  0
 59 60  1  0  0  0
 59 61  1  0  0  0
 59 62  1  0  0  0
 60130  1  0  0  0
 60131  1  0  0  0
 60132  1  0  0  0
 61133  1  0  0  0
 61134  1  0  0  0
 61135  1  0  0  0
 62136  1  0  0  0
 62137  1  0  0  0
 62138  1  0  0  0
 63 65  1  0  0  0
 63139  1  0  0  0
 63140  1  0  0  0
 63141  1  0  0  0
 64142  1  0  0  0
 65143  1  0  0  0
 68 80  1  0  0  0
 71 72  2  0  0  0
 71 73  1  0  0  0
 71144  1  0  0  0
 72 82  1  0  0  0
 72 78  1  0  0  0
 73 81  1  0  0  0
 73 83  2  0  0  0
 74 82  2  0  0  0
 74 83  1  0  0  0
 74 79  1  0  0  0
 75 77  1  0  0  0
 75 78  1  0  0  0
 75145  1  0  0  0
 75146  1  0  0  0
 76 79  1  0  0  0
 76 80  1  0  0  0
 76147  1  0  0  0
 76148  1  0  0  0
 77 84  1  0  0  0
 77149  1  0  0  0
 77150  1  0  0  0
 78 84  1  0  0  0
 78151  1  0  0  0
 79 80  1  0  0  0
 79152  1  0  0  0
 80153  1  0  0  0
 81154  1  0  0  0
 81155  1  0  0  0
 81156  1  0  0  0
M  ISO  4   1 100  68 101  80 101  84 100
M  END
> <chiral flag>
0

> <version>
0

> <s_m_source_file>
/data/baiqing/PycharmProjects/Reinvent-master-3.2/result/LINK_invent/BTK/process_docking_weight1_custom_sum_contain_oxygen_bond_distance_aromatic_linkinvent_7_9_3/rearranged_h_0169.sdf

> <i_m_source_file_index>
59

> <r_mmod_Potential_Energy-OPLS-2005>
366.49853515625

> <r_mmod_Stretch_Energy-OPLS-2005>
344.347778320312

> <r_mmod_Bend_Energy-OPLS-2005>
396.103881835938

> <r_mmod_Torsional_Energy-OPLS-2005>
294.248809814453

> <r_mmod_Improper_Torsional_Energy-OPLS-2005>
11.2614307403564

> <r_mmod_Van_der_Waal_Energy-OPLS-2005>
137.458404541016

> <r_mmod_Electrostatic_Energy-OPLS-2005>
-807.889770507812

> <r_mmod_Solvation_Energy-OPLS-2005>
-240.268753051758

> <b_mmod_Minimization_Converged-OPLS-2005>
0

> <r_mmod_RMS_Derivative-OPLS-2005>
8.5513801574707

$$$$
59
                    3D
 Structure written by MMmdl.
176187  0  0  1  0            999 V2000
  -30.6498  -14.5754   20.5361 C   0  0  0  0  0  0
  -30.4391  -12.3668   19.4269 C   0  0  0  0  0  0
  -29.4991  -12.4942   18.2098 C   0  0  0  0  0  0
  -28.0244  -12.3326   18.6310 C   0  0  0  0  0  0
  -27.6557  -13.1909   19.8676 C   0  0  2  0  0  0
  -28.7031  -13.0321   20.9894 C   0  0  0  0  0  0
  -25.2591  -13.8115   20.5677 C   0  0  0  0  0  0
  -24.1832  -13.0409   20.9206 C   0  0  0  0  0  0
  -24.6377  -11.6878   20.8773 C   0  0  0  0  0  0
  -23.9048  -10.4276   21.0440 C   0  0  0  0  0  0
  -24.3606   -9.4195   21.9201 C   0  0  0  0  0  0
  -23.6289   -8.2229   22.0760 C   0  0  0  0  0  0
  -22.4273   -8.0279   21.3554 C   0  0  0  0  0  0
  -21.9908   -9.0251   20.4650 C   0  0  0  0  0  0
  -22.7230  -10.2129   20.3069 C   0  0  0  0  0  0
  -21.6847   -6.0748   22.5285 C   0  0  0  0  0  0
  -21.4012   -6.5649   23.8218 C   0  0  0  0  0  0
  -21.3650   -5.6796   24.9176 C   0  0  0  0  0  0
  -21.6044   -4.3064   24.7225 C   0  0  0  0  0  0
  -21.8821   -3.8155   23.4342 C   0  0  0  0  0  0
  -21.9196   -4.6976   22.3400 C   0  0  0  0  0  0
  -22.7877  -13.5247   21.1856 C   0  0  0  0  0  0
  -22.1666   -4.2161   21.0980 F   0  0  0  0  0  0
  -21.5621   -3.4543   25.7736 F   0  0  0  0  0  0
  -30.0188  -13.3698   20.4194 N   0  0  0  0  0  0
  -26.2994  -12.9241   20.3344 N   0  0  0  0  0  0
  -25.9291  -11.6428   20.5782 N   0  0  0  0  0  0
  -22.0504  -12.8233   22.0409 N   0  0  0  0  0  0
  -25.4282  -15.1819   20.4032 N   0  0  0  0  0  0
  -31.8076  -14.7569   20.1516 O   0  0  0  0  0  0
  -21.6636   -6.8881   21.4245 O   0  0  0  0  0  0
  -22.3579  -14.5555   20.6709 O   0  0  0  0  0  0
  -24.6199  -31.8637   23.2057 C   0  0  0  0  0  0
  -25.9088  -32.4790   23.8344 C   0  0  1  0  0  0
  -27.2362  -27.3749   20.1410 C   0  0  0  0  0  0
  -25.5935  -33.8584   24.2293 N   0  0  0  0  0  0
  -23.4079  -30.4848   21.5462 C   0  0  2  0  0  0
  -24.8586  -28.9331   20.1281 C   0  0  0  0  0  0
  -22.7432  -29.4637   22.4985 C   0  0  0  0  0  0
  -18.0272  -28.1358   22.8488 C   0  0  0  0  0  0
  -24.1496  -36.7307   23.2631 C   0  0  0  0  0  0
  -25.9388  -30.8148   21.3643 C   0  0  0  0  0  0
  -26.0199  -29.4364   20.7303 C   0  0  0  0  0  0
  -27.2118  -28.6670   20.7306 C   0  0  0  0  0  0
  -26.0613  -26.8983   19.5234 C   0  0  0  0  0  0
  -24.8775  -27.6645   19.5218 C   0  0  0  0  0  0
  -23.6246  -29.8110   20.1644 C   0  0  0  0  0  0
  -25.4110  -36.3079   24.0315 C   0  0  1  0  0  0
  -20.5866  -28.3658   23.1304 C   0  0  2  0  0  0
  -20.6773  -26.9388   22.5404 C   0  0  0  0  0  0
  -19.5750  -26.6360   21.5207 C   0  0  0  0  0  0
  -18.1930  -26.7905   22.1609 C   0  0  0  0  0  0
  -19.1517  -28.8821   23.2892 C   0  0  0  0  0  0
  -18.9459  -30.1433   23.8893 C   0  0  0  0  0  0
  -17.6466  -30.6579   24.0553 C   0  0  0  0  0  0
  -25.9045  -34.9458   23.5100 C   0  0  0  0  0  0
  -16.5355  -29.9075   23.6323 C   0  0  0  0  0  0
  -16.7258  -28.6483   23.0344 C   0  0  0  0  0  0
  -26.4505  -31.6571   25.0688 C   0  0  0  0  0  0
  -25.3756  -31.3713   26.1439 C   0  0  0  0  0  0
  -27.0354  -30.3010   24.6079 C   0  0  0  0  0  0
  -27.6065  -32.4306   25.7471 C   0  0  0  0  0  0
  -27.5583  -37.1788   24.8442 C   0  0  0  0  0  0
  -21.4148  -29.3038   22.3726 N   0  0  0  0  0  0
  -26.4279  -37.3774   23.9420 N   0  0  0  0  0  0
  -24.6746  -31.0712   22.0971 N   0  0  0  0  0  0
  -23.4194  -28.8194   23.3046 O   0  0  0  0  0  0
  -28.4167  -26.6637   20.0109 O   0  0  0  0  0  0
  -26.5606  -34.8911   22.4656 O   0  0  0  0  0  0
  -23.5381  -32.1412   23.7428 O   0  0  0  0  0  0
  -29.4816  -20.4469   20.4409 C   0  0  0  0  0  0
  -28.6227  -21.5394   20.0823 C   0  0  0  0  0  0
  -29.4008  -19.1739   19.7959 C   0  0  0  0  0  0
  -27.6232  -21.2554   19.1054 C   0  0  0  0  0  0
  -28.4262  -19.0678   18.7800 C   0  0  0  0  0  0
  -30.2469  -23.5090   20.4943 C   0  0  0  0  0  0
  -25.8081  -21.9268   17.2940 C   0  0  0  0  0  0
  -26.6641  -23.1420   17.4929 C   0  0  0  0  0  0
  -26.9333  -17.2567   17.6293 C   0  0  0  0  0  0
  -28.0222  -16.5241   18.3577 C   0  0  0  0  0  0
  -30.1049  -25.0273   20.2938 C   0  0  0  0  0  0
  -28.8522  -22.9282   20.7803 C   0  0  1  0  0  0
  -26.4978  -22.1555   18.6350 C   0  0  0  0  0  0
  -28.2871  -17.9077   17.8402 C   0  0  0  0  0  0
  -27.8789  -24.1548   20.5913 C   0  0  2  0  0  0
  -28.7135  -25.4618   20.7765 C   0  0  2  0  0  0
  -26.7109  -24.0758   21.5934 C   0  0  0  0  0  0
  -30.4215  -18.0178   20.0480 C   0  0  0  0  0  0
  -30.1965  -17.0276   21.2495 C   0  0  0  0  0  0
  -27.5618  -20.0550   18.4988 N   0  0  0  0  0  0
  -29.8666  -15.6035   20.9518 N   0  0  0  0  0  0
  -31.4756  -12.5038   19.1155 H   0  0  0  0  0  0
  -30.3836  -11.3658   19.8581 H   0  0  0  0  0  0
  -29.7541  -11.7433   17.4606 H   0  0  0  0  0  0
  -29.6408  -13.4641   17.7307 H   0  0  0  0  0  0
  -27.8610  -11.2784   18.8550 H   0  0  0  0  0  0
  -27.3644  -12.5684   17.7952 H   0  0  0  0  0  0
  -27.6771  -14.2228   19.5393 H   0  0  0  0  0  0
  -28.7112  -12.0080   21.3639 H   0  0  0  0  0  0
  -28.4506  -13.6578   21.8474 H   0  0  0  0  0  0
  -25.2750   -9.5682   22.4769 H   0  0  0  0  0  0
  -24.0011   -7.4627   22.7474 H   0  0  0  0  0  0
  -21.0841   -8.8778   19.8945 H   0  0  0  0  0  0
  -22.3707  -10.9683   19.6180 H   0  0  0  0  0  0
  -21.2007   -7.6156   23.9727 H   0  0  0  0  0  0
  -21.1463   -6.0524   25.9080 H   0  0  0  0  0  0
  -22.0607   -2.7619   23.2840 H   0  0  0  0  0  0
  -22.4116  -11.9890   22.4788 H   0  0  0  0  0  0
  -21.1124  -13.1270   22.2604 H   0  0  0  0  0  0
  -24.6483  -15.8240   20.4860 H   0  0  0  0  0  0
  -26.2505  -15.6121   20.0024 H   0  0  0  0  0  0
  -26.7160  -32.5520   23.1106 H   0  0  0  0  0  0
  -25.0090  -33.9706   25.0444 H   0  0  0  0  0  0
  -22.6962  -31.3021   21.4024 H   0  0  0  0  0  0
  -23.3737  -35.9664   23.3268 H   0  0  0  0  0  0
  -24.3592  -36.8955   22.2055 H   0  0  0  0  0  0
  -23.7279  -37.6499   23.6684 H   0  0  0  0  0  0
  -26.0422  -31.5716   20.5852 H   0  0  0  0  0  0
  -26.8276  -30.8817   21.9795 H   0  0  0  0  0  0
  -28.1162  -29.0645   21.1715 H   0  0  0  0  0  0
  -26.0701  -25.9415   19.0252 H   0  0  0  0  0  0
  -23.9903  -27.2732   19.0444 H   0  0  0  0  0  0
  -23.7402  -30.5834   19.4020 H   0  0  0  0  0  0
  -22.7449  -29.2367   19.8687 H   0  0  0  0  0  0
  -25.1286  -36.1897   25.0796 H   0  0  0  0  0  0
  -20.9940  -28.3246   24.1432 H   0  0  0  0  0  0
  -20.5706  -26.2269   23.3599 H   0  0  0  0  0  0
  -21.6651  -26.7450   22.1196 H   0  0  0  0  0  0
  -19.6920  -25.6272   21.1241 H   0  0  0  0  0  0
  -19.6695  -27.3189   20.6753 H   0  0  0  0  0  0
  -17.4207  -26.6655   21.4010 H   0  0  0  0  0  0
  -18.0294  -26.0042   22.8987 H   0  0  0  0  0  0
  -19.7948  -30.7224   24.2271 H   0  0  0  0  0  0
  -17.5035  -31.6268   24.5149 H   0  0  0  0  0  0
  -15.5354  -30.2982   23.7649 H   0  0  0  0  0  0
  -15.8653  -28.0815   22.7043 H   0  0  0  0  0  0
  -24.5926  -30.7055   25.7789 H   0  0  0  0  0  0
  -24.8945  -32.2882   26.4858 H   0  0  0  0  0  0
  -25.8090  -30.8909   27.0221 H   0  0  0  0  0  0
  -26.2898  -29.6736   24.1188 H   0  0  0  0  0  0
  -27.4173  -29.7287   25.4538 H   0  0  0  0  0  0
  -27.8710  -30.4299   23.9198 H   0  0  0  0  0  0
  -27.2675  -33.3615   26.2022 H   0  0  0  0  0  0
  -28.3903  -32.6850   25.0329 H   0  0  0  0  0  0
  -28.0698  -31.8448   26.5401 H   0  0  0  0  0  0
  -28.2543  -38.0146   24.7556 H   0  0  0  0  0  0
  -28.1130  -36.2670   24.6173 H   0  0  0  0  0  0
  -27.2301  -37.1315   25.8840 H   0  0  0  0  0  0
  -20.9312  -29.8782   21.6979 H   0  0  0  0  0  0
  -26.0145  -38.2826   24.1479 H   0  0  0  0  0  0
  -30.2420  -20.6082   21.1918 H   0  0  0  0  0  0
  -30.9266  -23.2826   21.3186 H   0  0  0  0  0  0
  -30.6826  -23.0692   19.5965 H   0  0  0  0  0  0
  -26.1943  -21.1723   16.6120 H   0  0  0  0  0  0
  -24.7301  -22.0706   17.2620 H   0  0  0  0  0  0
  -26.1406  -24.0928   17.5610 H   0  0  0  0  0  0
  -27.6411  -23.1718   17.0159 H   0  0  0  0  0  0
  -26.0990  -17.6316   18.2194 H   0  0  0  0  0  0
  -26.6844  -16.9082   16.6301 H   0  0  0  0  0  0
  -28.5097  -15.7008   17.8415 H   0  0  0  0  0  0
  -27.9332  -16.4381   19.4354 H   0  0  0  0  0  0
  -30.1915  -25.2330   19.2267 H   0  0  0  0  0  0
  -30.9003  -25.5938   20.7779 H   0  0  0  0  0  0
  -28.8481  -22.6973   21.8475 H   0  0  0  0  0  0
  -25.8323  -22.4170   19.4541 H   0  0  0  0  0  0
  -28.9349  -18.0171   16.9721 H   0  0  0  0  0  0
  -27.5379  -24.2125   19.5694 H   0  0  0  0  0  0
  -28.7729  -25.7155   21.8359 H   0  0  0  0  0  0
  -26.1633  -23.1361   21.5165 H   0  0  0  0  0  0
  -26.0069  -24.8947   21.4576 H   0  0  0  0  0  0
  -27.0796  -24.1362   22.6172 H   0  0  0  0  0  0
  -31.3850  -18.5021   20.2099 H   0  0  0  0  0  0
  -30.5765  -17.4476   19.1318 H   0  0  0  0  0  0
  -29.4324  -17.4291   21.9149 H   0  0  0  0  0  0
  -31.1081  -17.0088   21.8502 H   0  0  0  0  0  0
  -28.9218  -15.3308   21.1792 H   0  0  0  0  0  0
  1 25  1  0  0  0
  1 30  2  0  0  0
  1 91  1  0  0  0
  2  3  1  0  0  0
  2 25  1  0  0  0
  2 92  1  0  0  0
  2 93  1  0  0  0
  3  4  1  0  0  0
  3 94  1  0  0  0
  3 95  1  0  0  0
  4  5  1  0  0  0
  4 96  1  0  0  0
  4 97  1  0  0  0
  5  6  1  0  0  0
  5 26  1  0  0  0
  5 98  1  0  0  0
  6 25  1  0  0  0
  6 99  1  0  0  0
  6100  1  0  0  0
  7  8  2  0  0  0
  7 26  1  0  0  0
  7 29  1  0  0  0
  8  9  1  0  0  0
  8 22  1  0  0  0
  9 10  1  0  0  0
  9 27  2  0  0  0
 10 11  2  0  0  0
 10 15  1  0  0  0
 11 12  1  0  0  0
 11101  1  0  0  0
 12 13  2  0  0  0
 12102  1  0  0  0
 13 14  1  0  0  0
 13 31  1  0  0  0
 14 15  2  0  0  0
 14103  1  0  0  0
 15104  1  0  0  0
 16 17  2  0  0  0
 16 21  1  0  0  0
 16 31  1  0  0  0
 17 18  1  0  0  0
 17105  1  0  0  0
 18 19  2  0  0  0
 18106  1  0  0  0
 19 20  1  0  0  0
 19 24  1  0  0  0
 20 21  2  0  0  0
 20107  1  0  0  0
 21 23  1  0  0  0
 22 28  1  0  0  0
 22 32  2  0  0  0
 26 27  1  0  0  0
 28108  1  0  0  0
 28109  1  0  0  0
 29110  1  0  0  0
 29111  1  0  0  0
 33 34  1  0  0  0
 33 66  1  0  0  0
 33 70  2  0  0  0
 34 36  1  0  0  0
 34 59  1  0  0  0
 34112  1  0  0  0
 35 44  2  0  0  0
 35 45  1  0  0  0
 35 68  1  0  0  0
 36 56  1  0  0  0
 36113  1  0  0  0
 37 39  1  0  0  0
 37 47  1  0  0  0
 37 66  1  0  0  0
 37114  1  0  0  0
 38 43  2  0  0  0
 38 46  1  0  0  0
 38 47  1  0  0  0
 39 64  1  0  0  0
 39 67  2  0  0  0
 40 52  1  0  0  0
 40 53  2  0  0  0
 40 58  1  0  0  0
 41115  1  0  0  0
 41116  1  0  0  0
 41117  1  0  0  0
 41 48  1  0  0  0
 42 43  1  0  0  0
 42 66  1  0  0  0
 42118  1  0  0  0
 42119  1  0  0  0
 43 44  1  0  0  0
 44120  1  0  0  0
 45 46  2  0  0  0
 45121  1  0  0  0
 46122  1  0  0  0
 47123  1  0  0  0
 47124  1  0  0  0
 48 56  1  0  0  0
 48 65  1  0  0  0
 48125  1  0  0  0
 49 50  1  0  0  0
 49 53  1  0  0  0
 49 64  1  0  0  0
 49126  1  0  0  0
 50 51  1  0  0  0
 50127  1  0  0  0
 50128  1  0  0  0
 51 52  1  0  0  0
 51129  1  0  0  0
 51130  1  0  0  0
 52131  1  0  0  0
 52132  1  0  0  0
 53 54  1  0  0  0
 54 55  2  0  0  0
 54133  1  0  0  0
 55 57  1  0  0  0
 55134  1  0  0  0
 56 69  2  0  0  0
 57 58  2  0  0  0
 57135  1  0  0  0
 58136  1  0  0  0
 59 60  1  0  0  0
 59 61  1  0  0  0
 59 62  1  0  0  0
 60137  1  0  0  0
 60138  1  0  0  0
 60139  1  0  0  0
 61140  1  0  0  0
 61141  1  0  0  0
 61142  1  0  0  0
 62143  1  0  0  0
 62144  1  0  0  0
 62145  1  0  0  0
 63 65  1  0  0  0
 63146  1  0  0  0
 63147  1  0  0  0
 63148  1  0  0  0
 64149  1  0  0  0
 65150  1  0  0  0
 68 86  1  0  0  0
 71 72  2  0  0  0
 71 73  1  0  0  0
 71151  1  0  0  0
 72 74  1  0  0  0
 72 82  1  0  0  0
 73 75  2  0  0  0
 73 88  1  0  0  0
 74 90  2  0  0  0
 74 83  1  0  0  0
 75 90  1  0  0  0
 75 84  1  0  0  0
 76 81  1  0  0  0
 76 82  1  0  0  0
 76152  1  0  0  0
 76153  1  0  0  0
 77 78  1  0  0  0
 77 83  1  0  0  0
 77154  1  0  0  0
 77155  1  0  0  0
 78 83  1  0  0  0
 78156  1  0  0  0
 78157  1  0  0  0
 79 80  1  0  0  0
 79 84  1  0  0  0
 79158  1  0  0  0
 79159  1  0  0  0
 80 84  1  0  0  0
 80160  1  0  0  0
 80161  1  0  0  0
 81 86  1  0  0  0
 81162  1  0  0  0
 81163  1  0  0  0
 82 85  1  0  0  0
 82164  1  0  0  0
 83165  1  0  0  0
 84166  1  0  0  0
 85 86  1  0  0  0
 85 87  1  0  0  0
 85167  1  0  0  0
 86168  1  0  0  0
 87169  1  0  0  0
 87170  1  0  0  0
 87171  1  0  0  0
 88 89  1  0  0  0
 88172  1  0  0  0
 88173  1  0  0  0
 89 91  1  0  0  0
 89174  1  0  0  0
 89175  1  0  0  0
 91176  1  0  0  0
M  ISO  4   1 100  68 101  86 101  91 100
M  END
> <chiral flag>
0

> <version>
0

> <s_m_source_file>
/data/baiqing/PycharmProjects/Reinvent-master-3.2/result/LINK_invent/BTK/process_docking_weight1_custom_sum_contain_oxygen_bond_distance_aromatic_linkinvent_7_9_3/rearranged_h_0169.sdf

> <i_m_source_file_index>
60

> <r_mmod_Potential_Energy-OPLS-2005>
-50.1430397033691

> <r_mmod_Stretch_Energy-OPLS-2005>
60.4654006958008

> <r_mmod_Bend_Energy-OPLS-2005>
179.803726196289

> <r_mmod_Torsional_Energy-OPLS-2005>
352.482482910156

> <r_mmod_Improper_Torsional_Energy-OPLS-2005>
5.44602108001709

> <r_mmod_Van_der_Waal_Energy-OPLS-2005>
129.529342651367

> <r_mmod_Electrostatic_Energy-OPLS-2005>
-595.374816894531

> <r_mmod_Solvation_Energy-OPLS-2005>
-208.25309753418

> <b_mmod_Minimization_Converged-OPLS-2005>
0

> <r_mmod_RMS_Derivative-OPLS-2005>
3.39568281173706

$$$$
60
                    3D
 Structure written by MMmdl.
171181  0  0  1  0            999 V2000
  -30.7463  -14.5130   20.5604 C   0  0  0  0  0  0
  -30.4135  -12.3427   19.4246 C   0  0  0  0  0  0
  -29.4830  -12.4900   18.2058 C   0  0  0  0  0  0
  -28.0144  -12.3113   18.6313 C   0  0  0  0  0  0
  -27.6446  -13.1855   19.8541 C   0  0  2  0  0  0
  -28.6974  -13.0702   20.9835 C   0  0  0  0  0  0
  -25.2572  -13.8084   20.5683 C   0  0  0  0  0  0
  -24.1812  -13.0404   20.9203 C   0  0  0  0  0  0
  -24.6344  -11.6862   20.8773 C   0  0  0  0  0  0
  -23.9021  -10.4263   21.0441 C   0  0  0  0  0  0
  -24.3603   -9.4181   21.9208 C   0  0  0  0  0  0
  -23.6294   -8.2211   22.0758 C   0  0  0  0  0  0
  -22.4270   -8.0260   21.3549 C   0  0  0  0  0  0
  -21.9900   -9.0227   20.4649 C   0  0  0  0  0  0
  -22.7213  -10.2115   20.3066 C   0  0  0  0  0  0
  -21.6841   -6.0724   22.5284 C   0  0  0  0  0  0
  -21.3992   -6.5633   23.8219 C   0  0  0  0  0  0
  -21.3661   -5.6795   24.9188 C   0  0  0  0  0  0
  -21.6055   -4.3052   24.7244 C   0  0  0  0  0  0
  -21.8811   -3.8142   23.4365 C   0  0  0  0  0  0
  -21.9185   -4.6958   22.3416 C   0  0  0  0  0  0
  -22.7853  -13.5240   21.1866 C   0  0  0  0  0  0
  -22.1653   -4.2139   21.1000 F   0  0  0  0  0  0
  -21.5652   -3.4548   25.7757 F   0  0  0  0  0  0
  -30.0250  -13.3613   20.4176 N   0  0  0  0  0  0
  -26.2947  -12.9188   20.3323 N   0  0  0  0  0  0
  -25.9259  -11.6386   20.5794 N   0  0  0  0  0  0
  -22.0475  -12.8239   22.0422 N   0  0  0  0  0  0
  -25.4349  -15.1808   20.4046 N   0  0  0  0  0  0
  -31.8782  -14.6397   20.0889 O   0  0  0  0  0  0
  -21.6635   -6.8860   21.4239 O   0  0  0  0  0  0
  -22.3554  -14.5555   20.6721 O   0  0  0  0  0  0
  -24.6151  -31.8680   23.2094 C   0  0  0  0  0  0
  -25.9044  -32.4818   23.8390 C   0  0  1  0  0  0
  -27.2401  -27.4397   20.0978 C   0  0  0  0  0  0
  -25.5907  -33.8622   24.2332 N   0  0  0  0  0  0
  -23.4018  -30.4906   21.5496 C   0  0  2  0  0  0
  -24.8482  -28.9558   20.1146 C   0  0  0  0  0  0
  -22.7411  -29.4659   22.4992 C   0  0  0  0  0  0
  -18.0270  -28.1376   22.8486 C   0  0  0  0  0  0
  -24.1479  -36.7312   23.2627 C   0  0  0  0  0  0
  -25.9292  -30.8352   21.3599 C   0  0  0  0  0  0
  -26.0074  -29.4703   20.7069 C   0  0  0  0  0  0
  -27.2062  -28.7225   20.6896 C   0  0  0  0  0  0
  -26.0610  -26.9363   19.5001 C   0  0  0  0  0  0
  -24.8702  -27.6884   19.5059 C   0  0  0  0  0  0
  -23.6080  -29.8196   20.1648 C   0  0  0  0  0  0
  -25.4090  -36.3113   24.0345 C   0  0  1  0  0  0
  -20.5861  -28.3659   23.1316 C   0  0  2  0  0  0
  -20.6760  -26.9388   22.5427 C   0  0  0  0  0  0
  -19.5749  -26.6378   21.5215 C   0  0  0  0  0  0
  -18.1914  -26.7933   22.1601 C   0  0  0  0  0  0
  -19.1520  -28.8830   23.2903 C   0  0  0  0  0  0
  -18.9449  -30.1439   23.8910 C   0  0  0  0  0  0
  -17.6452  -30.6578   24.0563 C   0  0  0  0  0  0
  -25.9031  -34.9480   23.5136 C   0  0  0  0  0  0
  -16.5341  -29.9077   23.6331 C   0  0  0  0  0  0
  -16.7258  -28.6499   23.0342 C   0  0  0  0  0  0
  -26.4484  -31.6598   25.0720 C   0  0  0  0  0  0
  -25.3764  -31.3708   26.1482 C   0  0  0  0  0  0
  -27.0294  -30.3027   24.6093 C   0  0  0  0  0  0
  -27.6076  -32.4309   25.7464 C   0  0  0  0  0  0
  -27.5614  -37.1753   24.8418 C   0  0  0  0  0  0
  -21.4138  -29.3025   22.3726 N   0  0  0  0  0  0
  -26.4259  -37.3825   23.9473 N   0  0  0  0  0  0
  -24.6666  -31.0793   22.0979 N   0  0  0  0  0  0
  -23.4188  -28.8205   23.3035 O   0  0  0  0  0  0
  -28.4179  -26.7230   20.1150 O   0  0  0  0  0  0
  -26.5587  -34.8939   22.4693 O   0  0  0  0  0  0
  -23.5342  -32.1427   23.7492 O   0  0  0  0  0  0
  -30.3304  -22.1318   20.2501 C   0  0  0  0  0  0
  -29.9025  -23.2968   20.9254 C   0  0  0  0  0  0
  -29.7917  -23.2220   22.3388 C   0  0  0  0  0  0
  -30.6153  -20.9597   20.9812 C   0  0  0  0  0  0
  -30.0546  -21.9913   22.9829 C   0  0  0  0  0  0
  -28.7381  -24.5791   18.9236 C   0  0  0  0  0  0
  -31.0136  -16.3251   22.1912 C   0  0  0  0  0  0
  -29.1636  -16.4207   20.6408 C   0  0  0  0  0  0
  -31.6505  -17.5822   21.5414 C   0  0  0  0  0  0
  -29.7346  -17.7187   20.0114 C   0  0  0  0  0  0
  -29.6395  -24.5707   20.1457 C   0  0  1  0  0  0
  -28.3033  -25.2961   20.1774 C   0  0  1  0  0  0
  -29.4052  -24.4498   23.1631 C   0  0  0  0  0  0
  -30.4029  -20.6958   25.0746 C   0  0  0  0  0  0
  -31.1881  -19.7096   20.3176 C   0  0  0  0  0  0
  -30.4404  -20.8842   22.3170 N   0  0  0  0  0  0
  -30.1923  -15.5510   21.2445 N   0  0  0  0  0  0
  -29.9276  -21.8807   24.3709 N   0  0  0  0  0  0
  -30.6305  -18.4701   20.9259 N   0  3  0  0  0  0
  -31.4542  -12.4332   19.1097 H   0  0  0  0  0  0
  -30.3238  -11.3456   19.8585 H   0  0  0  0  0  0
  -29.7412  -11.7519   17.4457 H   0  0  0  0  0  0
  -29.6224  -13.4687   17.7418 H   0  0  0  0  0  0
  -27.8643  -11.2583   18.8742 H   0  0  0  0  0  0
  -27.3491  -12.5271   17.7933 H   0  0  0  0  0  0
  -27.6329  -14.1970   19.4723 H   0  0  0  0  0  0
  -28.6938  -12.0658   21.4083 H   0  0  0  0  0  0
  -28.4462  -13.7392   21.8078 H   0  0  0  0  0  0
  -25.2753   -9.5668   22.4794 H   0  0  0  0  0  0
  -24.0008   -7.4594   22.7471 H   0  0  0  0  0  0
  -21.0833   -8.8743   19.8965 H   0  0  0  0  0  0
  -22.3673  -10.9665   19.6182 H   0  0  0  0  0  0
  -21.1954   -7.6134   23.9723 H   0  0  0  0  0  0
  -21.1507   -6.0525   25.9094 H   0  0  0  0  0  0
  -22.0593   -2.7606   23.2876 H   0  0  0  0  0  0
  -22.4060  -11.9883   22.4802 H   0  0  0  0  0  0
  -21.1101  -13.1285   22.2625 H   0  0  0  0  0  0
  -24.6757  -15.8441   20.5156 H   0  0  0  0  0  0
  -26.2885  -15.6119   20.0764 H   0  0  0  0  0  0
  -26.7112  -32.5535   23.1152 H   0  0  0  0  0  0
  -25.0089  -33.9789   25.0496 H   0  0  0  0  0  0
  -22.6906  -31.3071   21.4091 H   0  0  0  0  0  0
  -23.3802  -35.9574   23.3152 H   0  0  0  0  0  0
  -24.3629  -36.9068   22.2075 H   0  0  0  0  0  0
  -23.7125  -37.6431   23.6725 H   0  0  0  0  0  0
  -26.0428  -31.6011   20.5914 H   0  0  0  0  0  0
  -26.8158  -30.8873   21.9791 H   0  0  0  0  0  0
  -28.1030  -29.1197   21.1448 H   0  0  0  0  0  0
  -26.0535  -25.9685   19.0201 H   0  0  0  0  0  0
  -23.9803  -27.2877   19.0411 H   0  0  0  0  0  0
  -23.7101  -30.5918   19.4015 H   0  0  0  0  0  0
  -22.7336  -29.2340   19.8756 H   0  0  0  0  0  0
  -25.1243  -36.1955   25.0830 H   0  0  0  0  0  0
  -20.9955  -28.3223   24.1436 H   0  0  0  0  0  0
  -20.5638  -26.2270   23.3619 H   0  0  0  0  0  0
  -21.6633  -26.7420   22.1227 H   0  0  0  0  0  0
  -19.6908  -25.6289   21.1238 H   0  0  0  0  0  0
  -19.6718  -27.3197   20.6754 H   0  0  0  0  0  0
  -17.4210  -26.6716   21.3971 H   0  0  0  0  0  0
  -18.0281  -26.0052   22.8965 H   0  0  0  0  0  0
  -19.7927  -30.7252   24.2281 H   0  0  0  0  0  0
  -17.5004  -31.6258   24.5160 H   0  0  0  0  0  0
  -15.5340  -30.2978   23.7650 H   0  0  0  0  0  0
  -15.8661  -28.0819   22.7047 H   0  0  0  0  0  0
  -24.5947  -30.7034   25.7843 H   0  0  0  0  0  0
  -24.8946  -32.2862   26.4932 H   0  0  0  0  0  0
  -25.8136  -30.8899   27.0241 H   0  0  0  0  0  0
  -26.2813  -29.6782   24.1198 H   0  0  0  0  0  0
  -27.4101  -29.7282   25.4546 H   0  0  0  0  0  0
  -27.8642  -30.4327   23.9203 H   0  0  0  0  0  0
  -27.2713  -33.3602   26.2077 H   0  0  0  0  0  0
  -28.3864  -32.6878   25.0272 H   0  0  0  0  0  0
  -28.0772  -31.8413   26.5347 H   0  0  0  0  0  0
  -28.2466  -38.0216   24.7742 H   0  0  0  0  0  0
  -28.1280  -36.2782   24.5869 H   0  0  0  0  0  0
  -27.2411  -37.0937   25.8821 H   0  0  0  0  0  0
  -20.9294  -29.8749   21.6950 H   0  0  0  0  0  0
  -26.0140  -38.2860   24.1661 H   0  0  0  0  0  0
  -30.4764  -22.1512   19.1777 H   0  0  0  0  0  0
  -28.2091  -23.6627   18.6742 H   0  0  0  0  0  0
  -29.0340  -25.1950   18.0774 H   0  0  0  0  0  0
  -30.3817  -16.6221   23.0296 H   0  0  0  0  0  0
  -31.7985  -15.6997   22.6205 H   0  0  0  0  0  0
  -28.6393  -15.9167   19.8382 H   0  0  0  0  0  0
  -28.4154  -16.6605   21.3979 H   0  0  0  0  0  0
  -32.3692  -17.2761   20.7789 H   0  0  0  0  0  0
  -32.2119  -18.1386   22.2928 H   0  0  0  0  0  0
  -28.9158  -18.3654   19.6902 H   0  0  0  0  0  0
  -30.2920  -17.4573   19.1104 H   0  0  0  0  0  0
  -30.5375  -25.1839   20.1079 H   0  0  0  0  0  0
  -27.5127  -24.8978   20.8119 H   0  0  0  0  0  0
  -29.5365  -25.3874   22.6249 H   0  0  0  0  0  0
  -30.0250  -24.5290   24.0568 H   0  0  0  0  0  0
  -28.3623  -24.3811   23.4743 H   0  0  0  0  0  0
  -30.3368  -20.8437   26.1525 H   0  0  0  0  0  0
  -31.4436  -20.4865   24.8249 H   0  0  0  0  0  0
  -29.8007  -19.8249   24.8154 H   0  0  0  0  0  0
  -32.2707  -19.7494   20.4422 H   0  0  0  0  0  0
  -31.0096  -19.7448   19.2420 H   0  0  0  0  0  0
  -29.7233  -22.7131   24.9128 H   0  0  0  0  0  0
  -30.0807  -18.8565   21.6848 H   0  0  0  0  0  0
  1 25  1  0  0  0
  1 30  2  0  0  0
  1 87  1  0  0  0
  2  3  1  0  0  0
  2 25  1  0  0  0
  2 90  1  0  0  0
  2 91  1  0  0  0
  3  4  1  0  0  0
  3 92  1  0  0  0
  3 93  1  0  0  0
  4  5  1  0  0  0
  4 94  1  0  0  0
  4 95  1  0  0  0
  5  6  1  0  0  0
  5 26  1  0  0  0
  5 96  1  0  0  0
  6 25  1  0  0  0
  6 97  1  0  0  0
  6 98  1  0  0  0
  7  8  2  0  0  0
  7 26  1  0  0  0
  7 29  1  0  0  0
  8  9  1  0  0  0
  8 22  1  0  0  0
  9 10  1  0  0  0
  9 27  2  0  0  0
 10 11  2  0  0  0
 10 15  1  0  0  0
 11 12  1  0  0  0
 11 99  1  0  0  0
 12 13  2  0  0  0
 12100  1  0  0  0
 13 14  1  0  0  0
 13 31  1  0  0  0
 14 15  2  0  0  0
 14101  1  0  0  0
 15102  1  0  0  0
 16 17  2  0  0  0
 16 21  1  0  0  0
 16 31  1  0  0  0
 17 18  1  0  0  0
 17103  1  0  0  0
 18 19  2  0  0  0
 18104  1  0  0  0
 19 20  1  0  0  0
 19 24  1  0  0  0
 20 21  2  0  0  0
 20105  1  0  0  0
 21 23  1  0  0  0
 22 28  1  0  0  0
 22 32  2  0  0  0
 26 27  1  0  0  0
 28106  1  0  0  0
 28107  1  0  0  0
 29108  1  0  0  0
 29109  1  0  0  0
 33 34  1  0  0  0
 33 66  1  0  0  0
 33 70  2  0  0  0
 34 36  1  0  0  0
 34 59  1  0  0  0
 34110  1  0  0  0
 35 44  2  0  0  0
 35 45  1  0  0  0
 35 68  1  0  0  0
 36 56  1  0  0  0
 36111  1  0  0  0
 37 39  1  0  0  0
 37 47  1  0  0  0
 37 66  1  0  0  0
 37112  1  0  0  0
 38 43  2  0  0  0
 38 46  1  0  0  0
 38 47  1  0  0  0
 39 64  1  0  0  0
 39 67  2  0  0  0
 40 52  1  0  0  0
 40 53  2  0  0  0
 40 58  1  0  0  0
 41113  1  0  0  0
 41114  1  0  0  0
 41115  1  0  0  0
 41 48  1  0  0  0
 42 43  1  0  0  0
 42 66  1  0  0  0
 42116  1  0  0  0
 42117  1  0  0  0
 43 44  1  0  0  0
 44118  1  0  0  0
 45 46  2  0  0  0
 45119  1  0  0  0
 46120  1  0  0  0
 47121  1  0  0  0
 47122  1  0  0  0
 48 56  1  0  0  0
 48 65  1  0  0  0
 48123  1  0  0  0
 49 50  1  0  0  0
 49 53  1  0  0  0
 49 64  1  0  0  0
 49124  1  0  0  0
 50 51  1  0  0  0
 50125  1  0  0  0
 50126  1  0  0  0
 51 52  1  0  0  0
 51127  1  0  0  0
 51128  1  0  0  0
 52129  1  0  0  0
 52130  1  0  0  0
 53 54  1  0  0  0
 54 55  2  0  0  0
 54131  1  0  0  0
 55 57  1  0  0  0
 55132  1  0  0  0
 56 69  2  0  0  0
 57 58  2  0  0  0
 57133  1  0  0  0
 58134  1  0  0  0
 59 60  1  0  0  0
 59 61  1  0  0  0
 59 62  1  0  0  0
 60135  1  0  0  0
 60136  1  0  0  0
 60137  1  0  0  0
 61138  1  0  0  0
 61139  1  0  0  0
 61140  1  0  0  0
 62141  1  0  0  0
 62142  1  0  0  0
 62143  1  0  0  0
 63 65  1  0  0  0
 63144  1  0  0  0
 63145  1  0  0  0
 63146  1  0  0  0
 64147  1  0  0  0
 65148  1  0  0  0
 68 82  1  0  0  0
 71 72  2  0  0  0
 71 74  1  0  0  0
 71149  1  0  0  0
 72 73  1  0  0  0
 72 81  1  0  0  0
 73 75  2  0  0  0
 73 83  1  0  0  0
 74 85  1  0  0  0
 74 86  2  0  0  0
 75 86  1  0  0  0
 75 88  1  0  0  0
 76 81  1  0  0  0
 76 82  1  0  0  0
 76150  1  0  0  0
 76151  1  0  0  0
 77 79  1  0  0  0
 77 87  1  0  0  0
 77152  1  0  0  0
 77153  1  0  0  0
 78 80  1  0  0  0
 78 87  1  0  0  0
 78154  1  0  0  0
 78155  1  0  0  0
 79 89  1  0  0  0
 79156  1  0  0  0
 79157  1  0  0  0
 80 89  1  0  0  0
 80158  1  0  0  0
 80159  1  0  0  0
 81 82  1  0  0  0
 81160  1  0  0  0
 82161  1  0  0  0
 83162  1  0  0  0
 83163  1  0  0  0
 83164  1  0  0  0
 84 88  1  0  0  0
 84165  1  0  0  0
 84166  1  0  0  0
 84167  1  0  0  0
 85168  1  0  0  0
 85169  1  0  0  0
 85 89  1  0  0  0
 88170  1  0  0  0
 89171  1  0  0  0
M  CHG  1  89   1
M  ISO  4   1 100  68 101  82 101  87 100
M  END
> <chiral flag>
0

> <version>
0

> <s_m_source_file>
/data/baiqing/PycharmProjects/Reinvent-master-3.2/result/LINK_invent/BTK/process_docking_weight1_custom_sum_contain_oxygen_bond_distance_aromatic_linkinvent_7_9_3/rearranged_h_0169.sdf

> <i_m_source_file_index>
61

> <r_mmod_Potential_Energy-OPLS-2005>
-282.779235839844

> <r_mmod_Stretch_Energy-OPLS-2005>
40.64404296875

> <r_mmod_Bend_Energy-OPLS-2005>
120.238555908203

> <r_mmod_Torsional_Energy-OPLS-2005>
392.871429443359

> <r_mmod_Improper_Torsional_Energy-OPLS-2005>
5.06994247436523

> <r_mmod_Van_der_Waal_Energy-OPLS-2005>
166.011352539062

> <r_mmod_Electrostatic_Energy-OPLS-2005>
-595.304260253906

> <r_mmod_Solvation_Energy-OPLS-2005>
-431.311645507812

> <b_mmod_Minimization_Converged-OPLS-2005>
0

> <r_mmod_RMS_Derivative-OPLS-2005>
2.02647566795349

$$$$
61
                    3D
 Structure written by MMmdl.
168178  0  0  1  0            999 V2000
  -30.6682  -14.5921   20.5044 C   0  0  0  0  0  0
  -30.4243  -12.3660   19.4461 C   0  0  0  0  0  0
  -29.5006  -12.5010   18.2166 C   0  0  0  0  0  0
  -28.0212  -12.3525   18.6264 C   0  0  0  0  0  0
  -27.6507  -13.2162   19.8624 C   0  0  2  0  0  0
  -28.6958  -13.0546   20.9871 C   0  0  0  0  0  0
  -25.2541  -13.8171   20.5675 C   0  0  0  0  0  0
  -24.1813  -13.0436   20.9189 C   0  0  0  0  0  0
  -24.6385  -11.6910   20.8741 C   0  0  0  0  0  0
  -23.9055  -10.4293   21.0407 C   0  0  0  0  0  0
  -24.3610   -9.4210   21.9185 C   0  0  0  0  0  0
  -23.6288   -8.2244   22.0754 C   0  0  0  0  0  0
  -22.4270   -8.0279   21.3544 C   0  0  0  0  0  0
  -21.9903   -9.0254   20.4648 C   0  0  0  0  0  0
  -22.7229  -10.2135   20.3057 C   0  0  0  0  0  0
  -21.6854   -6.0731   22.5278 C   0  0  0  0  0  0
  -21.4016   -6.5636   23.8210 C   0  0  0  0  0  0
  -21.3660   -5.6788   24.9173 C   0  0  0  0  0  0
  -21.6044   -4.3051   24.7226 C   0  0  0  0  0  0
  -21.8820   -3.8143   23.4346 C   0  0  0  0  0  0
  -21.9194   -4.6959   22.3402 C   0  0  0  0  0  0
  -22.7835  -13.5230   21.1852 C   0  0  0  0  0  0
  -22.1662   -4.2145   21.0980 F   0  0  0  0  0  0
  -21.5630   -3.4535   25.7737 F   0  0  0  0  0  0
  -30.0073  -13.3949   20.4189 N   0  0  0  0  0  0
  -26.2972  -12.9355   20.3321 N   0  0  0  0  0  0
  -25.9312  -11.6509   20.5756 N   0  0  0  0  0  0
  -22.0478  -12.8231   22.0414 N   0  0  0  0  0  0
  -25.4232  -15.1888   20.4063 N   0  0  0  0  0  0
  -31.8494  -14.6788   20.1521 O   0  0  0  0  0  0
  -21.6637   -6.8875   21.4240 O   0  0  0  0  0  0
  -22.3520  -14.5535   20.6695 O   0  0  0  0  0  0
  -24.6217  -31.8627   23.2051 C   0  0  0  0  0  0
  -25.9084  -32.4791   23.8363 C   0  0  1  0  0  0
  -27.2279  -27.3633   20.0919 C   0  0  0  0  0  0
  -25.5915  -33.8590   24.2293 N   0  0  0  0  0  0
  -23.4117  -30.4873   21.5477 C   0  0  2  0  0  0
  -24.8549  -28.9456   20.1118 C   0  0  0  0  0  0
  -22.7442  -29.4638   22.4960 C   0  0  0  0  0  0
  -18.0280  -28.1379   22.8488 C   0  0  0  0  0  0
  -24.1488  -36.7300   23.2638 C   0  0  0  0  0  0
  -25.9485  -30.8049   21.3691 C   0  0  0  0  0  0
  -26.0208  -29.4351   20.7118 C   0  0  0  0  0  0
  -27.2056  -28.6512   20.6994 C   0  0  0  0  0  0
  -26.0291  -26.9004   19.5016 C   0  0  0  0  0  0
  -24.8574  -27.6798   19.5051 C   0  0  0  0  0  0
  -23.6221  -29.8220   20.1620 C   0  0  0  0  0  0
  -25.4110  -36.3090   24.0332 C   0  0  1  0  0  0
  -20.5874  -28.3673   23.1301 C   0  0  2  0  0  0
  -20.6769  -26.9402   22.5414 C   0  0  0  0  0  0
  -19.5747  -26.6382   21.5211 C   0  0  0  0  0  0
  -18.1925  -26.7924   22.1623 C   0  0  0  0  0  0
  -19.1530  -28.8843   23.2892 C   0  0  0  0  0  0
  -18.9456  -30.1448   23.8905 C   0  0  0  0  0  0
  -17.6457  -30.6584   24.0564 C   0  0  0  0  0  0
  -25.9046  -34.9458   23.5111 C   0  0  0  0  0  0
  -16.5348  -29.9084   23.6328 C   0  0  0  0  0  0
  -16.7267  -28.6503   23.0349 C   0  0  0  0  0  0
  -26.4486  -31.6589   25.0719 C   0  0  0  0  0  0
  -25.3733  -31.3717   26.1456 C   0  0  0  0  0  0
  -27.0323  -30.3020   24.6142 C   0  0  0  0  0  0
  -27.6051  -32.4319   25.7485 C   0  0  0  0  0  0
  -27.5582  -37.1800   24.8461 C   0  0  0  0  0  0
  -21.4164  -29.3033   22.3700 N   0  0  0  0  0  0
  -26.4290  -37.3783   23.9413 N   0  0  0  0  0  0
  -24.6794  -31.0676   22.0980 N   0  0  0  0  0  0
  -23.4188  -28.8177   23.3023 O   0  0  0  0  0  0
  -28.3896  -26.5916   20.1324 O   0  0  0  0  0  0
  -26.5613  -34.8921   22.4678 O   0  0  0  0  0  0
  -23.5395  -32.1409   23.7409 O   0  0  0  0  0  0
  -29.7328  -22.5016   21.6488 C   0  0  0  0  0  0
  -29.4363  -23.8156   21.2034 C   0  0  0  0  0  0
  -28.7529  -23.9963   19.9727 C   0  0  0  0  0  0
  -28.3984  -22.7932   19.2835 C   0  0  0  0  0  0
  -29.3743  -21.3756   20.8818 C   0  0  0  0  0  0
  -26.2742  -23.2731   17.8258 C   0  0  0  0  0  0
  -26.5998  -21.8207   17.6167 C   0  0  0  0  0  0
  -29.3466  -17.7187   22.0006 C   0  0  0  0  0  0
  -30.3358  -18.1707   19.7906 C   0  0  0  0  0  0
  -29.0656  -16.2361   21.5985 C   0  0  0  0  0  0
  -29.9871  -16.7103   19.3703 C   0  0  0  0  0  0
  -27.7095  -22.8017   17.9463 C   0  0  0  0  0  0
  -29.3611  -18.7500   20.8387 C   0  0  0  0  0  0
  -29.9005  -24.9938   22.0413 C   0  0  0  0  0  0
  -28.5640  -25.4024   19.3017 C   0  0  0  0  0  0
  -28.7060  -21.5341   19.7229 N   0  0  0  0  0  0
  -29.8966  -15.7328   20.4849 N   0  0  0  0  0  0
  -29.7599  -20.0888   21.3383 N   0  0  0  0  0  0
  -31.4683  -12.4683   19.1446 H   0  0  0  0  0  0
  -30.3400  -11.3704   19.8846 H   0  0  0  0  0  0
  -29.7576  -11.7515   17.4667 H   0  0  0  0  0  0
  -29.6556  -13.4721   17.7436 H   0  0  0  0  0  0
  -27.8466  -11.2987   18.8469 H   0  0  0  0  0  0
  -27.3701  -12.5980   17.7867 H   0  0  0  0  0  0
  -27.6731  -14.2545   19.5317 H   0  0  0  0  0  0
  -28.7029  -12.0278   21.3553 H   0  0  0  0  0  0
  -28.4431  -13.6678   21.8486 H   0  0  0  0  0  0
  -25.2759   -9.5687   22.4753 H   0  0  0  0  0  0
  -24.0000   -7.4636   22.7472 H   0  0  0  0  0  0
  -21.0834   -8.8772   19.8954 H   0  0  0  0  0  0
  -22.3689  -10.9671   19.6160 H   0  0  0  0  0  0
  -21.2007   -7.6143   23.9711 H   0  0  0  0  0  0
  -21.1482   -6.0519   25.9075 H   0  0  0  0  0  0
  -22.0599   -2.7605   23.2847 H   0  0  0  0  0  0
  -22.4086  -11.9895   22.4811 H   0  0  0  0  0  0
  -21.1095  -13.1261   22.2616 H   0  0  0  0  0  0
  -24.6557  -15.8427   20.5136 H   0  0  0  0  0  0
  -26.2743  -15.6268   20.0785 H   0  0  0  0  0  0
  -26.7147  -32.5470   23.1110 H   0  0  0  0  0  0
  -25.0059  -33.9739   25.0435 H   0  0  0  0  0  0
  -22.7035  -31.3063   21.4076 H   0  0  0  0  0  0
  -23.3748  -35.9637   23.3302 H   0  0  0  0  0  0
  -24.3583  -36.8918   22.2053 H   0  0  0  0  0  0
  -23.7244  -37.6505   23.6657 H   0  0  0  0  0  0
  -26.0741  -31.5701   20.6018 H   0  0  0  0  0  0
  -26.8317  -30.8531   21.9944 H   0  0  0  0  0  0
  -28.1040  -29.0258   21.1695 H   0  0  0  0  0  0
  -25.9545  -25.9214   19.0572 H   0  0  0  0  0  0
  -23.9565  -27.2907   19.0506 H   0  0  0  0  0  0
  -23.7372  -30.5983   19.4047 H   0  0  0  0  0  0
  -22.7427  -29.2490   19.8626 H   0  0  0  0  0  0
  -25.1287  -36.1945   25.0824 H   0  0  0  0  0  0
  -20.9967  -28.3243   24.1422 H   0  0  0  0  0  0
  -20.5670  -26.2279   23.3605 H   0  0  0  0  0  0
  -21.6640  -26.7439   22.1208 H   0  0  0  0  0  0
  -19.6909  -25.6295   21.1236 H   0  0  0  0  0  0
  -19.6687  -27.3198   20.6745 H   0  0  0  0  0  0
  -17.4195  -26.6670   21.4026 H   0  0  0  0  0  0
  -18.0328  -26.0065   22.9020 H   0  0  0  0  0  0
  -19.7932  -30.7260   24.2278 H   0  0  0  0  0  0
  -17.5013  -31.6266   24.5163 H   0  0  0  0  0  0
  -15.5348  -30.2988   23.7650 H   0  0  0  0  0  0
  -15.8668  -28.0825   22.7057 H   0  0  0  0  0  0
  -24.5905  -30.7066   25.7792 H   0  0  0  0  0  0
  -24.8929  -32.2881   26.4894 H   0  0  0  0  0  0
  -25.8073  -30.8890   27.0222 H   0  0  0  0  0  0
  -26.2885  -29.6775   24.1179 H   0  0  0  0  0  0
  -27.4051  -29.7266   25.4626 H   0  0  0  0  0  0
  -27.8740  -30.4317   23.9334 H   0  0  0  0  0  0
  -27.2662  -33.3609   26.2082 H   0  0  0  0  0  0
  -28.3851  -32.6896   25.0307 H   0  0  0  0  0  0
  -28.0733  -31.8433   26.5386 H   0  0  0  0  0  0
  -28.2590  -38.0107   24.7523 H   0  0  0  0  0  0
  -28.1085  -36.2639   24.6263 H   0  0  0  0  0  0
  -27.2305  -37.1425   25.8865 H   0  0  0  0  0  0
  -20.9327  -29.8758   21.6922 H   0  0  0  0  0  0
  -26.0172  -38.2857   24.1421 H   0  0  0  0  0  0
  -30.2683  -22.3678   22.5792 H   0  0  0  0  0  0
  -25.7464  -23.5338   18.7410 H   0  0  0  0  0  0
  -26.0029  -23.8515   16.9452 H   0  0  0  0  0  0
  -26.5449  -21.4444   16.5973 H   0  0  0  0  0  0
  -26.2890  -21.1211   18.3906 H   0  0  0  0  0  0
  -30.3113  -17.7461   22.5102 H   0  0  0  0  0  0
  -28.6106  -18.0243   22.7460 H   0  0  0  0  0  0
  -30.3391  -18.8094   18.9061 H   0  0  0  0  0  0
  -31.3543  -18.1907   20.1815 H   0  0  0  0  0  0
  -28.0181  -16.1288   21.3172 H   0  0  0  0  0  0
  -29.2142  -15.6180   22.4848 H   0  0  0  0  0  0
  -30.7060  -16.3780   18.6186 H   0  0  0  0  0  0
  -29.0229  -16.7091   18.8601 H   0  0  0  0  0  0
  -28.4015  -23.0672   17.1489 H   0  0  0  0  0  0
  -28.3620  -18.8214   20.4051 H   0  0  0  0  0  0
  -30.4993  -24.6695   22.8924 H   0  0  0  0  0  0
  -29.0452  -25.5466   22.4302 H   0  0  0  0  0  0
  -30.5136  -25.6730   21.4487 H   0  0  0  0  0  0
  -27.8564  -25.3609   18.4799 H   0  0  0  0  0  0
  -29.5084  -25.5779   18.7858 H   0  0  0  0  0  0
  -30.2742  -20.0795   22.2116 H   0  0  0  0  0  0
  1 25  1  0  0  0
  1 30  2  0  0  0
  1 87  1  0  0  0
  2  3  1  0  0  0
  2 25  1  0  0  0
  2 89  1  0  0  0
  2 90  1  0  0  0
  3  4  1  0  0  0
  3 91  1  0  0  0
  3 92  1  0  0  0
  4  5  1  0  0  0
  4 93  1  0  0  0
  4 94  1  0  0  0
  5  6  1  0  0  0
  5 26  1  0  0  0
  5 95  1  0  0  0
  6 25  1  0  0  0
  6 96  1  0  0  0
  6 97  1  0  0  0
  7  8  2  0  0  0
  7 26  1  0  0  0
  7 29  1  0  0  0
  8  9  1  0  0  0
  8 22  1  0  0  0
  9 10  1  0  0  0
  9 27  2  0  0  0
 10 11  2  0  0  0
 10 15  1  0  0  0
 11 12  1  0  0  0
 11 98  1  0  0  0
 12 13  2  0  0  0
 12 99  1  0  0  0
 13 14  1  0  0  0
 13 31  1  0  0  0
 14 15  2  0  0  0
 14100  1  0  0  0
 15101  1  0  0  0
 16 17  2  0  0  0
 16 21  1  0  0  0
 16 31  1  0  0  0
 17 18  1  0  0  0
 17102  1  0  0  0
 18 19  2  0  0  0
 18103  1  0  0  0
 19 20  1  0  0  0
 19 24  1  0  0  0
 20 21  2  0  0  0
 20104  1  0  0  0
 21 23  1  0  0  0
 22 28  1  0  0  0
 22 32  2  0  0  0
 26 27  1  0  0  0
 28105  1  0  0  0
 28106  1  0  0  0
 29107  1  0  0  0
 29108  1  0  0  0
 33 34  1  0  0  0
 33 66  1  0  0  0
 33 70  2  0  0  0
 34 36  1  0  0  0
 34 59  1  0  0  0
 34109  1  0  0  0
 35 44  2  0  0  0
 35 45  1  0  0  0
 35 68  1  0  0  0
 36 56  1  0  0  0
 36110  1  0  0  0
 37 39  1  0  0  0
 37 47  1  0  0  0
 37 66  1  0  0  0
 37111  1  0  0  0
 38 43  2  0  0  0
 38 46  1  0  0  0
 38 47  1  0  0  0
 39 64  1  0  0  0
 39 67  2  0  0  0
 40 52  1  0  0  0
 40 53  2  0  0  0
 40 58  1  0  0  0
 41112  1  0  0  0
 41113  1  0  0  0
 41114  1  0  0  0
 41 48  1  0  0  0
 42 43  1  0  0  0
 42 66  1  0  0  0
 42115  1  0  0  0
 42116  1  0  0  0
 43 44  1  0  0  0
 44117  1  0  0  0
 45 46  2  0  0  0
 45118  1  0  0  0
 46119  1  0  0  0
 47120  1  0  0  0
 47121  1  0  0  0
 48 56  1  0  0  0
 48 65  1  0  0  0
 48122  1  0  0  0
 49 50  1  0  0  0
 49 53  1  0  0  0
 49 64  1  0  0  0
 49123  1  0  0  0
 50 51  1  0  0  0
 50124  1  0  0  0
 50125  1  0  0  0
 51 52  1  0  0  0
 51126  1  0  0  0
 51127  1  0  0  0
 52128  1  0  0  0
 52129  1  0  0  0
 53 54  1  0  0  0
 54 55  2  0  0  0
 54130  1  0  0  0
 55 57  1  0  0  0
 55131  1  0  0  0
 56 69  2  0  0  0
 57 58  2  0  0  0
 57132  1  0  0  0
 58133  1  0  0  0
 59 60  1  0  0  0
 59 61  1  0  0  0
 59 62  1  0  0  0
 60134  1  0  0  0
 60135  1  0  0  0
 60136  1  0  0  0
 61137  1  0  0  0
 61138  1  0  0  0
 61139  1  0  0  0
 62140  1  0  0  0
 62141  1  0  0  0
 62142  1  0  0  0
 63 65  1  0  0  0
 63143  1  0  0  0
 63144  1  0  0  0
 63145  1  0  0  0
 64146  1  0  0  0
 65147  1  0  0  0
 68 85  1  0  0  0
 71 72  2  0  0  0
 71 75  1  0  0  0
 71148  1  0  0  0
 72 73  1  0  0  0
 72 84  1  0  0  0
 73 74  2  0  0  0
 73 85  1  0  0  0
 74 86  1  0  0  0
 74 82  1  0  0  0
 75 86  2  0  0  0
 75 88  1  0  0  0
 76 77  1  0  0  0
 76 82  1  0  0  0
 76149  1  0  0  0
 76150  1  0  0  0
 77 82  1  0  0  0
 77151  1  0  0  0
 77152  1  0  0  0
 78 80  1  0  0  0
 78 83  1  0  0  0
 78153  1  0  0  0
 78154  1  0  0  0
 79 81  1  0  0  0
 79 83  1  0  0  0
 79155  1  0  0  0
 79156  1  0  0  0
 80 87  1  0  0  0
 80157  1  0  0  0
 80158  1  0  0  0
 81 87  1  0  0  0
 81159  1  0  0  0
 81160  1  0  0  0
 82161  1  0  0  0
 83 88  1  0  0  0
 83162  1  0  0  0
 84163  1  0  0  0
 84164  1  0  0  0
 84165  1  0  0  0
 85166  1  0  0  0
 85167  1  0  0  0
 88168  1  0  0  0
M  ISO  4   1 100  68 101  85 101  87 100
M  END
> <chiral flag>
0

> <version>
0

> <s_m_source_file>
/data/baiqing/PycharmProjects/Reinvent-master-3.2/result/LINK_invent/BTK/process_docking_weight1_custom_sum_contain_oxygen_bond_distance_aromatic_linkinvent_7_9_3/rearranged_h_0169.sdf

> <i_m_source_file_index>
62

> <r_mmod_Potential_Energy-OPLS-2005>
57.6953964233398

> <r_mmod_Stretch_Energy-OPLS-2005>
61.5730628967285

> <r_mmod_Bend_Energy-OPLS-2005>
156.874435424805

> <r_mmod_Torsional_Energy-OPLS-2005>
343.033874511719

> <r_mmod_Improper_Torsional_Energy-OPLS-2005>
17.4863700866699

> <r_mmod_Van_der_Waal_Energy-OPLS-2005>
145.968124389648

> <r_mmod_Electrostatic_Energy-OPLS-2005>
-480.368255615234

> <r_mmod_Solvation_Energy-OPLS-2005>
-219.466949462891

> <b_mmod_Minimization_Converged-OPLS-2005>
0

> <r_mmod_RMS_Derivative-OPLS-2005>
0.497837603092194

$$$$
62
                    3D
 Structure written by MMmdl.
165174  0  0  1  0            999 V2000
  -30.5970  -14.8939   20.4929 C   0  0  0  0  0  0
  -30.4443  -12.5639   19.5063 C   0  0  0  0  0  0
  -29.5277  -12.5431   18.2613 C   0  0  0  0  0  0
  -28.0564  -12.3348   18.6682 C   0  0  0  0  0  0
  -27.6429  -13.2404   19.8601 C   0  0  2  0  0  0
  -28.6907  -13.2105   20.9973 C   0  0  0  0  0  0
  -25.2502  -13.8181   20.5708 C   0  0  0  0  0  0
  -24.1793  -13.0411   20.9222 C   0  0  0  0  0  0
  -24.6416  -11.6895   20.8784 C   0  0  0  0  0  0
  -23.9062  -10.4267   21.0425 C   0  0  0  0  0  0
  -24.3578   -9.4170   21.9209 C   0  0  0  0  0  0
  -23.6251   -8.2197   22.0746 C   0  0  0  0  0  0
  -22.4243   -8.0241   21.3520 C   0  0  0  0  0  0
  -21.9885   -9.0230   20.4649 C   0  0  0  0  0  0
  -22.7223  -10.2111   20.3082 C   0  0  0  0  0  0
  -21.6831   -6.0708   22.5269 C   0  0  0  0  0  0
  -21.4007   -6.5612   23.8209 C   0  0  0  0  0  0
  -21.3667   -5.6772   24.9183 C   0  0  0  0  0  0
  -21.6037   -4.3029   24.7233 C   0  0  0  0  0  0
  -21.8816   -3.8124   23.4355 C   0  0  0  0  0  0
  -21.9185   -4.6939   22.3402 C   0  0  0  0  0  0
  -22.7817  -13.5224   21.1828 C   0  0  0  0  0  0
  -22.1639   -4.2128   21.0984 F   0  0  0  0  0  0
  -21.5635   -3.4511   25.7750 F   0  0  0  0  0  0
  -29.9645  -13.6485   20.4118 N   0  0  0  0  0  0
  -26.2955  -12.9399   20.3349 N   0  0  0  0  0  0
  -25.9352  -11.6539   20.5788 N   0  0  0  0  0  0
  -22.0431  -12.8264   22.0398 N   0  0  0  0  0  0
  -25.4133  -15.1882   20.4013 N   0  0  0  0  0  0
  -31.7760  -14.9361   20.1223 O   0  0  0  0  0  0
  -21.6597   -6.8840   21.4221 O   0  0  0  0  0  0
  -22.3529  -14.5518   20.6642 O   0  0  0  0  0  0
  -24.6436  -31.8477   23.1959 C   0  0  0  0  0  0
  -25.9222  -32.4722   23.8324 C   0  0  1  0  0  0
  -27.2126  -27.1567   20.1351 C   0  0  0  0  0  0
  -25.6000  -33.8526   24.2261 N   0  0  0  0  0  0
  -23.4442  -30.4745   21.5392 C   0  0  2  0  0  0
  -24.8948  -28.9150   20.1082 C   0  0  0  0  0  0
  -22.7576  -29.4580   22.4868 C   0  0  0  0  0  0
  -18.0310  -28.1401   22.8466 C   0  0  0  0  0  0
  -24.1492  -36.7235   23.2628 C   0  0  0  0  0  0
  -26.0018  -30.7281   21.3926 C   0  0  0  0  0  0
  -26.0738  -29.3428   20.7325 C   0  0  0  0  0  0
  -27.2320  -28.4771   20.7376 C   0  0  0  0  0  0
  -26.0081  -26.8502   19.4520 C   0  0  0  0  0  0
  -24.8746  -27.6804   19.4544 C   0  0  0  0  0  0
  -23.6716  -29.8136   20.1557 C   0  0  0  0  0  0
  -25.4113  -36.3040   24.0329 C   0  0  1  0  0  0
  -20.5922  -28.3721   23.1235 C   0  0  2  0  0  0
  -20.6786  -26.9434   22.5394 C   0  0  0  0  0  0
  -19.5769  -26.6394   21.5191 C   0  0  0  0  0  0
  -18.1948  -26.7947   22.1602 C   0  0  0  0  0  0
  -19.1566  -28.8875   23.2846 C   0  0  0  0  0  0
  -18.9477  -30.1467   23.8879 C   0  0  0  0  0  0
  -17.6472  -30.6596   24.0543 C   0  0  0  0  0  0
  -25.9069  -34.9417   23.5088 C   0  0  0  0  0  0
  -16.5364  -29.9078   23.6333 C   0  0  0  0  0  0
  -16.7289  -28.6498   23.0346 C   0  0  0  0  0  0
  -26.4559  -31.6547   25.0725 C   0  0  0  0  0  0
  -25.3746  -31.3720   26.1429 C   0  0  0  0  0  0
  -27.0375  -30.2930   24.6265 C   0  0  0  0  0  0
  -27.6154  -32.4253   25.7468 C   0  0  0  0  0  0
  -27.5592  -37.1762   24.8461 C   0  0  0  0  0  0
  -21.4268  -29.3050   22.3615 N   0  0  0  0  0  0
  -26.4275  -37.3758   23.9446 N   0  0  0  0  0  0
  -24.7164  -31.0351   22.0991 N   0  0  0  0  0  0
  -23.4239  -28.8097   23.2985 O   0  0  0  0  0  0
  -28.2385  -26.1412   20.2256 O   0  0  0  0  0  0
  -26.5639  -34.8901   22.4658 O   0  0  0  0  0  0
  -23.5556  -32.1368   23.7172 O   0  0  0  0  0  0
  -28.4953  -22.3112   18.9820 C   0  0  0  0  0  0
  -28.7438  -20.8899   19.0623 C   0  0  0  0  0  0
  -28.5564  -23.2218   20.0795 C   0  0  0  0  0  0
  -29.1025  -20.2642   20.3035 C   0  0  0  0  0  0
  -28.9575  -22.5208   21.2698 C   0  0  0  0  0  0
  -28.7070  -17.9968   21.8490 C   0  0  0  0  0  0
  -28.8762  -16.4366   21.6900 C   0  0  0  0  0  0
  -30.2535  -17.5293   20.1344 C   0  0  0  0  0  0
  -29.1151  -18.6179   20.5090 C   0  0  2  0  0  0
  -28.9813  -23.2657   22.5898 C   0  0  0  0  0  0
  -26.9455  -19.8097   17.6538 C   0  0  0  0  0  0
  -27.8228  -24.6881   19.9093 C   0  0  0  0  0  0
  -28.4627  -20.0403   17.8118 C   0  0  1  0  0  0
  -29.2403  -21.1477   21.3604 N   0  0  0  0  0  0
  -29.8886  -16.1226   20.6568 N   0  0  0  0  0  0
  -29.0832  -20.5816   16.5841 N   0  3  0  0  0  0
  -31.4783  -12.7085   19.1920 H   0  0  0  0  0  0
  -30.4289  -11.5972   20.0128 H   0  0  0  0  0  0
  -29.8473  -11.7607   17.5685 H   0  0  0  0  0  0
  -29.6246  -13.4893   17.7262 H   0  0  0  0  0  0
  -27.9358  -11.2868   18.9420 H   0  0  0  0  0  0
  -27.3997  -12.5093   17.8147 H   0  0  0  0  0  0
  -27.6273  -14.2573   19.4699 H   0  0  0  0  0  0
  -28.7820  -12.2054   21.4117 H   0  0  0  0  0  0
  -28.3936  -13.8393   21.8348 H   0  0  0  0  0  0
  -25.2690   -9.5632   22.4826 H   0  0  0  0  0  0
  -23.9935   -7.4579   22.7469 H   0  0  0  0  0  0
  -21.0795   -8.8761   19.8970 H   0  0  0  0  0  0
  -22.3654  -10.9653   19.6208 H   0  0  0  0  0  0
  -21.1978   -7.6117   23.9711 H   0  0  0  0  0  0
  -21.1511   -6.0501   25.9099 H   0  0  0  0  0  0
  -22.0604   -2.7592   23.2858 H   0  0  0  0  0  0
  -22.3982  -11.9909   22.4808 H   0  0  0  0  0  0
  -21.1089  -13.1408   22.2601 H   0  0  0  0  0  0
  -24.6240  -15.8210   20.4608 H   0  0  0  0  0  0
  -26.2358  -15.6154   19.9960 H   0  0  0  0  0  0
  -26.7274  -32.5363   23.1045 H   0  0  0  0  0  0
  -25.0191  -33.9645   25.0442 H   0  0  0  0  0  0
  -22.7439  -31.2991   21.3888 H   0  0  0  0  0  0
  -23.3791  -35.9522   23.3213 H   0  0  0  0  0  0
  -24.3613  -36.8937   22.2063 H   0  0  0  0  0  0
  -23.7186  -37.6390   23.6689 H   0  0  0  0  0  0
  -26.1503  -31.4849   20.6202 H   0  0  0  0  0  0
  -26.8762  -30.7838   22.0298 H   0  0  0  0  0  0
  -28.1225  -28.7933   21.2607 H   0  0  0  0  0  0
  -25.8764  -25.9244   18.9150 H   0  0  0  0  0  0
  -23.9794  -27.3536   18.9434 H   0  0  0  0  0  0
  -23.8081  -30.5895   19.4033 H   0  0  0  0  0  0
  -22.7874  -29.2555   19.8442 H   0  0  0  0  0  0
  -25.1277  -36.1858   25.0813 H   0  0  0  0  0  0
  -21.0004  -28.3294   24.1361 H   0  0  0  0  0  0
  -20.5643  -26.2342   23.3604 H   0  0  0  0  0  0
  -21.6660  -26.7414   22.1226 H   0  0  0  0  0  0
  -19.6927  -25.6290   21.1256 H   0  0  0  0  0  0
  -19.6717  -27.3164   20.6688 H   0  0  0  0  0  0
  -17.4220  -26.6675   21.3999 H   0  0  0  0  0  0
  -18.0352  -26.0094   22.9014 H   0  0  0  0  0  0
  -19.7948  -30.7286   24.2260 H   0  0  0  0  0  0
  -17.5015  -31.6277   24.5147 H   0  0  0  0  0  0
  -15.5356  -30.2951   23.7671 H   0  0  0  0  0  0
  -15.8689  -28.0787   22.7070 H   0  0  0  0  0  0
  -24.6005  -30.6971   25.7763 H   0  0  0  0  0  0
  -24.8833  -32.2872   26.4734 H   0  0  0  0  0  0
  -25.8060  -30.9015   27.0272 H   0  0  0  0  0  0
  -26.2960  -29.6692   24.1271 H   0  0  0  0  0  0
  -27.3979  -29.7207   25.4819 H   0  0  0  0  0  0
  -27.8887  -30.4150   23.9568 H   0  0  0  0  0  0
  -27.2862  -33.3615   26.1982 H   0  0  0  0  0  0
  -28.3990  -32.6697   25.0284 H   0  0  0  0  0  0
  -28.0783  -31.8390   26.5420 H   0  0  0  0  0  0
  -28.2547  -38.0121   24.7597 H   0  0  0  0  0  0
  -28.1149  -36.2665   24.6139 H   0  0  0  0  0  0
  -27.2348  -37.1232   25.8869 H   0  0  0  0  0  0
  -20.9481  -29.8777   21.6809 H   0  0  0  0  0  0
  -26.0137  -38.2813   24.1496 H   0  0  0  0  0  0
  -28.1325  -22.7034   18.0415 H   0  0  0  0  0  0
  -29.3674  -18.3615   22.6381 H   0  0  0  0  0  0
  -27.6896  -18.2728   22.1329 H   0  0  0  0  0  0
  -27.9249  -16.0105   21.3763 H   0  0  0  0  0  0
  -29.1381  -15.9825   22.6475 H   0  0  0  0  0  0
  -31.2036  -17.8235   20.5860 H   0  0  0  0  0  0
  -30.4156  -17.4911   19.0569 H   0  0  0  0  0  0
  -28.2718  -18.3292   19.8834 H   0  0  0  0  0  0
  -29.1547  -24.3308   22.4315 H   0  0  0  0  0  0
  -29.7661  -22.8963   23.2485 H   0  0  0  0  0  0
  -28.0248  -23.1551   23.1029 H   0  0  0  0  0  0
  -26.5277  -19.3294   18.5398 H   0  0  0  0  0  0
  -26.7249  -19.1620   16.8064 H   0  0  0  0  0  0
  -26.3989  -20.7433   17.5176 H   0  0  0  0  0  0
  -26.8571  -24.5290   20.3889 H   0  0  0  0  0  0
  -27.6303  -24.7268   18.8376 H   0  0  0  0  0  0
  -28.9360  -19.0660   17.9252 H   0  0  0  0  0  0
  -28.7023  -21.4710   16.3181 H   0  0  0  0  0  0
  -28.9383  -19.9477   15.8162 H   0  0  0  0  0  0
  -30.0765  -20.6787   16.7012 H   0  0  0  0  0  0
  1 25  1  0  0  0
  1 30  2  0  0  0
  1 85  1  0  0  0
  2  3  1  0  0  0
  2 25  1  0  0  0
  2 87  1  0  0  0
  2 88  1  0  0  0
  3  4  1  0  0  0
  3 89  1  0  0  0
  3 90  1  0  0  0
  4  5  1  0  0  0
  4 91  1  0  0  0
  4 92  1  0  0  0
  5  6  1  0  0  0
  5 26  1  0  0  0
  5 93  1  0  0  0
  6 25  1  0  0  0
  6 94  1  0  0  0
  6 95  1  0  0  0
  7  8  2  0  0  0
  7 26  1  0  0  0
  7 29  1  0  0  0
  8  9  1  0  0  0
  8 22  1  0  0  0
  9 10  1  0  0  0
  9 27  2  0  0  0
 10 11  2  0  0  0
 10 15  1  0  0  0
 11 12  1  0  0  0
 11 96  1  0  0  0
 12 13  2  0  0  0
 12 97  1  0  0  0
 13 14  1  0  0  0
 13 31  1  0  0  0
 14 15  2  0  0  0
 14 98  1  0  0  0
 15 99  1  0  0  0
 16 17  2  0  0  0
 16 21  1  0  0  0
 16 31  1  0  0  0
 17 18  1  0  0  0
 17100  1  0  0  0
 18 19  2  0  0  0
 18101  1  0  0  0
 19 20  1  0  0  0
 19 24  1  0  0  0
 20 21  2  0  0  0
 20102  1  0  0  0
 21 23  1  0  0  0
 22 28  1  0  0  0
 22 32  2  0  0  0
 26 27  1  0  0  0
 28103  1  0  0  0
 28104  1  0  0  0
 29105  1  0  0  0
 29106  1  0  0  0
 33 34  1  0  0  0
 33 66  1  0  0  0
 33 70  2  0  0  0
 34 36  1  0  0  0
 34 59  1  0  0  0
 34107  1  0  0  0
 35 44  2  0  0  0
 35 45  1  0  0  0
 35 68  1  0  0  0
 36 56  1  0  0  0
 36108  1  0  0  0
 37 39  1  0  0  0
 37 47  1  0  0  0
 37 66  1  0  0  0
 37109  1  0  0  0
 38 43  2  0  0  0
 38 46  1  0  0  0
 38 47  1  0  0  0
 39 64  1  0  0  0
 39 67  2  0  0  0
 40 52  1  0  0  0
 40 53  2  0  0  0
 40 58  1  0  0  0
 41110  1  0  0  0
 41111  1  0  0  0
 41112  1  0  0  0
 41 48  1  0  0  0
 42 43  1  0  0  0
 42 66  1  0  0  0
 42113  1  0  0  0
 42114  1  0  0  0
 43 44  1  0  0  0
 44115  1  0  0  0
 45 46  2  0  0  0
 45116  1  0  0  0
 46117  1  0  0  0
 47118  1  0  0  0
 47119  1  0  0  0
 48 56  1  0  0  0
 48 65  1  0  0  0
 48120  1  0  0  0
 49 50  1  0  0  0
 49 53  1  0  0  0
 49 64  1  0  0  0
 49121  1  0  0  0
 50 51  1  0  0  0
 50122  1  0  0  0
 50123  1  0  0  0
 51 52  1  0  0  0
 51124  1  0  0  0
 51125  1  0  0  0
 52126  1  0  0  0
 52127  1  0  0  0
 53 54  1  0  0  0
 54 55  2  0  0  0
 54128  1  0  0  0
 55 57  1  0  0  0
 55129  1  0  0  0
 56 69  2  0  0  0
 57 58  2  0  0  0
 57130  1  0  0  0
 58131  1  0  0  0
 59 60  1  0  0  0
 59 61  1  0  0  0
 59 62  1  0  0  0
 60132  1  0  0  0
 60133  1  0  0  0
 60134  1  0  0  0
 61135  1  0  0  0
 61136  1  0  0  0
 61137  1  0  0  0
 62138  1  0  0  0
 62139  1  0  0  0
 62140  1  0  0  0
 63 65  1  0  0  0
 63141  1  0  0  0
 63142  1  0  0  0
 63143  1  0  0  0
 64144  1  0  0  0
 65145  1  0  0  0
 68 82  1  0  0  0
 71 72  2  0  0  0
 71 73  1  0  0  0
 71146  1  0  0  0
 72 74  1  0  0  0
 72 83  1  0  0  0
 73 75  2  0  0  0
 73 82  1  0  0  0
 74 84  2  0  0  0
 74 79  1  0  0  0
 75 80  1  0  0  0
 75 84  1  0  0  0
 76 77  1  0  0  0
 76 79  1  0  0  0
 76147  1  0  0  0
 76148  1  0  0  0
 77 85  1  0  0  0
 77149  1  0  0  0
 77150  1  0  0  0
 78 79  1  0  0  0
 78 85  1  0  0  0
 78151  1  0  0  0
 78152  1  0  0  0
 79153  1  0  0  0
 80154  1  0  0  0
 80155  1  0  0  0
 80156  1  0  0  0
 81157  1  0  0  0
 81158  1  0  0  0
 81159  1  0  0  0
 81 83  1  0  0  0
 82160  1  0  0  0
 82161  1  0  0  0
 83 86  1  0  0  0
 83162  1  0  0  0
 86163  1  0  0  0
 86164  1  0  0  0
 86165  1  0  0  0
M  CHG  1  86   1
M  ISO  4   1 100  68 101  82 101  85 100
M  END
> <chiral flag>
0

> <version>
0

> <s_m_source_file>
/data/baiqing/PycharmProjects/Reinvent-master-3.2/result/LINK_invent/BTK/process_docking_weight1_custom_sum_contain_oxygen_bond_distance_aromatic_linkinvent_7_9_3/rearranged_h_0169.sdf

> <i_m_source_file_index>
63

> <r_mmod_Potential_Energy-OPLS-2005>
322.445465087891

> <r_mmod_Stretch_Energy-OPLS-2005>
211.532196044922

> <r_mmod_Bend_Energy-OPLS-2005>
313.898132324219

> <r_mmod_Torsional_Energy-OPLS-2005>
318.714996337891

> <r_mmod_Improper_Torsional_Energy-OPLS-2005>
15.207405090332

> <r_mmod_Van_der_Waal_Energy-OPLS-2005>
137.781967163086

> <r_mmod_Electrostatic_Energy-OPLS-2005>
-327.443817138672

> <r_mmod_Solvation_Energy-OPLS-2005>
-510.88671875

> <b_mmod_Minimization_Converged-OPLS-2005>
0

> <r_mmod_RMS_Derivative-OPLS-2005>
3.55860018730164

$$$$
63
                    3D
 Structure written by MMmdl.
163172  0  0  1  0            999 V2000
  -30.6228  -14.8496   20.4408 C   0  0  0  0  0  0
  -30.4236  -12.5311   19.4785 C   0  0  0  0  0  0
  -29.5043  -12.5104   18.2393 C   0  0  0  0  0  0
  -28.0386  -12.3118   18.6652 C   0  0  0  0  0  0
  -27.6267  -13.2435   19.8352 C   0  0  2  0  0  0
  -28.6740  -13.2664   20.9680 C   0  0  0  0  0  0
  -25.2448  -13.8209   20.5722 C   0  0  0  0  0  0
  -24.1764  -13.0436   20.9243 C   0  0  0  0  0  0
  -24.6383  -11.6924   20.8772 C   0  0  0  0  0  0
  -23.9072  -10.4294   21.0417 C   0  0  0  0  0  0
  -24.3624   -9.4205   21.9189 C   0  0  0  0  0  0
  -23.6300   -8.2238   22.0751 C   0  0  0  0  0  0
  -22.4281   -8.0281   21.3539 C   0  0  0  0  0  0
  -21.9920   -9.0254   20.4641 C   0  0  0  0  0  0
  -22.7250  -10.2135   20.3058 C   0  0  0  0  0  0
  -21.6850   -6.0739   22.5279 C   0  0  0  0  0  0
  -21.4012   -6.5643   23.8213 C   0  0  0  0  0  0
  -21.3662   -5.6794   24.9176 C   0  0  0  0  0  0
  -21.6044   -4.3055   24.7223 C   0  0  0  0  0  0
  -21.8818   -3.8149   23.4343 C   0  0  0  0  0  0
  -21.9194   -4.6968   22.3402 C   0  0  0  0  0  0
  -22.7785  -13.5202   21.1903 C   0  0  0  0  0  0
  -22.1661   -4.2156   21.0977 F   0  0  0  0  0  0
  -21.5633   -3.4538   25.7733 F   0  0  0  0  0  0
  -29.9579  -13.6344   20.3603 N   0  0  0  0  0  0
  -26.2873  -12.9437   20.3265 N   0  0  0  0  0  0
  -25.9313  -11.6571   20.5764 N   0  0  0  0  0  0
  -22.0442  -12.8177   22.0454 N   0  0  0  0  0  0
  -25.4111  -15.1933   20.4135 N   0  0  0  0  0  0
  -31.8338  -14.8551   20.1979 O   0  0  0  0  0  0
  -21.6642   -6.8882   21.4240 O   0  0  0  0  0  0
  -22.3465  -14.5513   20.6763 O   0  0  0  0  0  0
  -24.6389  -31.8496   23.1934 C   0  0  0  0  0  0
  -25.9184  -32.4730   23.8305 C   0  0  1  0  0  0
  -27.2126  -27.1858   20.1385 C   0  0  0  0  0  0
  -25.5955  -33.8535   24.2222 N   0  0  0  0  0  0
  -23.4397  -30.4728   21.5378 C   0  0  2  0  0  0
  -24.8875  -28.9125   20.1103 C   0  0  0  0  0  0
  -22.7546  -29.4579   22.4869 C   0  0  0  0  0  0
  -18.0302  -28.1403   22.8486 C   0  0  0  0  0  0
  -24.1487  -36.7260   23.2644 C   0  0  0  0  0  0
  -25.9939  -30.7399   21.3852 C   0  0  0  0  0  0
  -26.0651  -29.3569   20.7244 C   0  0  0  0  0  0
  -27.2313  -28.5098   20.7217 C   0  0  0  0  0  0
  -26.0072  -26.8343   19.4887 C   0  0  0  0  0  0
  -24.8689  -27.6626   19.4781 C   0  0  0  0  0  0
  -23.6634  -29.8092   20.1547 C   0  0  0  0  0  0
  -25.4117  -36.3049   24.0324 C   0  0  1  0  0  0
  -20.5914  -28.3717   23.1247 C   0  0  2  0  0  0
  -20.6787  -26.9424   22.5406 C   0  0  0  0  0  0
  -19.5759  -26.6384   21.5219 C   0  0  0  0  0  0
  -18.1940  -26.7946   22.1625 C   0  0  0  0  0  0
  -19.1560  -28.8877   23.2864 C   0  0  0  0  0  0
  -18.9480  -30.1475   23.8887 C   0  0  0  0  0  0
  -17.6478  -30.6600   24.0564 C   0  0  0  0  0  0
  -25.9065  -34.9427   23.5073 C   0  0  0  0  0  0
  -16.5366  -29.9098   23.6339 C   0  0  0  0  0  0
  -16.7290  -28.6514   23.0359 C   0  0  0  0  0  0
  -26.4518  -31.6583   25.0726 C   0  0  0  0  0  0
  -25.3716  -31.3759   26.1430 C   0  0  0  0  0  0
  -27.0379  -30.2989   24.6267 C   0  0  0  0  0  0
  -27.6054  -32.4344   25.7510 C   0  0  0  0  0  0
  -27.5574  -37.1786   24.8467 C   0  0  0  0  0  0
  -21.4242  -29.3058   22.3627 N   0  0  0  0  0  0
  -26.4281  -37.3759   23.9418 N   0  0  0  0  0  0
  -24.7105  -31.0401   22.0943 N   0  0  0  0  0  0
  -23.4220  -28.8111   23.2981 O   0  0  0  0  0  0
  -28.2728  -26.2221   20.1971 O   0  0  0  0  0  0
  -26.5640  -34.8915   22.4643 O   0  0  0  0  0  0
  -23.5516  -32.1348   23.7180 O   0  0  0  0  0  0
  -30.5518  -18.6239   21.3641 C   0  0  0  0  0  0
  -29.0663  -18.3389   19.5147 C   0  0  0  0  0  0
  -29.7071  -22.9375   19.0953 C   0  0  0  0  0  0
  -30.4637  -17.0661   21.7182 C   0  0  0  0  0  0
  -28.9417  -16.7595   19.8349 C   0  0  0  0  0  0
  -29.9552  -21.3812   19.1645 C   0  0  0  0  0  0
  -28.9610  -23.4188   20.3701 C   0  0  2  0  0  0
  -29.3041  -19.3281   20.7207 C   0  0  0  0  0  0
  -28.4505  -21.9578   20.8685 C   0  0  2  0  0  0
  -28.1484  -21.9463   22.3759 C   0  0  0  0  0  0
  -27.9397  -24.7191   20.1857 C   0  0  0  0  0  0
  -29.9636  -16.0778   20.7043 N   0  0  0  0  0  0
  -29.4799  -20.8844   20.4789 N   0  3  2  0  0  0
  -31.4612  -12.6571   19.1651 H   0  0  0  0  0  0
  -30.3856  -11.5764   20.0060 H   0  0  0  0  0  0
  -29.8057  -11.7149   17.5566 H   0  0  0  0  0  0
  -29.6053  -13.4457   17.6862 H   0  0  0  0  0  0
  -27.9265  -11.2706   18.9693 H   0  0  0  0  0  0
  -27.3716  -12.4527   17.8140 H   0  0  0  0  0  0
  -27.5893  -14.2446   19.4081 H   0  0  0  0  0  0
  -28.7401  -12.2983   21.4663 H   0  0  0  0  0  0
  -28.3917  -13.9932   21.7318 H   0  0  0  0  0  0
  -25.2765   -9.5683   22.4770 H   0  0  0  0  0  0
  -24.0011   -7.4622   22.7460 H   0  0  0  0  0  0
  -21.0856   -8.8773   19.8935 H   0  0  0  0  0  0
  -22.3710  -10.9677   19.6171 H   0  0  0  0  0  0
  -21.1998   -7.6151   23.9722 H   0  0  0  0  0  0
  -21.1487   -6.0521   25.9079 H   0  0  0  0  0  0
  -22.0594   -2.7612   23.2839 H   0  0  0  0  0  0
  -22.4066  -11.9830   22.4822 H   0  0  0  0  0  0
  -21.1056  -13.1178   22.2676 H   0  0  0  0  0  0
  -24.6421  -15.8455   20.5239 H   0  0  0  0  0  0
  -26.2614  -15.6328   20.0879 H   0  0  0  0  0  0
  -26.7249  -32.5344   23.1038 H   0  0  0  0  0  0
  -25.0109  -33.9666   25.0370 H   0  0  0  0  0  0
  -22.7400  -31.2973   21.3874 H   0  0  0  0  0  0
  -23.3760  -35.9582   23.3294 H   0  0  0  0  0  0
  -24.3571  -36.8896   22.2060 H   0  0  0  0  0  0
  -23.7230  -37.6449   23.6680 H   0  0  0  0  0  0
  -26.1438  -31.4984   20.6156 H   0  0  0  0  0  0
  -26.8677  -30.7887   22.0236 H   0  0  0  0  0  0
  -28.1297  -28.8467   21.2200 H   0  0  0  0  0  0
  -25.8984  -25.8868   18.9877 H   0  0  0  0  0  0
  -23.9700  -27.3188   18.9853 H   0  0  0  0  0  0
  -23.7979  -30.5876   19.4025 H   0  0  0  0  0  0
  -22.7801  -29.2501   19.8413 H   0  0  0  0  0  0
  -25.1295  -36.1882   25.0815 H   0  0  0  0  0  0
  -21.0011  -28.3305   24.1365 H   0  0  0  0  0  0
  -20.5687  -26.2329   23.3620 H   0  0  0  0  0  0
  -21.6650  -26.7441   22.1192 H   0  0  0  0  0  0
  -19.6917  -25.6291   21.1258 H   0  0  0  0  0  0
  -19.6704  -27.3186   20.6744 H   0  0  0  0  0  0
  -17.4210  -26.6710   21.4025 H   0  0  0  0  0  0
  -18.0324  -26.0090   22.9018 H   0  0  0  0  0  0
  -19.7954  -30.7295   24.2251 H   0  0  0  0  0  0
  -17.5031  -31.6282   24.5165 H   0  0  0  0  0  0
  -15.5367  -30.2998   23.7675 H   0  0  0  0  0  0
  -15.8686  -28.0833   22.7083 H   0  0  0  0  0  0
  -24.5924  -30.7067   25.7761 H   0  0  0  0  0  0
  -24.8866  -32.2934   26.4779 H   0  0  0  0  0  0
  -25.8014  -30.9005   27.0256 H   0  0  0  0  0  0
  -26.2986  -29.6726   24.1260 H   0  0  0  0  0  0
  -27.4006  -29.7268   25.4815 H   0  0  0  0  0  0
  -27.8885  -30.4245   23.9564 H   0  0  0  0  0  0
  -27.2655  -33.3676   26.2016 H   0  0  0  0  0  0
  -28.3908  -32.6857   25.0369 H   0  0  0  0  0  0
  -28.0672  -31.8513   26.5489 H   0  0  0  0  0  0
  -28.2576  -38.0096   24.7513 H   0  0  0  0  0  0
  -28.1081  -36.2623   24.6283 H   0  0  0  0  0  0
  -27.2289  -37.1413   25.8868 H   0  0  0  0  0  0
  -20.9436  -29.8805   21.6847 H   0  0  0  0  0  0
  -26.0148  -38.2823   24.1437 H   0  0  0  0  0  0
  -31.4065  -18.7662   20.7009 H   0  0  0  0  0  0
  -30.8145  -19.1558   22.2792 H   0  0  0  0  0  0
  -28.1660  -18.6513   18.9842 H   0  0  0  0  0  0
  -29.8781  -18.4643   18.7972 H   0  0  0  0  0  0
  -29.1180  -23.1626   18.2054 H   0  0  0  0  0  0
  -30.6482  -23.4768   18.9809 H   0  0  0  0  0  0
  -29.8093  -16.9601   22.5840 H   0  0  0  0  0  0
  -31.4454  -16.7456   22.0720 H   0  0  0  0  0  0
  -28.8826  -16.2223   18.8872 H   0  0  0  0  0  0
  -27.9812  -16.5960   20.3222 H   0  0  0  0  0  0
  -31.0058  -21.1290   19.0157 H   0  0  0  0  0  0
  -29.3911  -20.8935   18.3689 H   0  0  0  0  0  0
  -29.7170  -23.7320   21.0914 H   0  0  0  0  0  0
  -28.4715  -19.2114   21.4147 H   0  0  0  0  0  0
  -27.5296  -21.7220   20.3316 H   0  0  0  0  0  0
  -29.0453  -22.1293   22.9683 H   0  0  0  0  0  0
  -27.7242  -20.9952   22.6954 H   0  0  0  0  0  0
  -27.4240  -22.7199   22.6306 H   0  0  0  0  0  0
  -27.1820  -24.6059   20.9626 H   0  0  0  0  0  0
  -27.4204  -24.5104   19.2524 H   0  0  0  0  0  0
  -30.2473  -21.1034   21.0960 H   0  0  0  0  0  0
  1 25  1  0  0  0
  1 30  2  0  0  0
  1 82  1  0  0  0
  2  3  1  0  0  0
  2 25  1  0  0  0
  2 84  1  0  0  0
  2 85  1  0  0  0
  3  4  1  0  0  0
  3 86  1  0  0  0
  3 87  1  0  0  0
  4  5  1  0  0  0
  4 88  1  0  0  0
  4 89  1  0  0  0
  5  6  1  0  0  0
  5 26  1  0  0  0
  5 90  1  0  0  0
  6 25  1  0  0  0
  6 91  1  0  0  0
  6 92  1  0  0  0
  7  8  2  0  0  0
  7 26  1  0  0  0
  7 29  1  0  0  0
  8  9  1  0  0  0
  8 22  1  0  0  0
  9 10  1  0  0  0
  9 27  2  0  0  0
 10 11  2  0  0  0
 10 15  1  0  0  0
 11 12  1  0  0  0
 11 93  1  0  0  0
 12 13  2  0  0  0
 12 94  1  0  0  0
 13 14  1  0  0  0
 13 31  1  0  0  0
 14 15  2  0  0  0
 14 95  1  0  0  0
 15 96  1  0  0  0
 16 17  2  0  0  0
 16 21  1  0  0  0
 16 31  1  0  0  0
 17 18  1  0  0  0
 17 97  1  0  0  0
 18 19  2  0  0  0
 18 98  1  0  0  0
 19 20  1  0  0  0
 19 24  1  0  0  0
 20 21  2  0  0  0
 20 99  1  0  0  0
 21 23  1  0  0  0
 22 28  1  0  0  0
 22 32  2  0  0  0
 26 27  1  0  0  0
 28100  1  0  0  0
 28101  1  0  0  0
 29102  1  0  0  0
 29103  1  0  0  0
 33 34  1  0  0  0
 33 66  1  0  0  0
 33 70  2  0  0  0
 34 36  1  0  0  0
 34 59  1  0  0  0
 34104  1  0  0  0
 35 44  2  0  0  0
 35 45  1  0  0  0
 35 68  1  0  0  0
 36 56  1  0  0  0
 36105  1  0  0  0
 37 39  1  0  0  0
 37 47  1  0  0  0
 37 66  1  0  0  0
 37106  1  0  0  0
 38 43  2  0  0  0
 38 46  1  0  0  0
 38 47  1  0  0  0
 39 64  1  0  0  0
 39 67  2  0  0  0
 40 52  1  0  0  0
 40 53  2  0  0  0
 40 58  1  0  0  0
 41107  1  0  0  0
 41108  1  0  0  0
 41109  1  0  0  0
 41 48  1  0  0  0
 42 43  1  0  0  0
 42 66  1  0  0  0
 42110  1  0  0  0
 42111  1  0  0  0
 43 44  1  0  0  0
 44112  1  0  0  0
 45 46  2  0  0  0
 45113  1  0  0  0
 46114  1  0  0  0
 47115  1  0  0  0
 47116  1  0  0  0
 48 56  1  0  0  0
 48 65  1  0  0  0
 48117  1  0  0  0
 49 50  1  0  0  0
 49 53  1  0  0  0
 49 64  1  0  0  0
 49118  1  0  0  0
 50 51  1  0  0  0
 50119  1  0  0  0
 50120  1  0  0  0
 51 52  1  0  0  0
 51121  1  0  0  0
 51122  1  0  0  0
 52123  1  0  0  0
 52124  1  0  0  0
 53 54  1  0  0  0
 54 55  2  0  0  0
 54125  1  0  0  0
 55 57  1  0  0  0
 55126  1  0  0  0
 56 69  2  0  0  0
 57 58  2  0  0  0
 57127  1  0  0  0
 58128  1  0  0  0
 59 60  1  0  0  0
 59 61  1  0  0  0
 59 62  1  0  0  0
 60129  1  0  0  0
 60130  1  0  0  0
 60131  1  0  0  0
 61132  1  0  0  0
 61133  1  0  0  0
 61134  1  0  0  0
 62135  1  0  0  0
 62136  1  0  0  0
 62137  1  0  0  0
 63 65  1  0  0  0
 63138  1  0  0  0
 63139  1  0  0  0
 63140  1  0  0  0
 64141  1  0  0  0
 65142  1  0  0  0
 68 81  1  0  0  0
 71 74  1  0  0  0
 71143  1  0  0  0
 71144  1  0  0  0
 71 78  1  0  0  0
 72 75  1  0  0  0
 72 78  1  0  0  0
 72145  1  0  0  0
 72146  1  0  0  0
 73 76  1  0  0  0
 73 77  1  0  0  0
 73147  1  0  0  0
 73148  1  0  0  0
 74 82  1  0  0  0
 74149  1  0  0  0
 74150  1  0  0  0
 75 82  1  0  0  0
 75151  1  0  0  0
 75152  1  0  0  0
 76153  1  0  0  0
 76154  1  0  0  0
 76 83  1  0  0  0
 77 79  1  0  0  0
 77 81  1  0  0  0
 77155  1  0  0  0
 78 83  1  0  0  0
 78156  1  0  0  0
 79 80  1  0  0  0
 79 83  1  0  0  0
 79157  1  0  0  0
 80158  1  0  0  0
 80159  1  0  0  0
 80160  1  0  0  0
 81161  1  0  0  0
 81162  1  0  0  0
 83163  1  0  0  0
M  CHG  1  83   1
M  ISO  4   1 100  68 101  81 101  82 100
M  END
> <chiral flag>
0

> <version>
0

> <s_m_source_file>
/data/baiqing/PycharmProjects/Reinvent-master-3.2/result/LINK_invent/BTK/process_docking_weight1_custom_sum_contain_oxygen_bond_distance_aromatic_linkinvent_7_9_3/rearranged_h_0169.sdf

> <i_m_source_file_index>
64

> <r_mmod_Potential_Energy-OPLS-2005>
562.008850097656

> <r_mmod_Stretch_Energy-OPLS-2005>
178.724411010742

> <r_mmod_Bend_Energy-OPLS-2005>
275.702514648438

> <r_mmod_Torsional_Energy-OPLS-2005>
412.543273925781

> <r_mmod_Improper_Torsional_Energy-OPLS-2005>
2.58707976341248

> <r_mmod_Van_der_Waal_Energy-OPLS-2005>
112.245635986328

> <r_mmod_Electrostatic_Energy-OPLS-2005>
-130.44596862793

> <r_mmod_Solvation_Energy-OPLS-2005>
-431.931274414062

> <b_mmod_Minimization_Converged-OPLS-2005>
0

> <r_mmod_RMS_Derivative-OPLS-2005>
0.85851526260376

$$$$
64
                    3D
 Structure written by MMmdl.
173182  0  0  1  0            999 V2000
  -30.7517  -14.4967   20.4902 C   0  0  0  0  0  0
  -30.4031  -12.3088   19.4391 C   0  0  0  0  0  0
  -29.4922  -12.4708   18.2081 C   0  0  0  0  0  0
  -28.0162  -12.3334   18.6265 C   0  0  0  0  0  0
  -27.6485  -13.2213   19.8485 C   0  0  2  0  0  0
  -28.6956  -13.1056   20.9787 C   0  0  0  0  0  0
  -25.2529  -13.8187   20.5667 C   0  0  0  0  0  0
  -24.1815  -13.0449   20.9187 C   0  0  0  0  0  0
  -24.6384  -11.6920   20.8736 C   0  0  0  0  0  0
  -23.9071  -10.4290   21.0390 C   0  0  0  0  0  0
  -24.3623   -9.4196   21.9164 C   0  0  0  0  0  0
  -23.6291   -8.2237   22.0741 C   0  0  0  0  0  0
  -22.4272   -8.0271   21.3533 C   0  0  0  0  0  0
  -21.9912   -9.0250   20.4646 C   0  0  0  0  0  0
  -22.7236  -10.2123   20.3042 C   0  0  0  0  0  0
  -21.6853   -6.0730   22.5273 C   0  0  0  0  0  0
  -21.4025   -6.5631   23.8207 C   0  0  0  0  0  0
  -21.3659   -5.6770   24.9171 C   0  0  0  0  0  0
  -21.6044   -4.3039   24.7216 C   0  0  0  0  0  0
  -21.8821   -3.8138   23.4332 C   0  0  0  0  0  0
  -21.9191   -4.6956   22.3396 C   0  0  0  0  0  0
  -22.7823  -13.5230   21.1842 C   0  0  0  0  0  0
  -22.1647   -4.2139   21.0971 F   0  0  0  0  0  0
  -21.5635   -3.4520   25.7730 F   0  0  0  0  0  0
  -30.0163  -13.3580   20.3944 N   0  0  0  0  0  0
  -26.2967  -12.9389   20.3283 N   0  0  0  0  0  0
  -25.9319  -11.6535   20.5763 N   0  0  0  0  0  0
  -22.0467  -12.8245   22.0398 N   0  0  0  0  0  0
  -25.4212  -15.1918   20.4077 N   0  0  0  0  0  0
  -31.9620  -14.4912   20.2742 O   0  0  0  0  0  0
  -21.6631   -6.8871   21.4229 O   0  0  0  0  0  0
  -22.3503  -14.5512   20.6646 O   0  0  0  0  0  0
  -24.6210  -31.8689   23.2112 C   0  0  0  0  0  0
  -25.9095  -32.4823   23.8406 C   0  0  1  0  0  0
  -27.1983  -27.3783   20.0755 C   0  0  0  0  0  0
  -25.5944  -33.8628   24.2317 N   0  0  0  0  0  0
  -23.4086  -30.5002   21.5561 C   0  0  2  0  0  0
  -24.8425  -28.9694   20.1177 C   0  0  0  0  0  0
  -22.7433  -29.4711   22.4994 C   0  0  0  0  0  0
  -18.0281  -28.1375   22.8499 C   0  0  0  0  0  0
  -24.1502  -36.7301   23.2635 C   0  0  0  0  0  0
  -25.9499  -30.8104   21.3799 C   0  0  0  0  0  0
  -26.0169  -29.4476   20.7124 C   0  0  0  0  0  0
  -27.2004  -28.6602   20.6908 C   0  0  0  0  0  0
  -25.9971  -26.9540   19.4509 C   0  0  0  0  0  0
  -24.8283  -27.7215   19.4878 C   0  0  0  0  0  0
  -23.6146  -29.8447   20.1689 C   0  0  0  0  0  0
  -25.4126  -36.3110   24.0331 C   0  0  1  0  0  0
  -20.5877  -28.3687   23.1282 C   0  0  2  0  0  0
  -20.6772  -26.9423   22.5391 C   0  0  0  0  0  0
  -19.5746  -26.6384   21.5205 C   0  0  0  0  0  0
  -18.1928  -26.7927   22.1623 C   0  0  0  0  0  0
  -19.1529  -28.8850   23.2887 C   0  0  0  0  0  0
  -18.9457  -30.1451   23.8905 C   0  0  0  0  0  0
  -17.6470  -30.6591   24.0576 C   0  0  0  0  0  0
  -25.9066  -34.9471   23.5112 C   0  0  0  0  0  0
  -16.5354  -29.9091   23.6328 C   0  0  0  0  0  0
  -16.7264  -28.6495   23.0362 C   0  0  0  0  0  0
  -26.4489  -31.6615   25.0760 C   0  0  0  0  0  0
  -25.3713  -31.3764   26.1484 C   0  0  0  0  0  0
  -27.0308  -30.3028   24.6201 C   0  0  0  0  0  0
  -27.6056  -32.4342   25.7512 C   0  0  0  0  0  0
  -27.5589  -37.1806   24.8469 C   0  0  0  0  0  0
  -21.4164  -29.3065   22.3710 N   0  0  0  0  0  0
  -26.4302  -37.3793   23.9402 N   0  0  0  0  0  0
  -24.6784  -31.0746   22.1044 N   0  0  0  0  0  0
  -23.4179  -28.8225   23.3033 O   0  0  0  0  0  0
  -28.3167  -26.5457   20.1037 O   0  0  0  0  0  0
  -26.5616  -34.8920   22.4668 O   0  0  0  0  0  0
  -23.5380  -32.1491   23.7457 O   0  0  0  0  0  0
  -30.0005  -18.4508   21.7638 C   0  0  0  0  0  0
  -31.2382  -17.5509   21.7019 C   0  0  0  0  0  0
  -31.6651  -17.0651   19.1122 C   0  0  0  0  0  0
  -29.8580  -18.2799   20.2474 C   0  0  1  0  0  0
  -30.5754  -19.2473   19.2629 C   0  0  1  0  0  0
  -30.7455  -17.0104   20.3413 C   0  0  2  0  0  0
  -31.1955  -18.2428   18.2252 C   0  0  0  0  0  0
  -30.1425  -17.6743   17.2379 C   0  0  0  0  0  0
  -32.4393  -18.7405   17.4549 C   0  0  0  0  0  0
  -30.3276  -21.1341   17.4706 C   0  0  0  0  0  0
  -28.6742  -22.6615   19.6112 C   0  0  0  0  0  0
  -28.0380  -25.1419   19.8264 C   0  0  0  0  0  0
  -29.7516  -20.5080   18.7643 C   0  0  2  0  0  0
  -29.1288  -24.0739   20.1143 C   0  0  1  0  0  0
  -30.0846  -15.6803   20.5371 N   0  0  0  0  0  0
  -29.6960  -21.5875   19.8012 N   0  3  0  0  0  0
  -29.3044  -23.9812   21.5176 O   0  0  0  0  0  0
  -31.4501  -12.3706   19.1383 H   0  0  0  0  0  0
  -30.2809  -11.3221   19.8888 H   0  0  0  0  0  0
  -29.7421  -11.7207   17.4561 H   0  0  0  0  0  0
  -29.6558  -13.4438   17.7421 H   0  0  0  0  0  0
  -27.8451  -11.2833   18.8668 H   0  0  0  0  0  0
  -27.3620  -12.5578   17.7831 H   0  0  0  0  0  0
  -27.6625  -14.2510   19.4894 H   0  0  0  0  0  0
  -28.6700  -12.1138   21.4324 H   0  0  0  0  0  0
  -28.4810  -13.8127   21.7798 H   0  0  0  0  0  0
  -25.2777   -9.5663   22.4726 H   0  0  0  0  0  0
  -23.9997   -7.4631   22.7462 H   0  0  0  0  0  0
  -21.0842   -8.8775   19.8963 H   0  0  0  0  0  0
  -22.3700  -10.9660   19.6150 H   0  0  0  0  0  0
  -21.2015   -7.6138   23.9716 H   0  0  0  0  0  0
  -21.1483   -6.0501   25.9075 H   0  0  0  0  0  0
  -22.0605   -2.7599   23.2835 H   0  0  0  0  0  0
  -22.4100  -11.9953   22.4868 H   0  0  0  0  0  0
  -21.1073  -13.1264   22.2567 H   0  0  0  0  0  0
  -24.6543  -15.8445   20.5246 H   0  0  0  0  0  0
  -26.2708  -15.6346   20.0813 H   0  0  0  0  0  0
  -26.7172  -32.5515   23.1166 H   0  0  0  0  0  0
  -25.0125  -33.9823   25.0485 H   0  0  0  0  0  0
  -22.7004  -31.3207   21.4190 H   0  0  0  0  0  0
  -23.3772  -35.9628   23.3319 H   0  0  0  0  0  0
  -24.3602  -36.8886   22.2041 H   0  0  0  0  0  0
  -23.7233  -37.6499   23.6645 H   0  0  0  0  0  0
  -26.0920  -31.5784   20.6187 H   0  0  0  0  0  0
  -26.8286  -30.8420   22.0126 H   0  0  0  0  0  0
  -28.1006  -29.0207   21.1681 H   0  0  0  0  0  0
  -25.9070  -26.0139   18.9288 H   0  0  0  0  0  0
  -23.9240  -27.3511   19.0243 H   0  0  0  0  0  0
  -23.7377  -30.6216   19.4142 H   0  0  0  0  0  0
  -22.7340  -29.2752   19.8660 H   0  0  0  0  0  0
  -25.1301  -36.1980   25.0820 H   0  0  0  0  0  0
  -20.9979  -28.3254   24.1402 H   0  0  0  0  0  0
  -20.5657  -26.2331   23.3595 H   0  0  0  0  0  0
  -21.6646  -26.7464   22.1201 H   0  0  0  0  0  0
  -19.6917  -25.6287   21.1247 H   0  0  0  0  0  0
  -19.6662  -27.3183   20.6723 H   0  0  0  0  0  0
  -17.4197  -26.6691   21.4019 H   0  0  0  0  0  0
  -18.0338  -26.0042   22.8991 H   0  0  0  0  0  0
  -19.7934  -30.7269   24.2284 H   0  0  0  0  0  0
  -17.5016  -31.6274   24.5167 H   0  0  0  0  0  0
  -15.5350  -30.2999   23.7647 H   0  0  0  0  0  0
  -15.8673  -28.0813   22.7091 H   0  0  0  0  0  0
  -24.5888  -30.7120   25.7815 H   0  0  0  0  0  0
  -24.8918  -32.2942   26.4893 H   0  0  0  0  0  0
  -25.8015  -30.8943   27.0272 H   0  0  0  0  0  0
  -26.2878  -29.6798   24.1214 H   0  0  0  0  0  0
  -27.3992  -29.7265   25.4699 H   0  0  0  0  0  0
  -27.8763  -30.4313   23.9437 H   0  0  0  0  0  0
  -27.2687  -33.3654   26.2081 H   0  0  0  0  0  0
  -28.3851  -32.6885   25.0315 H   0  0  0  0  0  0
  -28.0752  -31.8483   26.5417 H   0  0  0  0  0  0
  -28.2616  -38.0099   24.7515 H   0  0  0  0  0  0
  -28.1070  -36.2621   24.6303 H   0  0  0  0  0  0
  -27.2318  -37.1465   25.8879 H   0  0  0  0  0  0
  -20.9348  -29.8782   21.6914 H   0  0  0  0  0  0
  -26.0194  -38.2877   24.1380 H   0  0  0  0  0  0
  -30.2003  -19.4688   22.1002 H   0  0  0  0  0  0
  -29.1737  -18.0015   22.3167 H   0  0  0  0  0  0
  -31.2952  -16.8239   22.5137 H   0  0  0  0  0  0
  -32.1674  -18.1183   21.6256 H   0  0  0  0  0  0
  -31.6867  -16.1540   18.5142 H   0  0  0  0  0  0
  -32.6918  -17.2164   19.4508 H   0  0  0  0  0  0
  -28.8348  -18.0451   19.9471 H   0  0  0  0  0  0
  -31.4402  -19.6642   19.7829 H   0  0  0  0  0  0
  -29.3780  -17.0928   17.7542 H   0  0  0  0  0  0
  -30.6052  -17.0021   16.5146 H   0  0  0  0  0  0
  -29.6222  -18.4405   16.6701 H   0  0  0  0  0  0
  -33.1850  -19.1669   18.1262 H   0  0  0  0  0  0
  -32.2182  -19.4758   16.6886 H   0  0  0  0  0  0
  -32.9218  -17.9111   16.9373 H   0  0  0  0  0  0
  -30.2683  -20.4660   16.6170 H   0  0  0  0  0  0
  -31.3718  -21.4186   17.6011 H   0  0  0  0  0  0
  -29.7954  -22.0252   17.1453 H   0  0  0  0  0  0
  -28.3791  -22.7387   18.5661 H   0  0  0  0  0  0
  -27.7640  -22.3500   20.1258 H   0  0  0  0  0  0
  -27.8301  -25.0721   18.7569 H   0  0  0  0  0  0
  -27.1363  -24.8216   20.3544 H   0  0  0  0  0  0
  -28.7322  -20.1788   18.5593 H   0  0  0  0  0  0
  -30.0602  -24.3736   19.6326 H   0  0  0  0  0  0
  -29.0828  -15.6500   20.6602 H   0  0  0  0  0  0
  -29.5205  -21.1799   20.7053 H   0  0  0  0  0  0
  -30.5986  -22.0300   19.8562 H   0  0  0  0  0  0
  -29.3280  -24.8748   21.8497 H   0  0  0  0  0  0
  1 25  1  0  0  0
  1 30  2  0  0  0
  1 85  1  0  0  0
  2  3  1  0  0  0
  2 25  1  0  0  0
  2 88  1  0  0  0
  2 89  1  0  0  0
  3  4  1  0  0  0
  3 90  1  0  0  0
  3 91  1  0  0  0
  4  5  1  0  0  0
  4 92  1  0  0  0
  4 93  1  0  0  0
  5  6  1  0  0  0
  5 26  1  0  0  0
  5 94  1  0  0  0
  6 25  1  0  0  0
  6 95  1  0  0  0
  6 96  1  0  0  0
  7  8  2  0  0  0
  7 26  1  0  0  0
  7 29  1  0  0  0
  8  9  1  0  0  0
  8 22  1  0  0  0
  9 10  1  0  0  0
  9 27  2  0  0  0
 10 11  2  0  0  0
 10 15  1  0  0  0
 11 12  1  0  0  0
 11 97  1  0  0  0
 12 13  2  0  0  0
 12 98  1  0  0  0
 13 14  1  0  0  0
 13 31  1  0  0  0
 14 15  2  0  0  0
 14 99  1  0  0  0
 15100  1  0  0  0
 16 17  2  0  0  0
 16 21  1  0  0  0
 16 31  1  0  0  0
 17 18  1  0  0  0
 17101  1  0  0  0
 18 19  2  0  0  0
 18102  1  0  0  0
 19 20  1  0  0  0
 19 24  1  0  0  0
 20 21  2  0  0  0
 20103  1  0  0  0
 21 23  1  0  0  0
 22 28  1  0  0  0
 22 32  2  0  0  0
 26 27  1  0  0  0
 28104  1  0  0  0
 28105  1  0  0  0
 29106  1  0  0  0
 29107  1  0  0  0
 33 34  1  0  0  0
 33 66  1  0  0  0
 33 70  2  0  0  0
 34 36  1  0  0  0
 34 59  1  0  0  0
 34108  1  0  0  0
 35 44  2  0  0  0
 35 45  1  0  0  0
 35 68  1  0  0  0
 36 56  1  0  0  0
 36109  1  0  0  0
 37 39  1  0  0  0
 37 47  1  0  0  0
 37 66  1  0  0  0
 37110  1  0  0  0
 38 43  2  0  0  0
 38 46  1  0  0  0
 38 47  1  0  0  0
 39 64  1  0  0  0
 39 67  2  0  0  0
 40 52  1  0  0  0
 40 53  2  0  0  0
 40 58  1  0  0  0
 41111  1  0  0  0
 41112  1  0  0  0
 41113  1  0  0  0
 41 48  1  0  0  0
 42 43  1  0  0  0
 42 66  1  0  0  0
 42114  1  0  0  0
 42115  1  0  0  0
 43 44  1  0  0  0
 44116  1  0  0  0
 45 46  2  0  0  0
 45117  1  0  0  0
 46118  1  0  0  0
 47119  1  0  0  0
 47120  1  0  0  0
 48 56  1  0  0  0
 48 65  1  0  0  0
 48121  1  0  0  0
 49 50  1  0  0  0
 49 53  1  0  0  0
 49 64  1  0  0  0
 49122  1  0  0  0
 50 51  1  0  0  0
 50123  1  0  0  0
 50124  1  0  0  0
 51 52  1  0  0  0
 51125  1  0  0  0
 51126  1  0  0  0
 52127  1  0  0  0
 52128  1  0  0  0
 53 54  1  0  0  0
 54 55  2  0  0  0
 54129  1  0  0  0
 55 57  1  0  0  0
 55130  1  0  0  0
 56 69  2  0  0  0
 57 58  2  0  0  0
 57131  1  0  0  0
 58132  1  0  0  0
 59 60  1  0  0  0
 59 61  1  0  0  0
 59 62  1  0  0  0
 60133  1  0  0  0
 60134  1  0  0  0
 60135  1  0  0  0
 61136  1  0  0  0
 61137  1  0  0  0
 61138  1  0  0  0
 62139  1  0  0  0
 62140  1  0  0  0
 62141  1  0  0  0
 63 65  1  0  0  0
 63142  1  0  0  0
 63143  1  0  0  0
 63144  1  0  0  0
 64145  1  0  0  0
 65146  1  0  0  0
 68 82  1  0  0  0
 71 72  1  0  0  0
 71147  1  0  0  0
 71148  1  0  0  0
 71 74  1  0  0  0
 72 76  1  0  0  0
 72149  1  0  0  0
 72150  1  0  0  0
 73 76  1  0  0  0
 73 77  1  0  0  0
 73151  1  0  0  0
 73152  1  0  0  0
 74 75  1  0  0  0
 74 76  1  0  0  0
 74153  1  0  0  0
 75 77  1  0  0  0
 75 83  1  0  0  0
 75154  1  0  0  0
 76 85  1  0  0  0
 77 78  1  0  0  0
 77 79  1  0  0  0
 78155  1  0  0  0
 78156  1  0  0  0
 78157  1  0  0  0
 79158  1  0  0  0
 79159  1  0  0  0
 79160  1  0  0  0
 80161  1  0  0  0
 80162  1  0  0  0
 80163  1  0  0  0
 80 83  1  0  0  0
 81 84  1  0  0  0
 81 86  1  0  0  0
 81164  1  0  0  0
 81165  1  0  0  0
 82 84  1  0  0  0
 82166  1  0  0  0
 82167  1  0  0  0
 83 86  1  0  0  0
 83168  1  0  0  0
 84 87  1  0  0  0
 84169  1  0  0  0
 85170  1  0  0  0
 86171  1  0  0  0
 86172  1  0  0  0
 87173  1  0  0  0
M  CHG  1  86   1
M  ISO  4   1 100  68 101  82 101  85 100
M  END
> <chiral flag>
0

> <version>
0

> <s_m_source_file>
/data/baiqing/PycharmProjects/Reinvent-master-3.2/result/LINK_invent/BTK/process_docking_weight1_custom_sum_contain_oxygen_bond_distance_aromatic_linkinvent_7_9_3/rearranged_h_0169.sdf

> <i_m_source_file_index>
65

> <r_mmod_Potential_Energy-OPLS-2005>
29.2950115203857

> <r_mmod_Stretch_Energy-OPLS-2005>
54.3376655578613

> <r_mmod_Bend_Energy-OPLS-2005>
192.588043212891

> <r_mmod_Torsional_Energy-OPLS-2005>
333.172485351562

> <r_mmod_Improper_Torsional_Energy-OPLS-2005>
6.77777290344238

> <r_mmod_Van_der_Waal_Energy-OPLS-2005>
155.23225402832

> <r_mmod_Electrostatic_Energy-OPLS-2005>
-303.455200195312

> <r_mmod_Solvation_Energy-OPLS-2005>
-449.740509033203

> <b_mmod_Minimization_Converged-OPLS-2005>
0

> <r_mmod_RMS_Derivative-OPLS-2005>
3.02685046195984

$$$$
65
                    3D
 Structure written by MMmdl.
161170  0  0  1  0            999 V2000
  -30.5855  -14.8743   20.4223 C   0  0  0  0  0  0
  -30.4299  -12.5386   19.4932 C   0  0  0  0  0  0
  -29.5144  -12.5179   18.2495 C   0  0  0  0  0  0
  -28.0451  -12.3197   18.6647 C   0  0  0  0  0  0
  -27.6317  -13.2445   19.8404 C   0  0  2  0  0  0
  -28.6747  -13.2554   20.9782 C   0  0  0  0  0  0
  -25.2474  -13.8221   20.5693 C   0  0  0  0  0  0
  -24.1784  -13.0449   20.9224 C   0  0  0  0  0  0
  -24.6400  -11.6933   20.8756 C   0  0  0  0  0  0
  -23.9078  -10.4298   21.0401 C   0  0  0  0  0  0
  -24.3634   -9.4213   21.9177 C   0  0  0  0  0  0
  -23.6305   -8.2248   22.0745 C   0  0  0  0  0  0
  -22.4287   -8.0284   21.3537 C   0  0  0  0  0  0
  -21.9923   -9.0252   20.4635 C   0  0  0  0  0  0
  -22.7250  -10.2132   20.3048 C   0  0  0  0  0  0
  -21.6864   -6.0740   22.5277 C   0  0  0  0  0  0
  -21.4017   -6.5639   23.8210 C   0  0  0  0  0  0
  -21.3659   -5.6787   24.9172 C   0  0  0  0  0  0
  -21.6052   -4.3050   24.7223 C   0  0  0  0  0  0
  -21.8818   -3.8147   23.4342 C   0  0  0  0  0  0
  -21.9192   -4.6966   22.3399 C   0  0  0  0  0  0
  -22.7801  -13.5221   21.1869 C   0  0  0  0  0  0
  -22.1653   -4.2154   21.0976 F   0  0  0  0  0  0
  -21.5637   -3.4529   25.7731 F   0  0  0  0  0  0
  -29.9571  -13.6378   20.3785 N   0  0  0  0  0  0
  -26.2898  -12.9443   20.3259 N   0  0  0  0  0  0
  -25.9337  -11.6579   20.5774 N   0  0  0  0  0  0
  -22.0439  -12.8215   22.0428 N   0  0  0  0  0  0
  -25.4149  -15.1944   20.4106 N   0  0  0  0  0  0
  -31.7902  -14.9122   20.1544 O   0  0  0  0  0  0
  -21.6647   -6.8884   21.4239 O   0  0  0  0  0  0
  -22.3481  -14.5514   20.6694 O   0  0  0  0  0  0
  -24.6401  -31.8460   23.1899 C   0  0  0  0  0  0
  -25.9191  -32.4693   23.8275 C   0  0  1  0  0  0
  -27.2162  -27.1738   20.1341 C   0  0  0  0  0  0
  -25.5949  -33.8501   24.2198 N   0  0  0  0  0  0
  -23.4408  -30.4668   21.5347 C   0  0  2  0  0  0
  -24.8858  -28.8974   20.1062 C   0  0  0  0  0  0
  -22.7551  -29.4557   22.4868 C   0  0  0  0  0  0
  -18.0308  -28.1394   22.8473 C   0  0  0  0  0  0
  -24.1494  -36.7264   23.2645 C   0  0  0  0  0  0
  -25.9928  -30.7308   21.3811 C   0  0  0  0  0  0
  -26.0603  -29.3457   20.7214 C   0  0  0  0  0  0
  -27.2234  -28.4978   20.7199 C   0  0  0  0  0  0
  -26.0142  -26.8133   19.4863 C   0  0  0  0  0  0
  -24.8728  -27.6441   19.4753 C   0  0  0  0  0  0
  -23.6623  -29.7963   20.1523 C   0  0  0  0  0  0
  -25.4125  -36.3036   24.0317 C   0  0  1  0  0  0
  -20.5916  -28.3713   23.1241 C   0  0  2  0  0  0
  -20.6795  -26.9418   22.5410 C   0  0  0  0  0  0
  -19.5772  -26.6378   21.5216 C   0  0  0  0  0  0
  -18.1950  -26.7931   22.1620 C   0  0  0  0  0  0
  -19.1562  -28.8875   23.2847 C   0  0  0  0  0  0
  -18.9476  -30.1473   23.8870 C   0  0  0  0  0  0
  -17.6470  -30.6584   24.0567 C   0  0  0  0  0  0
  -25.9071  -34.9407   23.5066 C   0  0  0  0  0  0
  -16.5364  -29.9079   23.6336 C   0  0  0  0  0  0
  -16.7293  -28.6506   23.0343 C   0  0  0  0  0  0
  -26.4537  -31.6539   25.0698 C   0  0  0  0  0  0
  -25.3752  -31.3692   26.1411 C   0  0  0  0  0  0
  -27.0405  -30.2942   24.6247 C   0  0  0  0  0  0
  -27.6068  -32.4309   25.7480 C   0  0  0  0  0  0
  -27.5577  -37.1787   24.8466 C   0  0  0  0  0  0
  -21.4249  -29.3037   22.3610 N   0  0  0  0  0  0
  -26.4289  -37.3748   23.9409 N   0  0  0  0  0  0
  -24.7109  -31.0360   22.0905 N   0  0  0  0  0  0
  -23.4208  -28.8116   23.3015 O   0  0  0  0  0  0
  -28.3097  -26.2525   20.2251 O   0  0  0  0  0  0
  -26.5660  -34.8908   22.4645 O   0  0  0  0  0  0
  -23.5530  -32.1314   23.7149 O   0  0  0  0  0  0
  -28.3924  -19.4225   20.3990 C   0  0  0  0  0  0
  -27.9565  -20.8104   20.4292 C   0  0  0  0  0  0
  -29.7720  -19.0403   20.4029 C   0  0  0  0  0  0
  -28.8804  -21.9126   20.4523 C   0  0  0  0  0  0
  -30.6129  -20.2127   20.3972 C   0  0  0  0  0  0
  -34.3561  -21.0580   20.3282 C   0  0  0  0  0  0
  -33.4411  -22.0558   19.6563 C   0  0  0  0  0  0
  -32.9003  -21.1352   20.7253 C   0  0  0  0  0  0
  -26.4650  -21.0949   20.4752 C   0  0  0  0  0  0
  -30.4333  -17.5250   20.3552 C   0  0  0  0  0  0
  -28.5217  -23.4789   20.8086 C   0  0  0  0  0  0
  -28.3248  -24.7685   19.7860 C   0  0  0  0  0  0
  -30.1894  -21.5313   20.4240 N   0  0  0  0  0  0
  -32.0050  -20.0425   20.3623 N   0  0  0  0  0  0
  -29.8596  -16.0833   20.5411 N   0  0  0  0  0  0
  -31.4687  -12.6718   19.1859 H   0  0  0  0  0  0
  -30.3952  -11.5811   20.0148 H   0  0  0  0  0  0
  -29.8209  -11.7251   17.5666 H   0  0  0  0  0  0
  -29.6195  -13.4551   17.6998 H   0  0  0  0  0  0
  -27.9225  -11.2756   18.9544 H   0  0  0  0  0  0
  -27.3861  -12.4736   17.8097 H   0  0  0  0  0  0
  -27.6033  -14.2515   19.4246 H   0  0  0  0  0  0
  -28.7439  -12.2783   21.4592 H   0  0  0  0  0  0
  -28.3883  -13.9655   21.7564 H   0  0  0  0  0  0
  -25.2777   -9.5690   22.4765 H   0  0  0  0  0  0
  -24.0008   -7.4645   22.7474 H   0  0  0  0  0  0
  -21.0851   -8.8770   19.8947 H   0  0  0  0  0  0
  -22.3696  -10.9673   19.6169 H   0  0  0  0  0  0
  -21.2002   -7.6147   23.9715 H   0  0  0  0  0  0
  -21.1488   -6.0516   25.9075 H   0  0  0  0  0  0
  -22.0602   -2.7611   23.2837 H   0  0  0  0  0  0
  -22.4059  -11.9896   22.4839 H   0  0  0  0  0  0
  -21.1046  -13.1223   22.2604 H   0  0  0  0  0  0
  -24.6445  -15.8454   20.5190 H   0  0  0  0  0  0
  -26.2575  -15.6334   20.0624 H   0  0  0  0  0  0
  -26.7254  -32.5314   23.1002 H   0  0  0  0  0  0
  -25.0073  -33.9611   25.0331 H   0  0  0  0  0  0
  -22.7425  -31.2922   21.3826 H   0  0  0  0  0  0
  -23.3753  -35.9597   23.3294 H   0  0  0  0  0  0
  -24.3582  -36.8918   22.2064 H   0  0  0  0  0  0
  -23.7257  -37.6460   23.6689 H   0  0  0  0  0  0
  -26.1453  -31.4858   20.6084 H   0  0  0  0  0  0
  -26.8661  -30.7779   22.0204 H   0  0  0  0  0  0
  -28.1226  -28.8345   21.2160 H   0  0  0  0  0  0
  -25.9092  -25.8583   18.9994 H   0  0  0  0  0  0
  -23.9735  -27.2964   18.9860 H   0  0  0  0  0  0
  -23.7981  -30.5708   19.3966 H   0  0  0  0  0  0
  -22.7773  -29.2369   19.8440 H   0  0  0  0  0  0
  -25.1312  -36.1862   25.0808 H   0  0  0  0  0  0
  -21.0007  -28.3310   24.1361 H   0  0  0  0  0  0
  -20.5688  -26.2332   23.3630 H   0  0  0  0  0  0
  -21.6663  -26.7429   22.1212 H   0  0  0  0  0  0
  -19.6931  -25.6287   21.1255 H   0  0  0  0  0  0
  -19.6706  -27.3185   20.6744 H   0  0  0  0  0  0
  -17.4224  -26.6685   21.4017 H   0  0  0  0  0  0
  -18.0335  -26.0075   22.9017 H   0  0  0  0  0  0
  -19.7953  -30.7304   24.2213 H   0  0  0  0  0  0
  -17.5027  -31.6257   24.5183 H   0  0  0  0  0  0
  -15.5365  -30.2975   23.7670 H   0  0  0  0  0  0
  -15.8698  -28.0829   22.7045 H   0  0  0  0  0  0
  -24.5946  -30.7014   25.7744 H   0  0  0  0  0  0
  -24.8923  -32.2851   26.4815 H   0  0  0  0  0  0
  -25.8074  -30.8894   27.0198 H   0  0  0  0  0  0
  -26.3003  -29.6647   24.1286 H   0  0  0  0  0  0
  -27.4077  -29.7248   25.4796 H   0  0  0  0  0  0
  -27.8890  -30.4199   23.9518 H   0  0  0  0  0  0
  -27.2655  -33.3626   26.1999 H   0  0  0  0  0  0
  -28.3898  -32.6837   25.0319 H   0  0  0  0  0  0
  -28.0706  -31.8473   26.5441 H   0  0  0  0  0  0
  -28.2582  -38.0095   24.7513 H   0  0  0  0  0  0
  -28.1085  -36.2623   24.6286 H   0  0  0  0  0  0
  -27.2295  -37.1434   25.8871 H   0  0  0  0  0  0
  -20.9453  -29.8743   21.6788 H   0  0  0  0  0  0
  -26.0152  -38.2815   24.1407 H   0  0  0  0  0  0
  -27.6473  -18.6397   20.3864 H   0  0  0  0  0  0
  -35.0939  -21.4539   21.0242 H   0  0  0  0  0  0
  -34.6864  -20.2075   19.7348 H   0  0  0  0  0  0
  -33.1502  -21.8637   18.6255 H   0  0  0  0  0  0
  -33.5770  -23.1042   19.9141 H   0  0  0  0  0  0
  -32.6612  -21.5591   21.6996 H   0  0  0  0  0  0
  -26.1560  -21.3570   21.4871 H   0  0  0  0  0  0
  -25.8837  -20.2287   20.1576 H   0  0  0  0  0  0
  -26.2075  -21.9222   19.8128 H   0  0  0  0  0  0
  -31.2433  -17.5612   21.0856 H   0  0  0  0  0  0
  -30.9397  -17.4907   19.3888 H   0  0  0  0  0  0
  -29.3110  -23.7810   21.4963 H   0  0  0  0  0  0
  -27.6328  -23.4483   21.4378 H   0  0  0  0  0  0
  -27.4833  -24.5394   19.1379 H   0  0  0  0  0  0
  -29.1805  -24.7208   19.1116 H   0  0  0  0  0  0
  -32.3772  -19.1029   20.4164 H   0  0  0  0  0  0
  -28.8714  -15.9981   20.7197 H   0  0  0  0  0  0
  1 25  1  0  0  0
  1 30  2  0  0  0
  1 85  1  0  0  0
  2  3  1  0  0  0
  2 25  1  0  0  0
  2 86  1  0  0  0
  2 87  1  0  0  0
  3  4  1  0  0  0
  3 88  1  0  0  0
  3 89  1  0  0  0
  4  5  1  0  0  0
  4 90  1  0  0  0
  4 91  1  0  0  0
  5  6  1  0  0  0
  5 26  1  0  0  0
  5 92  1  0  0  0
  6 25  1  0  0  0
  6 93  1  0  0  0
  6 94  1  0  0  0
  7  8  2  0  0  0
  7 26  1  0  0  0
  7 29  1  0  0  0
  8  9  1  0  0  0
  8 22  1  0  0  0
  9 10  1  0  0  0
  9 27  2  0  0  0
 10 11  2  0  0  0
 10 15  1  0  0  0
 11 12  1  0  0  0
 11 95  1  0  0  0
 12 13  2  0  0  0
 12 96  1  0  0  0
 13 14  1  0  0  0
 13 31  1  0  0  0
 14 15  2  0  0  0
 14 97  1  0  0  0
 15 98  1  0  0  0
 16 17  2  0  0  0
 16 21  1  0  0  0
 16 31  1  0  0  0
 17 18  1  0  0  0
 17 99  1  0  0  0
 18 19  2  0  0  0
 18100  1  0  0  0
 19 20  1  0  0  0
 19 24  1  0  0  0
 20 21  2  0  0  0
 20101  1  0  0  0
 21 23  1  0  0  0
 22 28  1  0  0  0
 22 32  2  0  0  0
 26 27  1  0  0  0
 28102  1  0  0  0
 28103  1  0  0  0
 29104  1  0  0  0
 29105  1  0  0  0
 33 34  1  0  0  0
 33 66  1  0  0  0
 33 70  2  0  0  0
 34 36  1  0  0  0
 34 59  1  0  0  0
 34106  1  0  0  0
 35 44  2  0  0  0
 35 45  1  0  0  0
 35 68  1  0  0  0
 36 56  1  0  0  0
 36107  1  0  0  0
 37 39  1  0  0  0
 37 47  1  0  0  0
 37 66  1  0  0  0
 37108  1  0  0  0
 38 43  2  0  0  0
 38 46  1  0  0  0
 38 47  1  0  0  0
 39 64  1  0  0  0
 39 67  2  0  0  0
 40 52  1  0  0  0
 40 53  2  0  0  0
 40 58  1  0  0  0
 41109  1  0  0  0
 41110  1  0  0  0
 41111  1  0  0  0
 41 48  1  0  0  0
 42 43  1  0  0  0
 42 66  1  0  0  0
 42112  1  0  0  0
 42113  1  0  0  0
 43 44  1  0  0  0
 44114  1  0  0  0
 45 46  2  0  0  0
 45115  1  0  0  0
 46116  1  0  0  0
 47117  1  0  0  0
 47118  1  0  0  0
 48 56  1  0  0  0
 48 65  1  0  0  0
 48119  1  0  0  0
 49 50  1  0  0  0
 49 53  1  0  0  0
 49 64  1  0  0  0
 49120  1  0  0  0
 50 51  1  0  0  0
 50121  1  0  0  0
 50122  1  0  0  0
 51 52  1  0  0  0
 51123  1  0  0  0
 51124  1  0  0  0
 52125  1  0  0  0
 52126  1  0  0  0
 53 54  1  0  0  0
 54 55  2  0  0  0
 54127  1  0  0  0
 55 57  1  0  0  0
 55128  1  0  0  0
 56 69  2  0  0  0
 57 58  2  0  0  0
 57129  1  0  0  0
 58130  1  0  0  0
 59 60  1  0  0  0
 59 61  1  0  0  0
 59 62  1  0  0  0
 60131  1  0  0  0
 60132  1  0  0  0
 60133  1  0  0  0
 61134  1  0  0  0
 61135  1  0  0  0
 61136  1  0  0  0
 62137  1  0  0  0
 62138  1  0  0  0
 62139  1  0  0  0
 63 65  1  0  0  0
 63140  1  0  0  0
 63141  1  0  0  0
 63142  1  0  0  0
 64143  1  0  0  0
 65144  1  0  0  0
 68 82  1  0  0  0
 71 72  2  0  0  0
 71 73  1  0  0  0
 71145  1  0  0  0
 72 74  1  0  0  0
 72 79  1  0  0  0
 73 75  2  0  0  0
 73 80  1  0  0  0
 74 81  1  0  0  0
 74 83  2  0  0  0
 75 83  1  0  0  0
 75 84  1  0  0  0
 76 77  1  0  0  0
 76 78  1  0  0  0
 76146  1  0  0  0
 76147  1  0  0  0
 77 78  1  0  0  0
 77148  1  0  0  0
 77149  1  0  0  0
 78 84  1  0  0  0
 78150  1  0  0  0
 79151  1  0  0  0
 79152  1  0  0  0
 79153  1  0  0  0
 80 85  1  0  0  0
 80154  1  0  0  0
 80155  1  0  0  0
 81 82  1  0  0  0
 81156  1  0  0  0
 81157  1  0  0  0
 82158  1  0  0  0
 82159  1  0  0  0
 84160  1  0  0  0
 85161  1  0  0  0
M  ISO  4   1 100  68 101  82 101  85 100
M  END
> <chiral flag>
0

> <version>
0

> <s_m_source_file>
/data/baiqing/PycharmProjects/Reinvent-master-3.2/result/LINK_invent/BTK/process_docking_weight1_custom_sum_contain_oxygen_bond_distance_aromatic_linkinvent_7_9_3/rearranged_h_0169.sdf

> <i_m_source_file_index>
66

> <r_mmod_Potential_Energy-OPLS-2005>
230.678756713867

> <r_mmod_Stretch_Energy-OPLS-2005>
201.778030395508

> <r_mmod_Bend_Energy-OPLS-2005>
280.037780761719

> <r_mmod_Torsional_Energy-OPLS-2005>
224.779754638672

> <r_mmod_Improper_Torsional_Energy-OPLS-2005>
7.48713111877441

> <r_mmod_Van_der_Waal_Energy-OPLS-2005>
138.123443603516

> <r_mmod_Electrostatic_Energy-OPLS-2005>
-527.689147949219

> <r_mmod_Solvation_Energy-OPLS-2005>
-242.08381652832

> <b_mmod_Minimization_Converged-OPLS-2005>
0

> <r_mmod_RMS_Derivative-OPLS-2005>
1.50233066082001

$$$$
66
                    3D
 Structure written by MMmdl.
180191  0  0  1  0            999 V2000
  -29.4277  -15.5823   20.7489 C   0  0  0  0  0  0
  -30.2717  -13.1757   19.7235 C   0  0  0  0  0  0
  -29.5234  -12.7208   18.4242 C   0  0  0  0  0  0
  -28.0832  -12.2819   18.7447 C   0  0  0  0  0  0
  -27.4932  -13.2117   19.8252 C   0  0  2  0  0  0
  -28.3608  -13.3126   21.0699 C   0  0  0  0  0  0
  -25.1675  -13.7919   20.5247 C   0  0  0  0  0  0
  -24.1201  -13.0215   20.9163 C   0  0  0  0  0  0
  -24.5875  -11.6718   20.8764 C   0  0  0  0  0  0
  -23.8729  -10.4144   21.0498 C   0  0  0  0  0  0
  -24.3430   -9.4113   21.9238 C   0  0  0  0  0  0
  -23.6189   -8.2114   22.0762 C   0  0  0  0  0  0
  -22.4176   -8.0146   21.3540 C   0  0  0  0  0  0
  -21.9734   -9.0076   20.4645 C   0  0  0  0  0  0
  -22.6968  -10.1984   20.3089 C   0  0  0  0  0  0
  -21.6809   -6.0658   22.5291 C   0  0  0  0  0  0
  -21.3980   -6.5593   23.8214 C   0  0  0  0  0  0
  -21.3650   -5.6763   24.9188 C   0  0  0  0  0  0
  -21.6048   -4.3026   24.7251 C   0  0  0  0  0  0
  -21.8824   -3.8099   23.4379 C   0  0  0  0  0  0
  -21.9180   -4.6899   22.3425 C   0  0  0  0  0  0
  -22.7355  -13.5098   21.1978 C   0  0  0  0  0  0
  -22.1657   -4.2089   21.1003 F   0  0  0  0  0  0
  -21.5638   -3.4521   25.7771 F   0  0  0  0  0  0
  -29.4085  -14.1388   20.5845 N   0  0  0  0  0  0
  -26.1805  -12.8993   20.2587 N   0  0  0  0  0  0
  -25.8657  -11.6222   20.5475 N   0  0  0  0  0  0
  -22.0098  -12.8129   22.0623 N   0  0  0  0  0  0
  -25.3303  -15.1596   20.3415 N   0  0  0  0  0  0
  -30.6259  -15.8480   20.4057 O   0  0  0  0  0  0
  -21.6571   -6.8748   21.4233 O   0  0  0  0  0  0
  -22.3103  -14.5449   20.6867 O   0  0  0  0  0  0
  -24.6613  -31.9568   23.2176 C   0  0  0  0  0  0
  -25.9556  -32.5113   23.8587 C   0  0  1  0  0  0
  -25.0094  -27.2704   20.8433 C   0  0  0  0  0  0
  -25.6442  -33.8860   24.2577 N   0  0  0  0  0  0
  -23.4620  -30.6049   21.5708 C   0  0  2  0  0  0
  -24.9221  -29.4406   19.6574 C   0  0  0  0  0  0
  -23.0951  -29.5364   22.6545 C   0  0  0  0  0  0
  -19.2621  -27.5331   22.2292 C   0  0  0  0  0  0
  -24.1524  -36.7359   23.2597 C   0  0  0  0  0  0
  -25.9793  -30.8318   21.4235 C   0  0  0  0  0  0
  -25.8415  -29.5239   20.6859 C   0  0  0  0  0  0
  -26.0233  -28.2618   21.2653 C   0  0  0  0  0  0
  -25.4594  -27.0741   19.5269 C   0  0  0  0  0  0
  -24.9692  -28.2314   18.8746 C   0  0  0  0  0  0
  -23.6242  -30.1727   20.0308 C   0  0  0  0  0  0
  -25.4150  -36.3224   24.0322 C   0  0  1  0  0  0
  -21.3956  -28.0150   23.5361 C   0  0  2  0  0  0
  -22.3291  -26.5564   22.9235 C   0  0  0  0  0  0
  -22.0466  -25.4984   21.3318 C   0  0  0  0  0  0
  -20.4531  -25.7189   20.6618 C   0  0  0  0  0  0
  -19.8893  -28.3473   23.2562 C   0  0  0  0  0  0
  -19.3337  -29.5505   23.9251 C   0  0  0  0  0  0
  -18.0109  -30.0305   23.8490 C   0  0  0  0  0  0
  -25.9179  -34.9632   23.5147 C   0  0  0  0  0  0
  -17.1853  -29.1653   23.1471 C   0  0  0  0  0  0
  -17.7779  -28.0235   22.4452 C   0  0  0  0  0  0
  -26.4610  -31.6695   25.0929 C   0  0  0  0  0  0
  -25.3687  -31.3824   26.1489 C   0  0  0  0  0  0
  -27.0431  -30.3094   24.6454 C   0  0  0  0  0  0
  -27.6156  -32.4297   25.7842 C   0  0  0  0  0  0
  -27.5609  -37.1899   24.8464 C   0  0  0  0  0  0
  -21.8604  -29.3310   23.0335 N   0  0  0  0  0  0
  -26.4313  -37.3917   23.9423 N   0  0  0  0  0  0
  -24.7132  -31.2181   22.0781 N   0  0  0  0  0  0
  -23.9403  -28.9232   23.2838 O   0  0  0  0  0  0
  -23.4487  -27.5130   20.5929 O   0  0  0  0  0  0
  -26.5524  -34.9026   22.4583 O   0  0  0  0  0  0
  -23.5805  -32.2265   23.7649 O   0  0  0  0  0  0
  -22.5601  -21.3654   21.6511 C   0  0  0  0  0  0
  -23.8977  -21.0284   22.2855 C   0  0  0  0  0  0
  -23.7051  -22.1558   23.3036 C   0  0  0  0  0  0
  -21.2857  -23.6494   22.8426 C   0  0  0  0  0  0
  -21.4484  -22.4583   21.8731 C   0  0  0  0  0  0
  -22.5523  -23.2075   23.5924 C   0  0  0  0  0  0
  -25.6685  -23.5959   24.3578 C   0  0  0  0  0  0
  -26.3126  -22.4648   23.6193 C   0  0  0  0  0  0
  -25.6150  -18.0107   22.2883 C   0  0  0  0  0  0
  -26.4515  -19.2778   20.7308 C   0  0  0  0  0  0
  -19.6859  -27.7540   19.9044 C   0  0  0  0  0  0
  -27.0763  -16.9311   22.1861 C   0  0  0  0  0  0
  -27.9058  -18.1953   20.6443 C   0  0  0  0  0  0
  -18.2512  -26.3193   20.4151 C   0  0  0  0  0  0
  -25.3712  -19.7111   22.0193 C   0  0  0  0  0  0
  -24.9191  -22.2811   24.1984 C   0  0  0  0  0  0
  -20.2176  -25.4369   22.7940 C   0  0  1  0  0  0
  -21.3926  -27.6543   21.0757 C   0  0  2  0  0  0
  -20.2927  -22.2412   20.9141 C   0  0  0  0  0  0
  -22.6364  -23.8411   24.9805 C   0  0  0  0  0  0
  -28.1914  -16.6332   21.0267 N   0  0  0  0  0  0
  -18.5567  -25.2840   21.9572 N   0  3  0  0  0  0
  -31.2106  -13.6534   19.4417 H   0  0  0  0  0  0
  -30.5686  -12.3052   20.3113 H   0  0  0  0  0  0
  -30.0690  -11.9256   17.9149 H   0  0  0  0  0  0
  -29.4884  -13.5627   17.7312 H   0  0  0  0  0  0
  -28.1029  -11.2560   19.1146 H   0  0  0  0  0  0
  -27.4669  -12.2783   17.8448 H   0  0  0  0  0  0
  -27.4117  -14.1817   19.3307 H   0  0  0  0  0  0
  -28.6794  -12.3392   21.4468 H   0  0  0  0  0  0
  -27.8435  -13.8160   21.8894 H   0  0  0  0  0  0
  -25.2572   -9.5656   22.4799 H   0  0  0  0  0  0
  -23.9931   -7.4499   22.7454 H   0  0  0  0  0  0
  -21.0674   -8.8537   19.8951 H   0  0  0  0  0  0
  -22.3396  -10.9524   19.6213 H   0  0  0  0  0  0
  -21.1956   -7.6101   23.9698 H   0  0  0  0  0  0
  -21.1479   -6.0503   25.9089 H   0  0  0  0  0  0
  -22.0619   -2.7562   23.2896 H   0  0  0  0  0  0
  -22.3733  -11.9765   22.4943 H   0  0  0  0  0  0
  -21.0766  -13.1199   22.2968 H   0  0  0  0  0  0
  -24.5640  -15.8061   20.4837 H   0  0  0  0  0  0
  -26.1821  -15.6174   20.0453 H   0  0  0  0  0  0
  -26.7671  -32.5572   23.1341 H   0  0  0  0  0  0
  -25.0770  -34.0025   25.0845 H   0  0  0  0  0  0
  -22.6667  -31.3528   21.5864 H   0  0  0  0  0  0
  -23.3822  -35.9656   23.3258 H   0  0  0  0  0  0
  -24.3629  -36.8972   22.2013 H   0  0  0  0  0  0
  -23.7227  -37.6549   23.6592 H   0  0  0  0  0  0
  -26.2618  -31.6130   20.7166 H   0  0  0  0  0  0
  -26.8193  -30.7103   22.0956 H   0  0  0  0  0  0
  -26.5067  -28.1667   22.2270 H   0  0  0  0  0  0
  -25.2114  -26.1568   19.0119 H   0  0  0  0  0  0
  -24.3661  -28.1079   17.9859 H   0  0  0  0  0  0
  -23.6261  -31.0876   19.4372 H   0  0  0  0  0  0
  -22.7523  -29.6317   19.6698 H   0  0  0  0  0  0
  -25.1302  -36.2094   25.0809 H   0  0  0  0  0  0
  -21.5296  -28.0363   24.6195 H   0  0  0  0  0  0
  -22.3087  -25.9241   23.7915 H   0  0  0  0  0  0
  -23.4002  -26.7182   22.9584 H   0  0  0  0  0  0
  -22.5943  -24.5638   21.2739 H   0  0  0  0  0  0
  -22.6364  -25.6328   20.4356 H   0  0  0  0  0  0
  -20.6886  -25.8198   19.5881 H   0  0  0  0  0  0
  -20.1067  -24.6994   20.4762 H   0  0  0  0  0  0
  -19.9851  -30.1062   24.5872 H   0  0  0  0  0  0
  -17.6537  -30.9012   24.3818 H   0  0  0  0  0  0
  -16.1188  -29.3410   23.1080 H   0  0  0  0  0  0
  -16.9473  -27.4987   22.0131 H   0  0  0  0  0  0
  -24.5880  -30.7242   25.7653 H   0  0  0  0  0  0
  -24.8877  -32.2991   26.4909 H   0  0  0  0  0  0
  -25.7857  -30.8915   27.0290 H   0  0  0  0  0  0
  -26.3035  -29.6914   24.1384 H   0  0  0  0  0  0
  -27.3919  -29.7306   25.5017 H   0  0  0  0  0  0
  -27.9030  -30.4320   23.9866 H   0  0  0  0  0  0
  -27.2802  -33.3586   26.2463 H   0  0  0  0  0  0
  -28.4049  -32.6848   25.0758 H   0  0  0  0  0  0
  -28.0713  -31.8337   26.5759 H   0  0  0  0  0  0
  -28.2602  -38.0223   24.7572 H   0  0  0  0  0  0
  -28.1140  -36.2765   24.6226 H   0  0  0  0  0  0
  -27.2332  -37.1466   25.8865 H   0  0  0  0  0  0
  -21.1414  -29.9703   22.7205 H   0  0  0  0  0  0
  -26.0197  -38.2984   24.1464 H   0  0  0  0  0  0
  -22.3352  -20.6878   20.8386 H   0  0  0  0  0  0
  -25.3562  -24.4496   23.7586 H   0  0  0  0  0  0
  -26.0727  -23.8354   25.3395 H   0  0  0  0  0  0
  -27.1418  -21.9645   24.1157 H   0  0  0  0  0  0
  -26.4137  -22.5799   22.5415 H   0  0  0  0  0  0
  -25.2496  -17.8554   23.3039 H   0  0  0  0  0  0
  -24.8533  -17.5197   21.6819 H   0  0  0  0  0  0
  -25.8047  -18.9410   19.9184 H   0  0  0  0  0  0
  -26.8183  -20.2378   20.3662 H   0  0  0  0  0  0
  -19.2429  -28.7488   19.9929 H   0  0  0  0  0  0
  -19.9332  -27.6972   18.8431 H   0  0  0  0  0  0
  -26.7264  -15.9415   22.4776 H   0  0  0  0  0  0
  -27.6885  -17.2254   23.0404 H   0  0  0  0  0  0
  -28.6875  -18.7345   21.1822 H   0  0  0  0  0  0
  -28.2355  -18.2559   19.6060 H   0  0  0  0  0  0
  -18.2421  -25.5963   19.5947 H   0  0  0  0  0  0
  -17.2296  -26.6663   20.2731 H   0  0  0  0  0  0
  -26.0521  -20.1185   22.7592 H   0  0  0  0  0  0
  -24.8227  -21.6427   25.0751 H   0  0  0  0  0  0
  -20.0363  -25.7054   23.8390 H   0  0  0  0  0  0
  -21.1740  -28.7143   21.0473 H   0  0  0  0  0  0
  -20.0653  -21.1783   20.8258 H   0  0  0  0  0  0
  -20.5410  -22.6056   19.9168 H   0  0  0  0  0  0
  -19.3810  -22.7217   21.2644 H   0  0  0  0  0  0
  -22.8326  -23.0786   25.7343 H   0  0  0  0  0  0
  -21.6905  -24.3048   25.2626 H   0  0  0  0  0  0
  -23.4135  -24.5978   25.0610 H   0  0  0  0  0  0
  -18.3031  -24.3217   21.8057 H   0  0  0  0  0  0
  -17.9027  -25.6430   22.6347 H   0  0  0  0  0  0
  1 25  1  0  0  0
  1 30  2  0  0  0
  1 91  1  0  0  0
  2  3  1  0  0  0
  2 25  1  0  0  0
  2 93  1  0  0  0
  2 94  1  0  0  0
  3  4  1  0  0  0
  3 95  1  0  0  0
  3 96  1  0  0  0
  4  5  1  0  0  0
  4 97  1  0  0  0
  4 98  1  0  0  0
  5  6  1  0  0  0
  5 26  1  0  0  0
  5 99  1  0  0  0
  6 25  1  0  0  0
  6100  1  0  0  0
  6101  1  0  0  0
  7  8  2  0  0  0
  7 26  1  0  0  0
  7 29  1  0  0  0
  8  9  1  0  0  0
  8 22  1  0  0  0
  9 10  1  0  0  0
  9 27  2  0  0  0
 10 11  2  0  0  0
 10 15  1  0  0  0
 11 12  1  0  0  0
 11102  1  0  0  0
 12 13  2  0  0  0
 12103  1  0  0  0
 13 14  1  0  0  0
 13 31  1  0  0  0
 14 15  2  0  0  0
 14104  1  0  0  0
 15105  1  0  0  0
 16 17  2  0  0  0
 16 21  1  0  0  0
 16 31  1  0  0  0
 17 18  1  0  0  0
 17106  1  0  0  0
 18 19  2  0  0  0
 18107  1  0  0  0
 19 20  1  0  0  0
 19 24  1  0  0  0
 20 21  2  0  0  0
 20108  1  0  0  0
 21 23  1  0  0  0
 22 28  1  0  0  0
 22 32  2  0  0  0
 26 27  1  0  0  0
 28109  1  0  0  0
 28110  1  0  0  0
 29111  1  0  0  0
 29112  1  0  0  0
 33 34  1  0  0  0
 33 66  1  0  0  0
 33 70  2  0  0  0
 34 36  1  0  0  0
 34 59  1  0  0  0
 34113  1  0  0  0
 35 44  2  0  0  0
 35 45  1  0  0  0
 35 68  1  0  0  0
 36 56  1  0  0  0
 36114  1  0  0  0
 37 39  1  0  0  0
 37 47  1  0  0  0
 37 66  1  0  0  0
 37115  1  0  0  0
 38 43  2  0  0  0
 38 46  1  0  0  0
 38 47  1  0  0  0
 39 64  1  0  0  0
 39 67  2  0  0  0
 40 52  1  0  0  0
 40 53  2  0  0  0
 40 58  1  0  0  0
 41116  1  0  0  0
 41117  1  0  0  0
 41118  1  0  0  0
 41 48  1  0  0  0
 42 43  1  0  0  0
 42 66  1  0  0  0
 42119  1  0  0  0
 42120  1  0  0  0
 43 44  1  0  0  0
 44121  1  0  0  0
 45 46  2  0  0  0
 45122  1  0  0  0
 46123  1  0  0  0
 47124  1  0  0  0
 47125  1  0  0  0
 48 56  1  0  0  0
 48 65  1  0  0  0
 48126  1  0  0  0
 49 50  1  0  0  0
 49 53  1  0  0  0
 49 64  1  0  0  0
 49127  1  0  0  0
 50 51  1  0  0  0
 50128  1  0  0  0
 50129  1  0  0  0
 51 52  1  0  0  0
 51130  1  0  0  0
 51131  1  0  0  0
 52132  1  0  0  0
 52133  1  0  0  0
 53 54  1  0  0  0
 54 55  2  0  0  0
 54134  1  0  0  0
 55 57  1  0  0  0
 55135  1  0  0  0
 56 69  2  0  0  0
 57 58  2  0  0  0
 57136  1  0  0  0
 58137  1  0  0  0
 59 60  1  0  0  0
 59 61  1  0  0  0
 59 62  1  0  0  0
 60138  1  0  0  0
 60139  1  0  0  0
 60140  1  0  0  0
 61141  1  0  0  0
 61142  1  0  0  0
 61143  1  0  0  0
 62144  1  0  0  0
 62145  1  0  0  0
 62146  1  0  0  0
 63 65  1  0  0  0
 63147  1  0  0  0
 63148  1  0  0  0
 63149  1  0  0  0
 64150  1  0  0  0
 65151  1  0  0  0
 68 88  1  0  0  0
 71 72  2  0  0  0
 71 75  1  0  0  0
 71152  1  0  0  0
 72 73  1  0  0  0
 72 85  1  0  0  0
 73 76  2  0  0  0
 73 86  1  0  0  0
 74 75  2  0  0  0
 74 76  1  0  0  0
 74 87  1  0  0  0
 75 89  1  0  0  0
 76 90  1  0  0  0
 77 78  1  0  0  0
 77 86  1  0  0  0
 77153  1  0  0  0
 77154  1  0  0  0
 78 86  1  0  0  0
 78155  1  0  0  0
 78156  1  0  0  0
 79 82  1  0  0  0
 79 85  1  0  0  0
 79157  1  0  0  0
 79158  1  0  0  0
 80 83  1  0  0  0
 80 85  1  0  0  0
 80159  1  0  0  0
 80160  1  0  0  0
 81 84  1  0  0  0
 81 88  1  0  0  0
 81161  1  0  0  0
 81162  1  0  0  0
 82 91  1  0  0  0
 82163  1  0  0  0
 82164  1  0  0  0
 83 91  1  0  0  0
 83165  1  0  0  0
 83166  1  0  0  0
 84 92  1  0  0  0
 84167  1  0  0  0
 84168  1  0  0  0
 85169  1  0  0  0
 86170  1  0  0  0
 87 88  1  0  0  0
 87 92  1  0  0  0
 87171  1  0  0  0
 88172  1  0  0  0
 89173  1  0  0  0
 89174  1  0  0  0
 89175  1  0  0  0
 90176  1  0  0  0
 90177  1  0  0  0
 90178  1  0  0  0
 92179  1  0  0  0
 92180  1  0  0  0
M  CHG  1  92   1
M  ISO  4   1 100  68 101  88 101  91 100
M  END
> <chiral flag>
0

> <version>
0

> <s_m_source_file>
/data/baiqing/PycharmProjects/Reinvent-master-3.2/result/LINK_invent/BTK/process_docking_weight1_custom_sum_contain_oxygen_bond_distance_aromatic_linkinvent_7_9_3/rearranged_h_0169.sdf

> <i_m_source_file_index>
67

> <r_mmod_Potential_Energy-OPLS-2005>
20598.46875

> <r_mmod_Stretch_Energy-OPLS-2005>
8458.4609375

> <r_mmod_Bend_Energy-OPLS-2005>
1882.37475585938

> <r_mmod_Torsional_Energy-OPLS-2005>
821.658813476562

> <r_mmod_Improper_Torsional_Energy-OPLS-2005>
77.7362670898438

> <r_mmod_Van_der_Waal_Energy-OPLS-2005>
2851.31518554688

> <r_mmod_Electrostatic_Energy-OPLS-2005>
-308.092254638672

> <r_mmod_Solvation_Energy-OPLS-2005>
-407.707855224609

> <b_mmod_Minimization_Converged-OPLS-2005>
0

> <r_mmod_RMS_Derivative-OPLS-2005>
1.33330404758453

$$$$
67
                    3D
 Structure written by MMmdl.
166175  0  0  1  0            999 V2000
  -30.6371  -14.7789   20.4382 C   0  0  0  0  0  0
  -30.4280  -12.4801   19.4504 C   0  0  0  0  0  0
  -29.4936  -12.4818   18.2221 C   0  0  0  0  0  0
  -28.0175  -12.3186   18.6434 C   0  0  0  0  0  0
  -27.6276  -13.2319   19.8347 C   0  0  2  0  0  0
  -28.6907  -13.2184   20.9562 C   0  0  0  0  0  0
  -25.2513  -13.8251   20.5773 C   0  0  0  0  0  0
  -24.1771  -13.0493   20.9249 C   0  0  0  0  0  0
  -24.6350  -11.6968   20.8808 C   0  0  0  0  0  0
  -23.9009  -10.4342   21.0433 C   0  0  0  0  0  0
  -24.3585   -9.4267   21.9200 C   0  0  0  0  0  0
  -23.6282   -8.2289   22.0773 C   0  0  0  0  0  0
  -22.4270   -8.0288   21.3557 C   0  0  0  0  0  0
  -21.9865   -9.0253   20.4671 C   0  0  0  0  0  0
  -22.7184  -10.2147   20.3071 C   0  0  0  0  0  0
  -21.6859   -6.0715   22.5257 C   0  0  0  0  0  0
  -21.4020   -6.5625   23.8185 C   0  0  0  0  0  0
  -21.3646   -5.6781   24.9150 C   0  0  0  0  0  0
  -21.6031   -4.3036   24.7211 C   0  0  0  0  0  0
  -21.8830   -3.8121   23.4337 C   0  0  0  0  0  0
  -21.9220   -4.6946   22.3393 C   0  0  0  0  0  0
  -22.7779  -13.5269   21.1809 C   0  0  0  0  0  0
  -22.1695   -4.2130   21.0976 F   0  0  0  0  0  0
  -21.5631   -3.4528   25.7725 F   0  0  0  0  0  0
  -29.9806  -13.5697   20.3496 N   0  0  0  0  0  0
  -26.2886  -12.9413   20.3327 N   0  0  0  0  0  0
  -25.9280  -11.6569   20.5822 N   0  0  0  0  0  0
  -22.0382  -12.8316   22.0391 N   0  0  0  0  0  0
  -25.4261  -15.1977   20.4209 N   0  0  0  0  0  0
  -31.8571  -14.8200   20.2503 O   0  0  0  0  0  0
  -21.6661   -6.8858   21.4217 O   0  0  0  0  0  0
  -22.3482  -14.5515   20.6558 O   0  0  0  0  0  0
  -24.6330  -31.8550   23.1955 C   0  0  0  0  0  0
  -25.9184  -32.4725   23.8285 C   0  0  1  0  0  0
  -27.2345  -27.2626   20.1834 C   0  0  0  0  0  0
  -25.6011  -33.8529   24.2236 N   0  0  0  0  0  0
  -23.4292  -30.4755   21.5329 C   0  0  2  0  0  0
  -24.8821  -28.9137   20.1176 C   0  0  0  0  0  0
  -22.7516  -29.4611   22.4855 C   0  0  0  0  0  0
  -18.0296  -28.1384   22.8447 C   0  0  0  0  0  0
  -24.1520  -36.7263   23.2634 C   0  0  0  0  0  0
  -25.9729  -30.7768   21.3692 C   0  0  0  0  0  0
  -26.0514  -29.3949   20.7238 C   0  0  0  0  0  0
  -27.2336  -28.5871   20.7357 C   0  0  0  0  0  0
  -26.0467  -26.8422   19.5517 C   0  0  0  0  0  0
  -24.8838  -27.6406   19.5210 C   0  0  0  0  0  0
  -23.6535  -29.8034   20.1519 C   0  0  0  0  0  0
  -25.4139  -36.3026   24.0307 C   0  0  1  0  0  0
  -20.5911  -28.3714   23.1239 C   0  0  2  0  0  0
  -20.6808  -26.9426   22.5392 C   0  0  0  0  0  0
  -19.5788  -26.6367   21.5210 C   0  0  0  0  0  0
  -18.1957  -26.7912   22.1605 C   0  0  0  0  0  0
  -19.1557  -28.8858   23.2834 C   0  0  0  0  0  0
  -18.9477  -30.1448   23.8862 C   0  0  0  0  0  0
  -17.6483  -30.6581   24.0552 C   0  0  0  0  0  0
  -25.9072  -34.9417   23.5062 C   0  0  0  0  0  0
  -16.5365  -29.9079   23.6331 C   0  0  0  0  0  0
  -16.7283  -28.6506   23.0330 C   0  0  0  0  0  0
  -26.4552  -31.6532   25.0663 C   0  0  0  0  0  0
  -25.3816  -31.3674   26.1414 C   0  0  0  0  0  0
  -27.0409  -30.2941   24.6150 C   0  0  0  0  0  0
  -27.6079  -32.4298   25.7461 C   0  0  0  0  0  0
  -27.5571  -37.1787   24.8455 C   0  0  0  0  0  0
  -21.4224  -29.3069   22.3617 N   0  0  0  0  0  0
  -26.4292  -37.3743   23.9406 N   0  0  0  0  0  0
  -24.6962  -31.0572   22.0877 N   0  0  0  0  0  0
  -23.4207  -28.8154   23.2980 O   0  0  0  0  0  0
  -28.3291  -26.3693   20.2308 O   0  0  0  0  0  0
  -26.5593  -34.8908   22.4590 O   0  0  0  0  0  0
  -23.5490  -32.1343   23.7288 O   0  0  0  0  0  0
  -30.1725  -21.3965   19.2404 C   0  0  0  0  0  0
  -28.7292  -22.3351   20.9296 C   0  0  0  0  0  0
  -28.8390  -23.6572   20.2947 C   0  0  0  0  0  0
  -29.4229  -21.1495   20.4087 C   0  0  0  0  0  0
  -29.6213  -23.6776   19.1155 C   0  0  0  0  0  0
  -29.1456  -18.0337   19.2484 C   0  0  0  0  0  0
  -29.4943  -16.5253   19.1259 C   0  0  0  0  0  0
  -30.1476  -17.2366   21.2475 C   0  0  0  0  0  0
  -29.9753  -18.5876   20.3953 C   0  0  2  0  0  0
  -29.7692  -24.9286   18.2646 C   0  0  0  0  0  0
  -28.6046  -22.4060   23.4721 C   0  0  0  0  0  0
  -26.9802  -20.9055   22.1945 C   0  0  0  0  0  0
  -28.1271  -25.0027   20.8370 C   0  0  0  0  0  0
  -27.8227  -22.1966   22.1634 C   0  0  0  0  0  0
  -30.2643  -22.5945   18.6237 N   0  0  0  0  0  0
  -29.8966  -15.9724   20.4350 N   0  0  0  0  0  0
  -29.3895  -19.8363   20.9973 O   0  0  0  0  0  0
  -31.4637  -12.6082   19.1285 H   0  0  0  0  0  0
  -30.3928  -11.5228   19.9759 H   0  0  0  0  0  0
  -29.7669  -11.6736   17.5419 H   0  0  0  0  0  0
  -29.6157  -13.4070   17.6572 H   0  0  0  0  0  0
  -27.8618  -11.2724   18.9113 H   0  0  0  0  0  0
  -27.3587  -12.5028   17.7921 H   0  0  0  0  0  0
  -27.5869  -14.2356   19.4255 H   0  0  0  0  0  0
  -28.7474  -12.2426   21.4381 H   0  0  0  0  0  0
  -28.4329  -13.9411   21.7318 H   0  0  0  0  0  0
  -25.2744   -9.5755   22.4749 H   0  0  0  0  0  0
  -24.0014   -7.4677   22.7459 H   0  0  0  0  0  0
  -21.0818   -8.8727   19.8962 H   0  0  0  0  0  0
  -22.3635  -10.9661   19.6154 H   0  0  0  0  0  0
  -21.2001   -7.6130   23.9674 H   0  0  0  0  0  0
  -21.1456   -6.0519   25.9047 H   0  0  0  0  0  0
  -22.0624   -2.7584   23.2853 H   0  0  0  0  0  0
  -22.4018  -12.0082   22.4941 H   0  0  0  0  0  0
  -21.0942  -13.1302   22.2393 H   0  0  0  0  0  0
  -24.6637  -15.8568   20.5406 H   0  0  0  0  0  0
  -26.2852  -15.6395   20.1180 H   0  0  0  0  0  0
  -26.7248  -32.5390   23.1017 H   0  0  0  0  0  0
  -25.0290  -33.9671   25.0466 H   0  0  0  0  0  0
  -22.7268  -31.2981   21.3799 H   0  0  0  0  0  0
  -23.3771  -35.9613   23.3276 H   0  0  0  0  0  0
  -24.3623  -36.8903   22.2054 H   0  0  0  0  0  0
  -23.7291  -37.6468   23.6669 H   0  0  0  0  0  0
  -26.1239  -31.5386   20.6012 H   0  0  0  0  0  0
  -26.8486  -30.8202   22.0059 H   0  0  0  0  0  0
  -28.1295  -28.9580   21.2139 H   0  0  0  0  0  0
  -26.0145  -25.8590   19.1037 H   0  0  0  0  0  0
  -23.9896  -27.2561   19.0534 H   0  0  0  0  0  0
  -23.7967  -30.5800   19.3973 H   0  0  0  0  0  0
  -22.7718  -29.2464   19.8324 H   0  0  0  0  0  0
  -25.1331  -36.1828   25.0793 H   0  0  0  0  0  0
  -21.0010  -28.3309   24.1365 H   0  0  0  0  0  0
  -20.5758  -26.2325   23.3604 H   0  0  0  0  0  0
  -21.6666  -26.7468   22.1177 H   0  0  0  0  0  0
  -19.6979  -25.6284   21.1249 H   0  0  0  0  0  0
  -19.6740  -27.3180   20.6743 H   0  0  0  0  0  0
  -17.4239  -26.6644   21.3990 H   0  0  0  0  0  0
  -18.0337  -26.0065   22.9003 H   0  0  0  0  0  0
  -19.7961  -30.7258   24.2225 H   0  0  0  0  0  0
  -17.5048  -31.6266   24.5151 H   0  0  0  0  0  0
  -15.5373  -30.2982   23.7689 H   0  0  0  0  0  0
  -15.8670  -28.0843   22.7043 H   0  0  0  0  0  0
  -24.6016  -30.6966   25.7764 H   0  0  0  0  0  0
  -24.9007  -32.2852   26.4812 H   0  0  0  0  0  0
  -25.8218  -30.8888   27.0171 H   0  0  0  0  0  0
  -26.2953  -29.6642   24.1269 H   0  0  0  0  0  0
  -27.4171  -29.7239   25.4654 H   0  0  0  0  0  0
  -27.8804  -30.4181   23.9314 H   0  0  0  0  0  0
  -27.2624  -33.3594   26.1995 H   0  0  0  0  0  0
  -28.3927  -32.6855   25.0332 H   0  0  0  0  0  0
  -28.0693  -31.8443   26.5432 H   0  0  0  0  0  0
  -28.2552  -38.0113   24.7513 H   0  0  0  0  0  0
  -28.1098  -36.2634   24.6261 H   0  0  0  0  0  0
  -27.2281  -37.1384   25.8856 H   0  0  0  0  0  0
  -20.9410  -29.8782   21.6810 H   0  0  0  0  0  0
  -26.0137  -38.2794   24.1443 H   0  0  0  0  0  0
  -30.7152  -20.6051   18.7488 H   0  0  0  0  0  0
  -28.0850  -18.1497   19.4808 H   0  0  0  0  0  0
  -29.3379  -18.5711   18.3162 H   0  0  0  0  0  0
  -28.6543  -15.9757   18.7035 H   0  0  0  0  0  0
  -30.3263  -16.4195   18.4281 H   0  0  0  0  0  0
  -31.1370  -17.2007   21.7092 H   0  0  0  0  0  0
  -29.4324  -17.2411   22.0703 H   0  0  0  0  0  0
  -30.9723  -18.8336   20.0296 H   0  0  0  0  0  0
  -28.7933  -25.3673   18.0568 H   0  0  0  0  0  0
  -30.2224  -24.7133   17.2986 H   0  0  0  0  0  0
  -30.3880  -25.6738   18.7637 H   0  0  0  0  0  0
  -29.0818  -23.3861   23.5024 H   0  0  0  0  0  0
  -29.3896  -21.6562   23.5857 H   0  0  0  0  0  0
  -27.9392  -22.3347   24.3348 H   0  0  0  0  0  0
  -26.5390  -20.6975   21.2177 H   0  0  0  0  0  0
  -27.5554  -20.0334   22.5058 H   0  0  0  0  0  0
  -26.1608  -20.9994   22.9038 H   0  0  0  0  0  0
  -28.4696  -25.1083   21.8684 H   0  0  0  0  0  0
  -27.0600  -24.8134   20.9296 H   0  0  0  0  0  0
  -27.0721  -22.9858   22.1131 H   0  0  0  0  0  0
  1 25  1  0  0  0
  1 30  2  0  0  0
  1 86  1  0  0  0
  2  3  1  0  0  0
  2 25  1  0  0  0
  2 88  1  0  0  0
  2 89  1  0  0  0
  3  4  1  0  0  0
  3 90  1  0  0  0
  3 91  1  0  0  0
  4  5  1  0  0  0
  4 92  1  0  0  0
  4 93  1  0  0  0
  5  6  1  0  0  0
  5 26  1  0  0  0
  5 94  1  0  0  0
  6 25  1  0  0  0
  6 95  1  0  0  0
  6 96  1  0  0  0
  7  8  2  0  0  0
  7 26  1  0  0  0
  7 29  1  0  0  0
  8  9  1  0  0  0
  8 22  1  0  0  0
  9 10  1  0  0  0
  9 27  2  0  0  0
 10 11  2  0  0  0
 10 15  1  0  0  0
 11 12  1  0  0  0
 11 97  1  0  0  0
 12 13  2  0  0  0
 12 98  1  0  0  0
 13 14  1  0  0  0
 13 31  1  0  0  0
 14 15  2  0  0  0
 14 99  1  0  0  0
 15100  1  0  0  0
 16 17  2  0  0  0
 16 21  1  0  0  0
 16 31  1  0  0  0
 17 18  1  0  0  0
 17101  1  0  0  0
 18 19  2  0  0  0
 18102  1  0  0  0
 19 20  1  0  0  0
 19 24  1  0  0  0
 20 21  2  0  0  0
 20103  1  0  0  0
 21 23  1  0  0  0
 22 28  1  0  0  0
 22 32  2  0  0  0
 26 27  1  0  0  0
 28104  1  0  0  0
 28105  1  0  0  0
 29106  1  0  0  0
 29107  1  0  0  0
 33 34  1  0  0  0
 33 66  1  0  0  0
 33 70  2  0  0  0
 34 36  1  0  0  0
 34 59  1  0  0  0
 34108  1  0  0  0
 35 44  2  0  0  0
 35 45  1  0  0  0
 35 68  1  0  0  0
 36 56  1  0  0  0
 36109  1  0  0  0
 37 39  1  0  0  0
 37 47  1  0  0  0
 37 66  1  0  0  0
 37110  1  0  0  0
 38 43  2  0  0  0
 38 46  1  0  0  0
 38 47  1  0  0  0
 39 64  1  0  0  0
 39 67  2  0  0  0
 40 52  1  0  0  0
 40 53  2  0  0  0
 40 58  1  0  0  0
 41111  1  0  0  0
 41112  1  0  0  0
 41113  1  0  0  0
 41 48  1  0  0  0
 42 43  1  0  0  0
 42 66  1  0  0  0
 42114  1  0  0  0
 42115  1  0  0  0
 43 44  1  0  0  0
 44116  1  0  0  0
 45 46  2  0  0  0
 45117  1  0  0  0
 46118  1  0  0  0
 47119  1  0  0  0
 47120  1  0  0  0
 48 56  1  0  0  0
 48 65  1  0  0  0
 48121  1  0  0  0
 49 50  1  0  0  0
 49 53  1  0  0  0
 49 64  1  0  0  0
 49122  1  0  0  0
 50 51  1  0  0  0
 50123  1  0  0  0
 50124  1  0  0  0
 51 52  1  0  0  0
 51125  1  0  0  0
 51126  1  0  0  0
 52127  1  0  0  0
 52128  1  0  0  0
 53 54  1  0  0  0
 54 55  2  0  0  0
 54129  1  0  0  0
 55 57  1  0  0  0
 55130  1  0  0  0
 56 69  2  0  0  0
 57 58  2  0  0  0
 57131  1  0  0  0
 58132  1  0  0  0
 59 60  1  0  0  0
 59 61  1  0  0  0
 59 62  1  0  0  0
 60133  1  0  0  0
 60134  1  0  0  0
 60135  1  0  0  0
 61136  1  0  0  0
 61137  1  0  0  0
 61138  1  0  0  0
 62139  1  0  0  0
 62140  1  0  0  0
 62141  1  0  0  0
 63 65  1  0  0  0
 63142  1  0  0  0
 63143  1  0  0  0
 63144  1  0  0  0
 64145  1  0  0  0
 65146  1  0  0  0
 68 83  1  0  0  0
 71 74  2  0  0  0
 71 85  1  0  0  0
 71147  1  0  0  0
 72 73  2  0  0  0
 72 74  1  0  0  0
 72 84  1  0  0  0
 73 75  1  0  0  0
 73 83  1  0  0  0
 74 87  1  0  0  0
 75 80  1  0  0  0
 75 85  2  0  0  0
 76 77  1  0  0  0
 76 79  1  0  0  0
 76148  1  0  0  0
 76149  1  0  0  0
 77 86  1  0  0  0
 77150  1  0  0  0
 77151  1  0  0  0
 78 79  1  0  0  0
 78 86  1  0  0  0
 78152  1  0  0  0
 78153  1  0  0  0
 79 87  1  0  0  0
 79154  1  0  0  0
 80155  1  0  0  0
 80156  1  0  0  0
 80157  1  0  0  0
 81158  1  0  0  0
 81159  1  0  0  0
 81160  1  0  0  0
 81 84  1  0  0  0
 82 84  1  0  0  0
 82161  1  0  0  0
 82162  1  0  0  0
 82163  1  0  0  0
 83164  1  0  0  0
 83165  1  0  0  0
 84166  1  0  0  0
M  ISO  4   1 100  68 101  83 101  86 100
M  END
> <chiral flag>
0

> <version>
0

> <s_m_source_file>
/data/baiqing/PycharmProjects/Reinvent-master-3.2/result/LINK_invent/BTK/process_docking_weight1_custom_sum_contain_oxygen_bond_distance_aromatic_linkinvent_7_9_3/rearranged_h_0169.sdf

> <i_m_source_file_index>
68

> <r_mmod_Potential_Energy-OPLS-2005>
318.756317138672

> <r_mmod_Stretch_Energy-OPLS-2005>
141.962677001953

> <r_mmod_Bend_Energy-OPLS-2005>
205.283218383789

> <r_mmod_Torsional_Energy-OPLS-2005>
366.870056152344

> <r_mmod_Improper_Torsional_Energy-OPLS-2005>
11.1386747360229

> <r_mmod_Van_der_Waal_Energy-OPLS-2005>
134.88786315918

> <r_mmod_Electrostatic_Energy-OPLS-2005>
-440.041412353516

> <r_mmod_Solvation_Energy-OPLS-2005>
-202.594787597656

> <b_mmod_Minimization_Converged-OPLS-2005>
0

> <r_mmod_RMS_Derivative-OPLS-2005>
5.11294269561768

$$$$
68
                    3D
 Structure written by MMmdl.
159168  0  0  1  0            999 V2000
  -30.7381  -14.4653   20.4680 C   0  0  0  0  0  0
  -30.4105  -12.2747   19.4270 C   0  0  0  0  0  0
  -29.4953  -12.4613   18.2001 C   0  0  0  0  0  0
  -28.0125  -12.3572   18.6062 C   0  0  0  0  0  0
  -27.6561  -13.2133   19.8549 C   0  0  2  0  0  0
  -28.7046  -13.0512   20.9819 C   0  0  0  0  0  0
  -25.2562  -13.8131   20.5654 C   0  0  0  0  0  0
  -24.1825  -13.0408   20.9144 C   0  0  0  0  0  0
  -24.6426  -11.6876   20.8730 C   0  0  0  0  0  0
  -23.9076  -10.4272   21.0432 C   0  0  0  0  0  0
  -24.3638   -9.4201   21.9222 C   0  0  0  0  0  0
  -23.6298   -8.2243   22.0796 C   0  0  0  0  0  0
  -22.4274   -8.0302   21.3560 C   0  0  0  0  0  0
  -21.9917   -9.0271   20.4660 C   0  0  0  0  0  0
  -22.7250  -10.2150   20.3073 C   0  0  0  0  0  0
  -21.6841   -6.0741   22.5292 C   0  0  0  0  0  0
  -21.3987   -6.5627   23.8233 C   0  0  0  0  0  0
  -21.3664   -5.6761   24.9192 C   0  0  0  0  0  0
  -21.6059   -4.3028   24.7223 C   0  0  0  0  0  0
  -21.8817   -3.8131   23.4325 C   0  0  0  0  0  0
  -21.9164   -4.6961   22.3389 C   0  0  0  0  0  0
  -22.7852  -13.5223   21.1866 C   0  0  0  0  0  0
  -22.1602   -4.2141   21.0963 F   0  0  0  0  0  0
  -21.5711   -3.4524   25.7738 F   0  0  0  0  0  0
  -30.0315  -13.3052   20.4054 N   0  0  0  0  0  0
  -26.3007  -12.9324   20.3277 N   0  0  0  0  0  0
  -25.9363  -11.6477   20.5769 N   0  0  0  0  0  0
  -22.0479  -12.8201   22.0432 N   0  0  0  0  0  0
  -25.4224  -15.1857   20.4076 N   0  0  0  0  0  0
  -31.9291  -14.5295   20.1679 O   0  0  0  0  0  0
  -21.6613   -6.8906   21.4272 O   0  0  0  0  0  0
  -22.3551  -14.5581   20.6772 O   0  0  0  0  0  0
  -24.6146  -31.8708   23.2095 C   0  0  0  0  0  0
  -25.9062  -32.4822   23.8381 C   0  0  1  0  0  0
  -27.2288  -27.4439   20.0932 C   0  0  0  0  0  0
  -25.5967  -33.8629   24.2354 N   0  0  0  0  0  0
  -23.3988  -30.4945   21.5509 C   0  0  2  0  0  0
  -24.8410  -28.9542   20.1190 C   0  0  0  0  0  0
  -22.7390  -29.4667   22.4989 C   0  0  0  0  0  0
  -18.0264  -28.1358   22.8500 C   0  0  0  0  0  0
  -24.1471  -36.7310   23.2629 C   0  0  0  0  0  0
  -25.9244  -30.8370   21.3587 C   0  0  0  0  0  0
  -26.0008  -29.4682   20.7136 C   0  0  0  0  0  0
  -27.2001  -28.7217   20.6929 C   0  0  0  0  0  0
  -26.0530  -26.9359   19.5043 C   0  0  0  0  0  0
  -24.8587  -27.6824   19.5204 C   0  0  0  0  0  0
  -23.6050  -29.8272   20.1640 C   0  0  0  0  0  0
  -25.4091  -36.3114   24.0330 C   0  0  1  0  0  0
  -20.5856  -28.3652   23.1328 C   0  0  2  0  0  0
  -20.6736  -26.9392   22.5416 C   0  0  0  0  0  0
  -19.5710  -26.6376   21.5213 C   0  0  0  0  0  0
  -18.1894  -26.7911   22.1633 C   0  0  0  0  0  0
  -19.1515  -28.8812   23.2915 C   0  0  0  0  0  0
  -18.9451  -30.1435   23.8919 C   0  0  0  0  0  0
  -17.6452  -30.6576   24.0560 C   0  0  0  0  0  0
  -25.9024  -34.9485   23.5120 C   0  0  0  0  0  0
  -16.5337  -29.9083   23.6320 C   0  0  0  0  0  0
  -16.7254  -28.6486   23.0346 C   0  0  0  0  0  0
  -26.4492  -31.6574   25.0704 C   0  0  0  0  0  0
  -25.3767  -31.3685   26.1457 C   0  0  0  0  0  0
  -27.0308  -30.3023   24.6047 C   0  0  0  0  0  0
  -27.6066  -32.4277   25.7489 C   0  0  0  0  0  0
  -27.5556  -37.1815   24.8473 C   0  0  0  0  0  0
  -21.4109  -29.3036   22.3741 N   0  0  0  0  0  0
  -26.4280  -37.3812   23.9404 N   0  0  0  0  0  0
  -24.6639  -31.0824   22.0993 N   0  0  0  0  0  0
  -23.4180  -28.8195   23.2991 O   0  0  0  0  0  0
  -28.4124  -26.7539   19.9914 O   0  0  0  0  0  0
  -26.5557  -34.8951   22.4662 O   0  0  0  0  0  0
  -23.5359  -32.1456   23.7527 O   0  0  0  0  0  0
  -28.7576  -20.0727   19.4462 C   0  0  0  0  0  0
  -29.0251  -19.7687   21.8411 C   0  0  0  0  0  0
  -29.3888  -18.8280   19.3170 C   0  0  0  0  0  0
  -28.5820  -20.5689   20.7529 C   0  0  0  0  0  0
  -29.7979  -18.1209   20.4356 C   0  0  0  0  0  0
  -29.7537  -18.1314   18.0368 C   0  0  0  0  0  0
  -30.6255  -16.9446   18.5015 C   0  0  0  0  0  0
  -30.5770  -16.8776   20.0613 C   0  0  2  0  0  0
  -27.8634  -21.9031   20.9548 C   0  0  0  0  0  0
  -27.9481  -24.3234   20.3042 C   0  0  0  0  0  0
  -28.5911  -25.6205   20.8465 C   0  0  0  0  0  0
  -29.6228  -18.5551   21.7000 N   0  0  0  0  0  0
  -30.0187  -15.5992   20.5355 N   0  0  0  0  0  0
  -28.7051  -23.0905   20.6638 N   0  3  0  0  0  0
  -31.4569  -12.3342   19.1222 H   0  0  0  0  0  0
  -30.2893  -11.2798   19.8588 H   0  0  0  0  0  0
  -29.7315  -11.7100   17.4434 H   0  0  0  0  0  0
  -29.6790  -13.4292   17.7301 H   0  0  0  0  0  0
  -27.7953  -11.3083   18.8005 H   0  0  0  0  0  0
  -27.3812  -12.6456   17.7643 H   0  0  0  0  0  0
  -27.6878  -14.2547   19.5284 H   0  0  0  0  0  0
  -28.6664  -12.0427   21.3999 H   0  0  0  0  0  0
  -28.4992  -13.7332   21.8105 H   0  0  0  0  0  0
  -25.2775   -9.5659   22.4812 H   0  0  0  0  0  0
  -23.9962   -7.4625   22.7530 H   0  0  0  0  0  0
  -21.0841   -8.8791   19.8978 H   0  0  0  0  0  0
  -22.3710  -10.9696   19.6188 H   0  0  0  0  0  0
  -21.1959   -7.6127   23.9768 H   0  0  0  0  0  0
  -21.1513   -6.0473   25.9114 H   0  0  0  0  0  0
  -22.0628   -2.7608   23.2801 H   0  0  0  0  0  0
  -22.3974  -11.9742   22.4687 H   0  0  0  0  0  0
  -21.1177  -13.1363   22.2824 H   0  0  0  0  0  0
  -24.6388  -15.8201   20.5075 H   0  0  0  0  0  0
  -26.2552  -15.6453   20.0644 H   0  0  0  0  0  0
  -26.7119  -32.5521   23.1130 H   0  0  0  0  0  0
  -25.0249  -33.9803   25.0588 H   0  0  0  0  0  0
  -22.6863  -31.3122   21.4148 H   0  0  0  0  0  0
  -23.3740  -35.9643   23.3318 H   0  0  0  0  0  0
  -24.3564  -36.8902   22.2042 H   0  0  0  0  0  0
  -23.7237  -37.6525   23.6619 H   0  0  0  0  0  0
  -26.0350  -31.5962   20.5833 H   0  0  0  0  0  0
  -26.8134  -30.8930   21.9723 H   0  0  0  0  0  0
  -28.1020  -29.1321   21.1225 H   0  0  0  0  0  0
  -26.0528  -25.9733   19.0133 H   0  0  0  0  0  0
  -23.9664  -27.2842   19.0595 H   0  0  0  0  0  0
  -23.7251  -30.6062   19.4098 H   0  0  0  0  0  0
  -22.7231  -29.2578   19.8622 H   0  0  0  0  0  0
  -25.1269  -36.1958   25.0828 H   0  0  0  0  0  0
  -20.9965  -28.3182   24.1444 H   0  0  0  0  0  0
  -20.5629  -26.2254   23.3594 H   0  0  0  0  0  0
  -21.6604  -26.7396   22.1222 H   0  0  0  0  0  0
  -19.6867  -25.6294   21.1217 H   0  0  0  0  0  0
  -19.6654  -27.3193   20.6745 H   0  0  0  0  0  0
  -17.4170  -26.6687   21.4018 H   0  0  0  0  0  0
  -18.0292  -26.0033   22.9003 H   0  0  0  0  0  0
  -19.7922  -30.7247   24.2285 H   0  0  0  0  0  0
  -17.5002  -31.6266   24.5159 H   0  0  0  0  0  0
  -15.5344  -30.2991   23.7626 H   0  0  0  0  0  0
  -15.8644  -28.0817   22.7052 H   0  0  0  0  0  0
  -24.5977  -30.6986   25.7793 H   0  0  0  0  0  0
  -24.8934  -32.2849   26.4852 H   0  0  0  0  0  0
  -25.8154  -30.8904   27.0224 H   0  0  0  0  0  0
  -26.2836  -29.6828   24.1079 H   0  0  0  0  0  0
  -27.4063  -29.7222   25.4474 H   0  0  0  0  0  0
  -27.8676  -30.4351   23.9195 H   0  0  0  0  0  0
  -27.2690  -33.3589   26.2060 H   0  0  0  0  0  0
  -28.3910  -32.6814   25.0338 H   0  0  0  0  0  0
  -28.0692  -31.8395   26.5431 H   0  0  0  0  0  0
  -28.2598  -38.0085   24.7497 H   0  0  0  0  0  0
  -28.1032  -36.2623   24.6317 H   0  0  0  0  0  0
  -27.2284  -37.1484   25.8886 H   0  0  0  0  0  0
  -20.9233  -29.8844   21.7053 H   0  0  0  0  0  0
  -26.0156  -38.2885   24.1426 H   0  0  0  0  0  0
  -28.4395  -20.6341   18.5788 H   0  0  0  0  0  0
  -28.8908  -20.1055   22.8577 H   0  0  0  0  0  0
  -30.2891  -18.7995   17.3586 H   0  0  0  0  0  0
  -28.8444  -17.7950   17.5371 H   0  0  0  0  0  0
  -31.6555  -17.1158   18.1798 H   0  0  0  0  0  0
  -30.3034  -16.0189   18.0246 H   0  0  0  0  0  0
  -31.5840  -17.0074   20.4607 H   0  0  0  0  0  0
  -27.4728  -21.9751   21.9708 H   0  0  0  0  0  0
  -26.9930  -21.8986   20.2987 H   0  0  0  0  0  0
  -27.8931  -24.3656   19.2162 H   0  0  0  0  0  0
  -26.9232  -24.2622   20.6670 H   0  0  0  0  0  0
  -29.6698  -25.4893   20.9252 H   0  0  0  0  0  0
  -28.2354  -25.8429   21.8539 H   0  0  0  0  0  0
  -29.0260  -15.5514   20.6986 H   0  0  0  0  0  0
  -29.3207  -22.8781   19.8940 H   0  0  0  0  0  0
  -29.2917  -23.2695   21.4638 H   0  0  0  0  0  0
  1 25  1  0  0  0
  1 30  2  0  0  0
  1 83  1  0  0  0
  2  3  1  0  0  0
  2 25  1  0  0  0
  2 85  1  0  0  0
  2 86  1  0  0  0
  3  4  1  0  0  0
  3 87  1  0  0  0
  3 88  1  0  0  0
  4  5  1  0  0  0
  4 89  1  0  0  0
  4 90  1  0  0  0
  5  6  1  0  0  0
  5 26  1  0  0  0
  5 91  1  0  0  0
  6 25  1  0  0  0
  6 92  1  0  0  0
  6 93  1  0  0  0
  7  8  2  0  0  0
  7 26  1  0  0  0
  7 29  1  0  0  0
  8  9  1  0  0  0
  8 22  1  0  0  0
  9 10  1  0  0  0
  9 27  2  0  0  0
 10 11  2  0  0  0
 10 15  1  0  0  0
 11 12  1  0  0  0
 11 94  1  0  0  0
 12 13  2  0  0  0
 12 95  1  0  0  0
 13 14  1  0  0  0
 13 31  1  0  0  0
 14 15  2  0  0  0
 14 96  1  0  0  0
 15 97  1  0  0  0
 16 17  2  0  0  0
 16 21  1  0  0  0
 16 31  1  0  0  0
 17 18  1  0  0  0
 17 98  1  0  0  0
 18 19  2  0  0  0
 18 99  1  0  0  0
 19 20  1  0  0  0
 19 24  1  0  0  0
 20 21  2  0  0  0
 20100  1  0  0  0
 21 23  1  0  0  0
 22 28  1  0  0  0
 22 32  2  0  0  0
 26 27  1  0  0  0
 28101  1  0  0  0
 28102  1  0  0  0
 29103  1  0  0  0
 29104  1  0  0  0
 33 34  1  0  0  0
 33 66  1  0  0  0
 33 70  2  0  0  0
 34 36  1  0  0  0
 34 59  1  0  0  0
 34105  1  0  0  0
 35 44  2  0  0  0
 35 45  1  0  0  0
 35 68  1  0  0  0
 36 56  1  0  0  0
 36106  1  0  0  0
 37 39  1  0  0  0
 37 47  1  0  0  0
 37 66  1  0  0  0
 37107  1  0  0  0
 38 43  2  0  0  0
 38 46  1  0  0  0
 38 47  1  0  0  0
 39 64  1  0  0  0
 39 67  2  0  0  0
 40 52  1  0  0  0
 40 53  2  0  0  0
 40 58  1  0  0  0
 41108  1  0  0  0
 41109  1  0  0  0
 41110  1  0  0  0
 41 48  1  0  0  0
 42 43  1  0  0  0
 42 66  1  0  0  0
 42111  1  0  0  0
 42112  1  0  0  0
 43 44  1  0  0  0
 44113  1  0  0  0
 45 46  2  0  0  0
 45114  1  0  0  0
 46115  1  0  0  0
 47116  1  0  0  0
 47117  1  0  0  0
 48 56  1  0  0  0
 48 65  1  0  0  0
 48118  1  0  0  0
 49 50  1  0  0  0
 49 53  1  0  0  0
 49 64  1  0  0  0
 49119  1  0  0  0
 50 51  1  0  0  0
 50120  1  0  0  0
 50121  1  0  0  0
 51 52  1  0  0  0
 51122  1  0  0  0
 51123  1  0  0  0
 52124  1  0  0  0
 52125  1  0  0  0
 53 54  1  0  0  0
 54 55  2  0  0  0
 54126  1  0  0  0
 55 57  1  0  0  0
 55127  1  0  0  0
 56 69  2  0  0  0
 57 58  2  0  0  0
 57128  1  0  0  0
 58129  1  0  0  0
 59 60  1  0  0  0
 59 61  1  0  0  0
 59 62  1  0  0  0
 60130  1  0  0  0
 60131  1  0  0  0
 60132  1  0  0  0
 61133  1  0  0  0
 61134  1  0  0  0
 61135  1  0  0  0
 62136  1  0  0  0
 62137  1  0  0  0
 62138  1  0  0  0
 63 65  1  0  0  0
 63139  1  0  0  0
 63140  1  0  0  0
 63141  1  0  0  0
 64142  1  0  0  0
 65143  1  0  0  0
 68 81  1  0  0  0
 71 73  2  0  0  0
 71 74  1  0  0  0
 71144  1  0  0  0
 72 74  2  0  0  0
 72 82  1  0  0  0
 72145  1  0  0  0
 73 75  1  0  0  0
 73 76  1  0  0  0
 74 79  1  0  0  0
 75 78  1  0  0  0
 75 82  2  0  0  0
 76 77  1  0  0  0
 76146  1  0  0  0
 76147  1  0  0  0
 77 78  1  0  0  0
 77148  1  0  0  0
 77149  1  0  0  0
 78 83  1  0  0  0
 78150  1  0  0  0
 79 84  1  0  0  0
 79151  1  0  0  0
 79152  1  0  0  0
 80 81  1  0  0  0
 80 84  1  0  0  0
 80153  1  0  0  0
 80154  1  0  0  0
 81155  1  0  0  0
 81156  1  0  0  0
 83157  1  0  0  0
 84158  1  0  0  0
 84159  1  0  0  0
M  CHG  1  84   1
M  ISO  4   1 100  68 101  81 101  83 100
M  END
> <chiral flag>
0

> <version>
0

> <s_m_source_file>
/data/baiqing/PycharmProjects/Reinvent-master-3.2/result/LINK_invent/BTK/process_docking_weight1_custom_sum_contain_oxygen_bond_distance_aromatic_linkinvent_7_9_3/rearranged_h_0169.sdf

> <i_m_source_file_index>
69

> <r_mmod_Potential_Energy-OPLS-2005>
-386.339233398438

> <r_mmod_Stretch_Energy-OPLS-2005>
37.025993347168

> <r_mmod_Bend_Energy-OPLS-2005>
130.953033447266

> <r_mmod_Torsional_Energy-OPLS-2005>
249.023498535156

> <r_mmod_Improper_Torsional_Energy-OPLS-2005>
10.0527410507202

> <r_mmod_Van_der_Waal_Energy-OPLS-2005>
144.237121582031

> <r_mmod_Electrostatic_Energy-OPLS-2005>
-508.584686279297

> <r_mmod_Solvation_Energy-OPLS-2005>
-469.593719482422

> <b_mmod_Minimization_Converged-OPLS-2005>
0

> <r_mmod_RMS_Derivative-OPLS-2005>
4.78107595443726

$$$$
69
                    3D
 Structure written by MMmdl.
167176  0  0  1  0            999 V2000
  -30.5566  -14.7492   20.4896 C   0  0  0  0  0  0
  -30.4513  -12.4564   19.4754 C   0  0  0  0  0  0
  -29.5165  -12.5060   18.2415 C   0  0  0  0  0  0
  -28.0385  -12.3390   18.6479 C   0  0  0  0  0  0
  -27.6485  -13.2218   19.8626 C   0  0  2  0  0  0
  -28.6936  -13.1072   20.9977 C   0  0  0  0  0  0
  -25.2520  -13.8159   20.5678 C   0  0  0  0  0  0
  -24.1806  -13.0420   20.9200 C   0  0  0  0  0  0
  -24.6398  -11.6904   20.8764 C   0  0  0  0  0  0
  -23.9078  -10.4271   21.0414 C   0  0  0  0  0  0
  -24.3612   -9.4191   21.9210 C   0  0  0  0  0  0
  -23.6278   -8.2228   22.0794 C   0  0  0  0  0  0
  -22.4267   -8.0267   21.3576 C   0  0  0  0  0  0
  -21.9899   -9.0244   20.4683 C   0  0  0  0  0  0
  -22.7233  -10.2123   20.3074 C   0  0  0  0  0  0
  -21.6845   -6.0700   22.5278 C   0  0  0  0  0  0
  -21.3978   -6.5610   23.8199 C   0  0  0  0  0  0
  -21.3650   -5.6775   24.9178 C   0  0  0  0  0  0
  -21.6053   -4.3041   24.7233 C   0  0  0  0  0  0
  -21.8819   -3.8122   23.4356 C   0  0  0  0  0  0
  -21.9189   -4.6929   22.3404 C   0  0  0  0  0  0
  -22.7808  -13.5207   21.1822 C   0  0  0  0  0  0
  -22.1667   -4.2119   21.0988 F   0  0  0  0  0  0
  -21.5674   -3.4517   25.7744 F   0  0  0  0  0  0
  -30.0016  -13.4889   20.4385 N   0  0  0  0  0  0
  -26.2953  -12.9354   20.3286 N   0  0  0  0  0  0
  -25.9333  -11.6510   20.5771 N   0  0  0  0  0  0
  -22.0444  -12.8246   22.0399 N   0  0  0  0  0  0
  -25.4194  -15.1869   20.4081 N   0  0  0  0  0  0
  -31.6891  -14.9612   20.0488 O   0  0  0  0  0  0
  -21.6643   -6.8853   21.4246 O   0  0  0  0  0  0
  -22.3493  -14.5503   20.6661 O   0  0  0  0  0  0
  -24.6344  -31.8553   23.1998 C   0  0  0  0  0  0
  -25.9166  -32.4736   23.8363 C   0  0  1  0  0  0
  -27.2192  -27.2465   20.1250 C   0  0  0  0  0  0
  -25.5954  -33.8545   24.2294 N   0  0  0  0  0  0
  -23.4313  -30.4805   21.5433 C   0  0  2  0  0  0
  -24.8772  -28.9260   20.1138 C   0  0  0  0  0  0
  -22.7503  -29.4627   22.4910 C   0  0  0  0  0  0
  -18.0287  -28.1394   22.8478 C   0  0  0  0  0  0
  -24.1477  -36.7291   23.2641 C   0  0  0  0  0  0
  -25.9793  -30.7608   21.3826 C   0  0  0  0  0  0
  -26.0506  -29.3824   20.7266 C   0  0  0  0  0  0
  -27.2233  -28.5548   20.7249 C   0  0  0  0  0  0
  -26.0232  -26.8756   19.4681 C   0  0  0  0  0  0
  -24.8679  -27.6782   19.4758 C   0  0  0  0  0  0
  -23.6506  -29.8175   20.1602 C   0  0  0  0  0  0
  -25.4095  -36.3061   24.0337 C   0  0  1  0  0  0
  -20.5883  -28.3718   23.1239 C   0  0  2  0  0  0
  -20.6756  -26.9426   22.5397 C   0  0  0  0  0  0
  -19.5734  -26.6390   21.5193 C   0  0  0  0  0  0
  -18.1923  -26.7932   22.1618 C   0  0  0  0  0  0
  -19.1540  -28.8872   23.2853 C   0  0  0  0  0  0
  -18.9472  -30.1465   23.8885 C   0  0  0  0  0  0
  -17.6477  -30.6592   24.0564 C   0  0  0  0  0  0
  -25.9052  -34.9433   23.5114 C   0  0  0  0  0  0
  -16.5363  -29.9098   23.6325 C   0  0  0  0  0  0
  -16.7275  -28.6511   23.0344 C   0  0  0  0  0  0
  -26.4533  -31.6546   25.0753 C   0  0  0  0  0  0
  -25.3777  -31.3690   26.1488 C   0  0  0  0  0  0
  -27.0379  -30.2955   24.6241 C   0  0  0  0  0  0
  -27.6099  -32.4265   25.7524 C   0  0  0  0  0  0
  -27.5564  -37.1787   24.8467 C   0  0  0  0  0  0
  -21.4212  -29.3075   22.3633 N   0  0  0  0  0  0
  -26.4268  -37.3760   23.9418 N   0  0  0  0  0  0
  -24.7013  -31.0496   22.0980 N   0  0  0  0  0  0
  -23.4196  -28.8163   23.3011 O   0  0  0  0  0  0
  -28.3058  -26.3303   20.1675 O   0  0  0  0  0  0
  -26.5622  -34.8903   22.4678 O   0  0  0  0  0  0
  -23.5486  -32.1406   23.7268 O   0  0  0  0  0  0
  -28.7394  -22.2459   20.4047 C   0  0  0  0  0  0
  -29.0748  -23.6651   20.2314 C   0  0  0  0  0  0
  -29.7189  -21.1594   20.2796 C   0  0  0  0  0  0
  -30.4354  -23.9121   19.9418 C   0  0  0  0  0  0
  -31.0349  -21.6310   20.0188 C   0  0  0  0  0  0
  -30.1470  -18.5612   20.9303 C   0  0  0  0  0  0
  -28.8263  -19.1717   19.0766 C   0  0  0  0  0  0
  -29.3365  -17.2421   20.5657 C   0  0  2  0  0  0
  -28.7927  -17.6068   19.1707 C   0  0  2  0  0  0
  -27.2959  -21.8780   20.7121 C   0  0  0  0  0  0
  -30.9731  -25.3027   19.6576 C   0  0  0  0  0  0
  -32.2106  -20.6975   19.8101 C   0  0  0  0  0  0
  -27.9920  -24.8525   20.2843 C   0  0  0  0  0  0
  -31.3641  -22.9350   19.8688 N   0  0  0  0  0  0
  -29.4006  -19.7247   20.3113 N   0  0  0  0  0  0
  -29.6772  -15.7617   20.8387 N   0  0  0  0  0  0
  -29.5355  -16.9621   18.0733 N   0  3  0  0  0  0
  -31.4859  -12.6120   19.1634 H   0  0  0  0  0  0
  -30.4334  -11.4684   19.9410 H   0  0  0  0  0  0
  -29.7902  -11.7334   17.5226 H   0  0  0  0  0  0
  -29.6456  -13.4564   17.7263 H   0  0  0  0  0  0
  -27.8764  -11.2882   18.8926 H   0  0  0  0  0  0
  -27.3920  -12.5527   17.7968 H   0  0  0  0  0  0
  -27.6535  -14.2513   19.5050 H   0  0  0  0  0  0
  -28.7292  -12.0872   21.3824 H   0  0  0  0  0  0
  -28.4191  -13.7350   21.8489 H   0  0  0  0  0  0
  -25.2739   -9.5673   22.4821 H   0  0  0  0  0  0
  -23.9983   -7.4633   22.7542 H   0  0  0  0  0  0
  -21.0817   -8.8754   19.8994 H   0  0  0  0  0  0
  -22.3677  -10.9676   19.6202 H   0  0  0  0  0  0
  -21.1931   -7.6117   23.9673 H   0  0  0  0  0  0
  -21.1480   -6.0528   25.9076 H   0  0  0  0  0  0
  -22.0600   -2.7577   23.2876 H   0  0  0  0  0  0
  -22.4029  -11.9937   22.4885 H   0  0  0  0  0  0
  -21.1055  -13.1284   22.2568 H   0  0  0  0  0  0
  -24.6549  -15.8363   20.5594 H   0  0  0  0  0  0
  -26.2278  -15.6179   19.9852 H   0  0  0  0  0  0
  -26.7248  -32.5382   23.1116 H   0  0  0  0  0  0
  -25.0061  -33.9691   25.0412 H   0  0  0  0  0  0
  -22.7287  -31.3046   21.3980 H   0  0  0  0  0  0
  -23.3725  -35.9637   23.3293 H   0  0  0  0  0  0
  -24.3572  -36.8921   22.2058 H   0  0  0  0  0  0
  -23.7251  -37.6498   23.6671 H   0  0  0  0  0  0
  -26.1158  -31.5141   20.6064 H   0  0  0  0  0  0
  -26.8598  -30.8154   22.0125 H   0  0  0  0  0  0
  -28.1159  -28.8992   21.2259 H   0  0  0  0  0  0
  -25.9373  -25.9476   18.9277 H   0  0  0  0  0  0
  -23.9739  -27.3252   18.9820 H   0  0  0  0  0  0
  -23.7813  -30.5989   19.4103 H   0  0  0  0  0  0
  -22.7675  -29.2581   19.8474 H   0  0  0  0  0  0
  -25.1253  -36.1908   25.0827 H   0  0  0  0  0  0
  -20.9981  -28.3305   24.1352 H   0  0  0  0  0  0
  -20.5593  -26.2354   23.3621 H   0  0  0  0  0  0
  -21.6627  -26.7402   22.1217 H   0  0  0  0  0  0
  -19.6896  -25.6303   21.1213 H   0  0  0  0  0  0
  -19.6648  -27.3205   20.6721 H   0  0  0  0  0  0
  -17.4167  -26.6661   21.4041 H   0  0  0  0  0  0
  -18.0347  -26.0080   22.9024 H   0  0  0  0  0  0
  -19.7955  -30.7269   24.2244 H   0  0  0  0  0  0
  -17.5037  -31.6260   24.5187 H   0  0  0  0  0  0
  -15.5362  -30.3001   23.7655 H   0  0  0  0  0  0
  -15.8671  -28.0832   22.7062 H   0  0  0  0  0  0
  -24.5990  -30.6969   25.7862 H   0  0  0  0  0  0
  -24.8924  -32.2840   26.4881 H   0  0  0  0  0  0
  -25.8132  -30.8937   27.0287 H   0  0  0  0  0  0
  -26.2986  -29.6691   24.1229 H   0  0  0  0  0  0
  -27.4026  -29.7201   25.4763 H   0  0  0  0  0  0
  -27.8871  -30.4218   23.9524 H   0  0  0  0  0  0
  -27.2739  -33.3588   26.2061 H   0  0  0  0  0  0
  -28.3931  -32.6754   25.0360 H   0  0  0  0  0  0
  -28.0731  -31.8399   26.5466 H   0  0  0  0  0  0
  -28.2560  -38.0100   24.7477 H   0  0  0  0  0  0
  -28.1068  -36.2615   24.6296 H   0  0  0  0  0  0
  -27.2285  -37.1439   25.8875 H   0  0  0  0  0  0
  -20.9411  -29.8848   21.6872 H   0  0  0  0  0  0
  -26.0141  -38.2827   24.1423 H   0  0  0  0  0  0
  -30.2287  -18.7008   22.0093 H   0  0  0  0  0  0
  -31.1569  -18.4605   20.5387 H   0  0  0  0  0  0
  -27.8078  -19.5471   18.9609 H   0  0  0  0  0  0
  -29.3878  -19.5115   18.2051 H   0  0  0  0  0  0
  -28.4668  -17.3441   21.2183 H   0  0  0  0  0  0
  -27.7569  -17.2697   19.0934 H   0  0  0  0  0  0
  -26.7260  -21.7971   19.7869 H   0  0  0  0  0  0
  -26.8103  -22.6152   21.3503 H   0  0  0  0  0  0
  -27.2331  -20.9287   21.2424 H   0  0  0  0  0  0
  -30.3820  -25.7967   18.8866 H   0  0  0  0  0  0
  -32.0027  -25.2764   19.2979 H   0  0  0  0  0  0
  -30.9526  -25.9139   20.5595 H   0  0  0  0  0  0
  -31.9577  -19.9044   19.1077 H   0  0  0  0  0  0
  -32.5159  -20.2617   20.7614 H   0  0  0  0  0  0
  -33.0713  -21.2214   19.3928 H   0  0  0  0  0  0
  -27.4544  -24.7534   21.2287 H   0  0  0  0  0  0
  -27.2906  -24.5634   19.5060 H   0  0  0  0  0  0
  -28.8810  -15.3200   21.2728 H   0  0  0  0  0  0
  -29.4334  -15.9650   18.1190 H   0  0  0  0  0  0
  -30.5141  -17.1842   18.1219 H   0  0  0  0  0  0
  -29.1769  -17.2665   17.1856 H   0  0  0  0  0  0
  1 25  1  0  0  0
  1 30  2  0  0  0
  1 86  1  0  0  0
  2  3  1  0  0  0
  2 25  1  0  0  0
  2 88  1  0  0  0
  2 89  1  0  0  0
  3  4  1  0  0  0
  3 90  1  0  0  0
  3 91  1  0  0  0
  4  5  1  0  0  0
  4 92  1  0  0  0
  4 93  1  0  0  0
  5  6  1  0  0  0
  5 26  1  0  0  0
  5 94  1  0  0  0
  6 25  1  0  0  0
  6 95  1  0  0  0
  6 96  1  0  0  0
  7  8  2  0  0  0
  7 26  1  0  0  0
  7 29  1  0  0  0
  8  9  1  0  0  0
  8 22  1  0  0  0
  9 10  1  0  0  0
  9 27  2  0  0  0
 10 11  2  0  0  0
 10 15  1  0  0  0
 11 12  1  0  0  0
 11 97  1  0  0  0
 12 13  2  0  0  0
 12 98  1  0  0  0
 13 14  1  0  0  0
 13 31  1  0  0  0
 14 15  2  0  0  0
 14 99  1  0  0  0
 15100  1  0  0  0
 16 17  2  0  0  0
 16 21  1  0  0  0
 16 31  1  0  0  0
 17 18  1  0  0  0
 17101  1  0  0  0
 18 19  2  0  0  0
 18102  1  0  0  0
 19 20  1  0  0  0
 19 24  1  0  0  0
 20 21  2  0  0  0
 20103  1  0  0  0
 21 23  1  0  0  0
 22 28  1  0  0  0
 22 32  2  0  0  0
 26 27  1  0  0  0
 28104  1  0  0  0
 28105  1  0  0  0
 29106  1  0  0  0
 29107  1  0  0  0
 33 34  1  0  0  0
 33 66  1  0  0  0
 33 70  2  0  0  0
 34 36  1  0  0  0
 34 59  1  0  0  0
 34108  1  0  0  0
 35 44  2  0  0  0
 35 45  1  0  0  0
 35 68  1  0  0  0
 36 56  1  0  0  0
 36109  1  0  0  0
 37 39  1  0  0  0
 37 47  1  0  0  0
 37 66  1  0  0  0
 37110  1  0  0  0
 38 43  2  0  0  0
 38 46  1  0  0  0
 38 47  1  0  0  0
 39 64  1  0  0  0
 39 67  2  0  0  0
 40 52  1  0  0  0
 40 53  2  0  0  0
 40 58  1  0  0  0
 41111  1  0  0  0
 41112  1  0  0  0
 41113  1  0  0  0
 41 48  1  0  0  0
 42 43  1  0  0  0
 42 66  1  0  0  0
 42114  1  0  0  0
 42115  1  0  0  0
 43 44  1  0  0  0
 44116  1  0  0  0
 45 46  2  0  0  0
 45117  1  0  0  0
 46118  1  0  0  0
 47119  1  0  0  0
 47120  1  0  0  0
 48 56  1  0  0  0
 48 65  1  0  0  0
 48121  1  0  0  0
 49 50  1  0  0  0
 49 53  1  0  0  0
 49 64  1  0  0  0
 49122  1  0  0  0
 50 51  1  0  0  0
 50123  1  0  0  0
 50124  1  0  0  0
 51 52  1  0  0  0
 51125  1  0  0  0
 51126  1  0  0  0
 52127  1  0  0  0
 52128  1  0  0  0
 53 54  1  0  0  0
 54 55  2  0  0  0
 54129  1  0  0  0
 55 57  1  0  0  0
 55130  1  0  0  0
 56 69  2  0  0  0
 57 58  2  0  0  0
 57131  1  0  0  0
 58132  1  0  0  0
 59 60  1  0  0  0
 59 61  1  0  0  0
 59 62  1  0  0  0
 60133  1  0  0  0
 60134  1  0  0  0
 60135  1  0  0  0
 61136  1  0  0  0
 61137  1  0  0  0
 61138  1  0  0  0
 62139  1  0  0  0
 62140  1  0  0  0
 62141  1  0  0  0
 63 65  1  0  0  0
 63142  1  0  0  0
 63143  1  0  0  0
 63144  1  0  0  0
 64145  1  0  0  0
 65146  1  0  0  0
 68 83  1  0  0  0
 71 72  2  0  0  0
 71 73  1  0  0  0
 71 80  1  0  0  0
 72 74  1  0  0  0
 72 83  1  0  0  0
 73 75  2  0  0  0
 73 85  1  0  0  0
 74 81  1  0  0  0
 74 84  2  0  0  0
 75 82  1  0  0  0
 75 84  1  0  0  0
 76 78  1  0  0  0
 76 85  1  0  0  0
 76147  1  0  0  0
 76148  1  0  0  0
 77 79  1  0  0  0
 77 85  1  0  0  0
 77149  1  0  0  0
 77150  1  0  0  0
 78 79  1  0  0  0
 78 86  1  0  0  0
 78151  1  0  0  0
 79 87  1  0  0  0
 79152  1  0  0  0
 80153  1  0  0  0
 80154  1  0  0  0
 80155  1  0  0  0
 81156  1  0  0  0
 81157  1  0  0  0
 81158  1  0  0  0
 82159  1  0  0  0
 82160  1  0  0  0
 82161  1  0  0  0
 83162  1  0  0  0
 83163  1  0  0  0
 86164  1  0  0  0
 87165  1  0  0  0
 87166  1  0  0  0
 87167  1  0  0  0
M  CHG  1  87   1
M  ISO  4   1 100  68 101  83 101  86 100
M  END
> <chiral flag>
0

> <version>
0

> <s_m_source_file>
/data/baiqing/PycharmProjects/Reinvent-master-3.2/result/LINK_invent/BTK/process_docking_weight1_custom_sum_contain_oxygen_bond_distance_aromatic_linkinvent_7_9_3/rearranged_h_0169.sdf

> <i_m_source_file_index>
70

> <r_mmod_Potential_Energy-OPLS-2005>
-55.1583061218262

> <r_mmod_Stretch_Energy-OPLS-2005>
138.045639038086

> <r_mmod_Bend_Energy-OPLS-2005>
273.235900878906

> <r_mmod_Torsional_Energy-OPLS-2005>
337.683258056641

> <r_mmod_Improper_Torsional_Energy-OPLS-2005>
10.2568941116333

> <r_mmod_Van_der_Waal_Energy-OPLS-2005>
140.488922119141

> <r_mmod_Electrostatic_Energy-OPLS-2005>
-530.828002929688

> <r_mmod_Solvation_Energy-OPLS-2005>
-516.593139648438

> <b_mmod_Minimization_Converged-OPLS-2005>
0

> <r_mmod_RMS_Derivative-OPLS-2005>
3.63652157783508

$$$$
70
                    3D
 Structure written by MMmdl.
172181  0  0  1  0            999 V2000
  -30.2826  -14.5592   20.4741 C   0  0  0  0  0  0
  -30.5242  -12.3708   19.2611 C   0  0  0  0  0  0
  -29.4862  -12.2521   18.1041 C   0  0  0  0  0  0
  -28.0250  -11.9230   18.5932 C   0  0  0  0  0  0
  -27.6926  -12.8330   19.7707 C   0  0  2  0  0  0
  -28.8048  -12.6281   20.8464 C   0  0  0  0  0  0
  -25.5094  -14.1901   20.9470 C   0  0  0  0  0  0
  -24.3050  -13.2847   20.8585 C   0  0  0  0  0  0
  -24.6456  -11.8673   20.8085 C   0  0  0  0  0  0
  -23.9064  -10.5522   20.9881 C   0  0  0  0  0  0
  -24.3610   -9.5369   21.8786 C   0  0  0  0  0  0
  -23.6520   -8.3174   22.0590 C   0  0  0  0  0  0
  -22.4525   -8.0783   21.3463 C   0  0  0  0  0  0
  -22.0126   -9.0635   20.4441 C   0  0  0  0  0  0
  -22.7267  -10.2684   20.2615 C   0  0  0  0  0  0
  -21.7115   -6.0964   22.5239 C   0  0  0  0  0  0
  -21.4215   -6.5802   23.8183 C   0  0  0  0  0  0
  -21.3722   -5.6908   24.9114 C   0  0  0  0  0  0
  -21.6043   -4.3154   24.7147 C   0  0  0  0  0  0
  -21.8805   -3.8281   23.4251 C   0  0  0  0  0  0
  -21.9280   -4.7144   22.3339 C   0  0  0  0  0  0
  -22.7858  -13.5193   20.9936 C   0  0  0  0  0  0
  -22.1703   -4.2297   21.0924 F   0  0  0  0  0  0
  -21.5574   -3.4611   25.7651 F   0  0  0  0  0  0
  -29.9698  -13.2499   20.2951 N   0  0  0  0  0  0
  -26.3117  -13.0477   20.3103 N   0  0  0  0  0  0
  -25.8731  -11.7820   20.4815 N   0  0  0  0  0  0
  -22.0597  -12.8075   21.8610 N   0  0  0  0  0  0
  -26.1406  -16.0261   22.1283 N   0  0  0  0  0  0
  -31.4427  -14.9384   20.2344 O   0  0  0  0  0  0
  -21.7031   -6.9203   21.4212 O   0  0  0  0  0  0
  -22.1844  -14.2906   20.2653 O   0  0  0  0  0  0
  -24.6368  -31.8542   23.2005 C   0  0  0  0  0  0
  -25.9185  -32.4740   23.8330 C   0  0  1  0  0  0
  -27.1030  -27.2039   20.1067 C   0  0  0  0  0  0
  -25.5973  -33.8546   24.2248 N   0  0  0  0  0  0
  -23.4274  -30.4886   21.5480 C   0  0  2  0  0  0
  -24.8487  -28.9442   20.0948 C   0  0  0  0  0  0
  -22.7521  -29.4601   22.4895 C   0  0  0  0  0  0
  -18.0302  -28.1391   22.8488 C   0  0  0  0  0  0
  -24.1492  -36.7278   23.2635 C   0  0  0  0  0  0
  -25.9812  -30.7467   21.3866 C   0  0  0  0  0  0
  -26.0329  -29.3720   20.7146 C   0  0  0  0  0  0
  -27.1810  -28.5086   20.7129 C   0  0  0  0  0  0
  -25.9187  -26.8676   19.4416 C   0  0  0  0  0  0
  -24.7990  -27.7058   19.4444 C   0  0  0  0  0  0
  -23.6366  -29.8481   20.1548 C   0  0  0  0  0  0
  -25.4119  -36.3060   24.0317 C   0  0  1  0  0  0
  -20.5912  -28.3702   23.1264 C   0  0  2  0  0  0
  -20.6795  -26.9415   22.5406 C   0  0  0  0  0  0
  -19.5754  -26.6381   21.5227 C   0  0  0  0  0  0
  -18.1936  -26.7933   22.1638 C   0  0  0  0  0  0
  -19.1557  -28.8863   23.2874 C   0  0  0  0  0  0
  -18.9469  -30.1467   23.8882 C   0  0  0  0  0  0
  -17.6463  -30.6583   24.0560 C   0  0  0  0  0  0
  -25.9068  -34.9431   23.5081 C   0  0  0  0  0  0
  -16.5355  -29.9076   23.6331 C   0  0  0  0  0  0
  -16.7287  -28.6501   23.0346 C   0  0  0  0  0  0
  -26.4519  -31.6585   25.0745 C   0  0  0  0  0  0
  -25.3719  -31.3758   26.1458 C   0  0  0  0  0  0
  -27.0378  -30.2994   24.6278 C   0  0  0  0  0  0
  -27.6066  -32.4340   25.7519 C   0  0  0  0  0  0
  -27.5581  -37.1800   24.8459 C   0  0  0  0  0  0
  -21.4227  -29.3050   22.3656 N   0  0  0  0  0  0
  -26.4286  -37.3767   23.9409 N   0  0  0  0  0  0
  -24.7024  -31.0483   22.1003 N   0  0  0  0  0  0
  -23.4232  -28.8108   23.2963 O   0  0  0  0  0  0
  -28.0438  -26.1617   20.1520 O   0  0  0  0  0  0
  -26.5631  -34.8908   22.4644 O   0  0  0  0  0  0
  -23.5516  -32.1390   23.7289 O   0  0  0  0  0  0
  -27.7293  -22.3231   21.2390 C   0  0  0  0  0  0
  -27.3028  -20.9599   21.0791 C   0  0  0  0  0  0
  -26.4662  -22.9666   19.3393 C   0  0  0  0  0  0
  -27.3162  -23.4081   20.4046 C   0  0  0  0  0  0
  -26.3994  -20.5239   20.0673 C   0  0  0  0  0  0
  -26.0246  -21.5893   19.1732 C   0  0  0  0  0  0
  -26.9266  -14.0436   22.7649 C   0  0  0  0  0  0
  -24.0880  -16.0162   21.3223 C   0  0  0  0  0  0
  -27.6983  -15.1816   20.8166 C   0  0  1  0  0  0
  -25.9209  -16.3446   19.9414 C   0  0  1  0  0  0
  -24.7460  -14.6128   23.1359 C   0  0  0  0  0  0
  -25.0549  -21.2911   18.0441 C   0  0  0  0  0  0
  -24.0460  -13.3835   23.7973 C   0  0  0  0  0  0
  -24.6308  -15.5579   24.3945 C   0  0  0  0  0  0
  -25.6837  -19.0659   20.1790 C   0  0  0  0  0  0
  -27.5870  -24.9284   20.9135 C   0  0  0  0  0  0
  -29.2169  -15.4246   20.7572 N   0  0  0  0  0  0
  -26.0246  -17.7908   19.3492 N   0  3  0  0  0  0
  -31.4736  -12.7557   18.8802 H   0  0  0  0  0  0
  -30.7464  -11.3886   19.6780 H   0  0  0  0  0  0
  -29.8142  -11.4862   17.3990 H   0  0  0  0  0  0
  -29.4847  -13.1816   17.5319 H   0  0  0  0  0  0
  -27.9719  -10.8811   18.9087 H   0  0  0  0  0  0
  -27.3082  -12.0200   17.7732 H   0  0  0  0  0  0
  -27.8495  -13.5547   18.9902 H   0  0  0  0  0  0
  -28.9556  -11.5621   21.0227 H   0  0  0  0  0  0
  -28.7542  -13.0277   21.8378 H   0  0  0  0  0  0
  -25.2710   -9.7048   22.4368 H   0  0  0  0  0  0
  -24.0388   -7.5779   22.7454 H   0  0  0  0  0  0
  -21.1116   -8.8922   19.8725 H   0  0  0  0  0  0
  -22.3504  -10.9931   19.5542 H   0  0  0  0  0  0
  -21.2294   -7.6316   23.9736 H   0  0  0  0  0  0
  -21.1528   -6.0615   25.9018 H   0  0  0  0  0  0
  -22.0498   -2.7741   23.2711 H   0  0  0  0  0  0
  -22.4952  -12.1377   22.4752 H   0  0  0  0  0  0
  -21.0630  -12.9515   21.9220 H   0  0  0  0  0  0
  -25.4573  -16.2009   22.8574 H   0  0  0  0  0  0
  -27.0592  -15.9213   22.5463 H   0  0  0  0  0  0
  -26.7234  -32.5340   23.1046 H   0  0  0  0  0  0
  -25.0138  -33.9683   25.0408 H   0  0  0  0  0  0
  -22.7251  -31.3135   21.4163 H   0  0  0  0  0  0
  -23.3757  -35.9608   23.3288 H   0  0  0  0  0  0
  -24.3577  -36.8917   22.2050 H   0  0  0  0  0  0
  -23.7242  -37.6472   23.6671 H   0  0  0  0  0  0
  -26.1380  -31.5102   20.6232 H   0  0  0  0  0  0
  -26.8554  -30.7790   22.0257 H   0  0  0  0  0  0
  -28.0845  -28.8059   21.2261 H   0  0  0  0  0  0
  -25.8367  -25.9101   18.9499 H   0  0  0  0  0  0
  -23.8937  -27.3825   18.9496 H   0  0  0  0  0  0
  -23.7739  -30.6363   19.4134 H   0  0  0  0  0  0
  -22.7459  -29.3013   19.8398 H   0  0  0  0  0  0
  -25.1304  -36.1895   25.0807 H   0  0  0  0  0  0
  -21.0010  -28.3283   24.1388 H   0  0  0  0  0  0
  -20.5722  -26.2304   23.3616 H   0  0  0  0  0  0
  -21.6654  -26.7447   22.1176 H   0  0  0  0  0  0
  -19.6906  -25.6294   21.1254 H   0  0  0  0  0  0
  -19.6688  -27.3196   20.6759 H   0  0  0  0  0  0
  -17.4211  -26.6697   21.4035 H   0  0  0  0  0  0
  -18.0315  -26.0083   22.9036 H   0  0  0  0  0  0
  -19.7935  -30.7301   24.2242 H   0  0  0  0  0  0
  -17.5001  -31.6257   24.5171 H   0  0  0  0  0  0
  -15.5348  -30.2959   23.7664 H   0  0  0  0  0  0
  -15.8697  -28.0810   22.7056 H   0  0  0  0  0  0
  -24.5900  -30.7103   25.7789 H   0  0  0  0  0  0
  -24.8906  -32.2934   26.4849 H   0  0  0  0  0  0
  -25.8017  -30.8958   27.0257 H   0  0  0  0  0  0
  -26.2980  -29.6725   24.1289 H   0  0  0  0  0  0
  -27.4025  -29.7288   25.4828 H   0  0  0  0  0  0
  -27.8875  -30.4264   23.9569 H   0  0  0  0  0  0
  -27.2669  -33.3651   26.2070 H   0  0  0  0  0  0
  -28.3883  -32.6884   25.0350 H   0  0  0  0  0  0
  -28.0722  -31.8484   26.5456 H   0  0  0  0  0  0
  -28.2576  -38.0117   24.7522 H   0  0  0  0  0  0
  -28.1098  -36.2647   24.6264 H   0  0  0  0  0  0
  -27.2301  -37.1423   25.8862 H   0  0  0  0  0  0
  -20.9409  -29.8805   21.6896 H   0  0  0  0  0  0
  -26.0158  -38.2837   24.1417 H   0  0  0  0  0  0
  -28.3373  -22.5477   22.1056 H   0  0  0  0  0  0
  -27.6154  -20.2444   21.8287 H   0  0  0  0  0  0
  -26.0725  -23.7132   18.6657 H   0  0  0  0  0  0
  -27.5237  -14.3420   23.6289 H   0  0  0  0  0  0
  -26.9822  -12.9526   22.7708 H   0  0  0  0  0  0
  -23.1023  -16.1306   20.9071 H   0  0  0  0  0  0
  -23.9676  -16.9823   21.8231 H   0  0  0  0  0  0
  -27.6223  -15.1329   19.7601 H   0  0  0  0  0  0
  -26.6869  -17.0565   20.2728 H   0  0  0  0  0  0
  -25.1210  -22.0459   17.2603 H   0  0  0  0  0  0
  -24.0296  -21.2763   18.4126 H   0  0  0  0  0  0
  -25.2717  -20.3268   17.5841 H   0  0  0  0  0  0
  -24.1622  -12.4452   23.2673 H   0  0  0  0  0  0
  -22.9973  -13.5644   24.0307 H   0  0  0  0  0  0
  -24.5114  -13.1434   24.7553 H   0  0  0  0  0  0
  -25.0103  -16.5681   24.2443 H   0  0  0  0  0  0
  -25.1792  -15.1679   25.2522 H   0  0  0  0  0  0
  -23.5924  -15.6955   24.7035 H   0  0  0  0  0  0
  -24.6126  -19.2292   20.0513 H   0  0  0  0  0  0
  -25.7657  -18.7933   21.2335 H   0  0  0  0  0  0
  -28.3554  -24.8288   21.6796 H   0  0  0  0  0  0
  -26.6968  -25.1916   21.4880 H   0  0  0  0  0  0
  -29.4936  -16.3862   20.8794 H   0  0  0  0  0  0
  -25.4439  -17.8179   18.5279 H   0  0  0  0  0  0
  -26.9750  -17.8943   19.0371 H   0  0  0  0  0  0
  1 25  1  0  0  0
  1 30  2  0  0  0
  1 87  1  0  0  0
  2  3  1  0  0  0
  2 25  1  0  0  0
  2 89  1  0  0  0
  2 90  1  0  0  0
  3  4  1  0  0  0
  3 91  1  0  0  0
  3 92  1  0  0  0
  4  5  1  0  0  0
  4 93  1  0  0  0
  4 94  1  0  0  0
  5  6  1  0  0  0
  5 26  1  0  0  0
  5 95  1  0  0  0
  6 25  1  0  0  0
  6 96  1  0  0  0
  6 97  1  0  0  0
  7  8  2  0  0  0
  7 26  1  0  0  0
  7 29  1  0  0  0
  8  9  1  0  0  0
  8 22  1  0  0  0
  9 10  1  0  0  0
  9 27  2  0  0  0
 10 11  2  0  0  0
 10 15  1  0  0  0
 11 12  1  0  0  0
 11 98  1  0  0  0
 12 13  2  0  0  0
 12 99  1  0  0  0
 13 14  1  0  0  0
 13 31  1  0  0  0
 14 15  2  0  0  0
 14100  1  0  0  0
 15101  1  0  0  0
 16 17  2  0  0  0
 16 21  1  0  0  0
 16 31  1  0  0  0
 17 18  1  0  0  0
 17102  1  0  0  0
 18 19  2  0  0  0
 18103  1  0  0  0
 19 20  1  0  0  0
 19 24  1  0  0  0
 20 21  2  0  0  0
 20104  1  0  0  0
 21 23  1  0  0  0
 22 28  1  0  0  0
 22 32  2  0  0  0
 26 27  1  0  0  0
 28105  1  0  0  0
 28106  1  0  0  0
 29107  1  0  0  0
 29108  1  0  0  0
 33 34  1  0  0  0
 33 66  1  0  0  0
 33 70  2  0  0  0
 34 36  1  0  0  0
 34 59  1  0  0  0
 34109  1  0  0  0
 35 44  2  0  0  0
 35 45  1  0  0  0
 35 68  1  0  0  0
 36 56  1  0  0  0
 36110  1  0  0  0
 37 39  1  0  0  0
 37 47  1  0  0  0
 37 66  1  0  0  0
 37111  1  0  0  0
 38 43  2  0  0  0
 38 46  1  0  0  0
 38 47  1  0  0  0
 39 64  1  0  0  0
 39 67  2  0  0  0
 40 52  1  0  0  0
 40 53  2  0  0  0
 40 58  1  0  0  0
 41112  1  0  0  0
 41113  1  0  0  0
 41114  1  0  0  0
 41 48  1  0  0  0
 42 43  1  0  0  0
 42 66  1  0  0  0
 42115  1  0  0  0
 42116  1  0  0  0
 43 44  1  0  0  0
 44117  1  0  0  0
 45 46  2  0  0  0
 45118  1  0  0  0
 46119  1  0  0  0
 47120  1  0  0  0
 47121  1  0  0  0
 48 56  1  0  0  0
 48 65  1  0  0  0
 48122  1  0  0  0
 49 50  1  0  0  0
 49 53  1  0  0  0
 49 64  1  0  0  0
 49123  1  0  0  0
 50 51  1  0  0  0
 50124  1  0  0  0
 50125  1  0  0  0
 51 52  1  0  0  0
 51126  1  0  0  0
 51127  1  0  0  0
 52128  1  0  0  0
 52129  1  0  0  0
 53 54  1  0  0  0
 54 55  2  0  0  0
 54130  1  0  0  0
 55 57  1  0  0  0
 55131  1  0  0  0
 56 69  2  0  0  0
 57 58  2  0  0  0
 57132  1  0  0  0
 58133  1  0  0  0
 59 60  1  0  0  0
 59 61  1  0  0  0
 59 62  1  0  0  0
 60134  1  0  0  0
 60135  1  0  0  0
 60136  1  0  0  0
 61137  1  0  0  0
 61138  1  0  0  0
 61139  1  0  0  0
 62140  1  0  0  0
 62141  1  0  0  0
 62142  1  0  0  0
 63 65  1  0  0  0
 63143  1  0  0  0
 63144  1  0  0  0
 63145  1  0  0  0
 64146  1  0  0  0
 65147  1  0  0  0
 68 86  1  0  0  0
 71 72  2  0  0  0
 71 74  1  0  0  0
 71148  1  0  0  0
 72 75  1  0  0  0
 72149  1  0  0  0
 73 74  2  0  0  0
 73 76  1  0  0  0
 73150  1  0  0  0
 74 86  1  0  0  0
 75 76  2  0  0  0
 75 85  1  0  0  0
 76 82  1  0  0  0
 77 79  1  0  0  0
 77 81  1  0  0  0
 77151  1  0  0  0
 77152  1  0  0  0
 78 80  1  0  0  0
 78 81  1  0  0  0
 78153  1  0  0  0
 78154  1  0  0  0
 79 80  1  0  0  0
 79 87  1  0  0  0
 79155  1  0  0  0
 80 88  1  0  0  0
 80156  1  0  0  0
 81 83  1  0  0  0
 81 84  1  0  0  0
 82157  1  0  0  0
 82158  1  0  0  0
 82159  1  0  0  0
 83160  1  0  0  0
 83161  1  0  0  0
 83162  1  0  0  0
 84163  1  0  0  0
 84164  1  0  0  0
 84165  1  0  0  0
 85 88  1  0  0  0
 85166  1  0  0  0
 85167  1  0  0  0
 86168  1  0  0  0
 86169  1  0  0  0
 87170  1  0  0  0
 88171  1  0  0  0
 88172  1  0  0  0
M  CHG  1  88   1
M  ISO  4   1 100  68 101  86 101  87 100
M  END
> <chiral flag>
0

> <version>
0

> <s_m_source_file>
/data/baiqing/PycharmProjects/Reinvent-master-3.2/result/LINK_invent/BTK/process_docking_weight1_custom_sum_contain_oxygen_bond_distance_aromatic_linkinvent_7_9_3/rearranged_h_0169.sdf

> <i_m_source_file_index>
71

> <r_mmod_Potential_Energy-OPLS-2005>
9119.93359375

> <r_mmod_Stretch_Energy-OPLS-2005>
5284.32958984375

> <r_mmod_Bend_Energy-OPLS-2005>
948.734436035156

> <r_mmod_Torsional_Energy-OPLS-2005>
485.062957763672

> <r_mmod_Improper_Torsional_Energy-OPLS-2005>
24.3718852996826

> <r_mmod_Van_der_Waal_Energy-OPLS-2005>
2505.068359375

> <r_mmod_Electrostatic_Energy-OPLS-2005>
-390.759674072266

> <r_mmod_Solvation_Energy-OPLS-2005>
-449.350402832031

> <b_mmod_Minimization_Converged-OPLS-2005>
0

> <r_mmod_RMS_Derivative-OPLS-2005>
4.61030149459839

$$$$
71
                    3D
 Structure written by MMmdl.
160169  0  0  1  0            999 V2000
  -30.5642  -14.8728   20.5049 C   0  0  0  0  0  0
  -30.4477  -12.5467   19.5132 C   0  0  0  0  0  0
  -29.5431  -12.5604   18.2567 C   0  0  0  0  0  0
  -28.0632  -12.3576   18.6497 C   0  0  0  0  0  0
  -27.6429  -13.2474   19.8543 C   0  0  2  0  0  0
  -28.6805  -13.1768   20.9930 C   0  0  0  0  0  0
  -25.2503  -13.8170   20.5697 C   0  0  0  0  0  0
  -24.1792  -13.0412   20.9116 C   0  0  0  0  0  0
  -24.6405  -11.6886   20.8669 C   0  0  0  0  0  0
  -23.9090  -10.4261   21.0351 C   0  0  0  0  0  0
  -24.3629   -9.4190   21.9153 C   0  0  0  0  0  0
  -23.6273   -8.2255   22.0769 C   0  0  0  0  0  0
  -22.4260   -8.0274   21.3568 C   0  0  0  0  0  0
  -21.9862   -9.0253   20.4706 C   0  0  0  0  0  0
  -22.7214  -10.2112   20.3066 C   0  0  0  0  0  0
  -21.6826   -6.0747   22.5293 C   0  0  0  0  0  0
  -21.4037   -6.5663   23.8226 C   0  0  0  0  0  0
  -21.3670   -5.6807   24.9186 C   0  0  0  0  0  0
  -21.6022   -4.3059   24.7230 C   0  0  0  0  0  0
  -21.8808   -3.8157   23.4350 C   0  0  0  0  0  0
  -21.9182   -4.6984   22.3408 C   0  0  0  0  0  0
  -22.7820  -13.5244   21.1730 C   0  0  0  0  0  0
  -22.1641   -4.2174   21.0984 F   0  0  0  0  0  0
  -21.5596   -3.4541   25.7732 F   0  0  0  0  0  0
  -29.9617  -13.6182   20.4304 N   0  0  0  0  0  0
  -26.2953  -12.9437   20.3233 N   0  0  0  0  0  0
  -25.9352  -11.6554   20.5638 N   0  0  0  0  0  0
  -22.0421  -12.8384   22.0345 N   0  0  0  0  0  0
  -25.4138  -15.1909   20.4268 N   0  0  0  0  0  0
  -31.7332  -14.9588   20.1085 O   0  0  0  0  0  0
  -21.6618   -6.8889   21.4256 O   0  0  0  0  0  0
  -22.3576  -14.5553   20.6517 O   0  0  0  0  0  0
  -24.6444  -31.8449   23.1928 C   0  0  0  0  0  0
  -25.9240  -32.4665   23.8302 C   0  0  1  0  0  0
  -27.1994  -27.1550   20.1600 C   0  0  0  0  0  0
  -25.6007  -33.8476   24.2235 N   0  0  0  0  0  0
  -23.4457  -30.4749   21.5322 C   0  0  2  0  0  0
  -24.8948  -28.9173   20.0988 C   0  0  0  0  0  0
  -22.7575  -29.4564   22.4790 C   0  0  0  0  0  0
  -18.0308  -28.1389   22.8477 C   0  0  0  0  0  0
  -24.1488  -36.7254   23.2631 C   0  0  0  0  0  0
  -26.0039  -30.7217   21.3946 C   0  0  0  0  0  0
  -26.0687  -29.3412   20.7336 C   0  0  0  0  0  0
  -27.2222  -28.4751   20.7557 C   0  0  0  0  0  0
  -26.0101  -26.8486   19.4545 C   0  0  0  0  0  0
  -24.8787  -27.6822   19.4402 C   0  0  0  0  0  0
  -23.6735  -29.8180   20.1458 C   0  0  0  0  0  0
  -25.4091  -36.2995   24.0321 C   0  0  1  0  0  0
  -20.5942  -28.3712   23.1194 C   0  0  2  0  0  0
  -20.6798  -26.9405   22.5395 C   0  0  0  0  0  0
  -19.5738  -26.6369   21.5222 C   0  0  0  0  0  0
  -18.1928  -26.7921   22.1646 C   0  0  0  0  0  0
  -19.1590  -28.8856   23.2838 C   0  0  0  0  0  0
  -18.9503  -30.1454   23.8855 C   0  0  0  0  0  0
  -17.6499  -30.6586   24.0543 C   0  0  0  0  0  0
  -25.9063  -34.9368   23.5084 C   0  0  0  0  0  0
  -16.5376  -29.9084   23.6332 C   0  0  0  0  0  0
  -16.7295  -28.6511   23.0341 C   0  0  0  0  0  0
  -26.4588  -31.6508   25.0734 C   0  0  0  0  0  0
  -25.3911  -31.3682   26.1556 C   0  0  0  0  0  0
  -27.0444  -30.2889   24.6297 C   0  0  0  0  0  0
  -27.6063  -32.4329   25.7537 C   0  0  0  0  0  0
  -27.5547  -37.1759   24.8462 C   0  0  0  0  0  0
  -21.4273  -29.3045   22.3556 N   0  0  0  0  0  0
  -26.4245  -37.3713   23.9440 N   0  0  0  0  0  0
  -24.7168  -31.0380   22.0918 N   0  0  0  0  0  0
  -23.4245  -28.8095   23.2920 O   0  0  0  0  0  0
  -28.2053  -26.1306   20.2886 O   0  0  0  0  0  0
  -26.5607  -34.8845   22.4639 O   0  0  0  0  0  0
  -23.5584  -32.1304   23.7185 O   0  0  0  0  0  0
  -28.2634  -20.9825   21.6485 C   0  0  0  0  0  0
  -28.9934  -20.2005   20.6963 C   0  0  0  0  0  0
  -27.9798  -22.3989   21.5389 C   0  0  0  0  0  0
  -28.4365  -23.2217   20.4443 C   0  0  0  0  0  0
  -29.2483  -22.4633   19.5217 C   0  0  0  0  0  0
  -29.5018  -21.0280   19.6388 C   0  0  0  0  0  0
  -28.9193  -17.8785   22.1474 C   0  0  0  0  0  0
  -28.9713  -16.3342   21.8985 C   0  0  0  0  0  0
  -30.0276  -17.4780   20.1398 C   0  0  0  0  0  0
  -28.9929  -18.5530   20.7675 C   0  0  2  0  0  0
  -27.0652  -22.9935   22.6057 C   0  0  0  0  0  0
  -29.7887  -23.1702   18.2848 C   0  0  0  0  0  0
  -27.7458  -24.6705   20.0805 C   0  0  0  0  0  0
  -29.8021  -16.0613   20.7103 N   0  0  0  0  0  0
  -30.3924  -20.2475   18.3817 Cl  0  0  0  0  0  0
  -31.4945  -12.6768   19.2356 H   0  0  0  0  0  0
  -30.4061  -11.5734   20.0064 H   0  0  0  0  0  0
  -29.8651  -11.7941   17.5480 H   0  0  0  0  0  0
  -29.6544  -13.5167   17.7445 H   0  0  0  0  0  0
  -27.9359  -11.3058   18.9102 H   0  0  0  0  0  0
  -27.4163  -12.5475   17.7931 H   0  0  0  0  0  0
  -27.6305  -14.2731   19.4810 H   0  0  0  0  0  0
  -28.7532  -12.1540   21.3662 H   0  0  0  0  0  0
  -28.3803  -13.7698   21.8529 H   0  0  0  0  0  0
  -25.2766   -9.5644   22.4745 H   0  0  0  0  0  0
  -23.9936   -7.4672   22.7531 H   0  0  0  0  0  0
  -21.0743   -8.8801   19.9096 H   0  0  0  0  0  0
  -22.3618  -10.9665   19.6211 H   0  0  0  0  0  0
  -21.2068   -7.6175   23.9739 H   0  0  0  0  0  0
  -21.1484   -6.0545   25.9095 H   0  0  0  0  0  0
  -22.0568   -2.7625   23.2830 H   0  0  0  0  0  0
  -22.3969  -12.0127   22.4940 H   0  0  0  0  0  0
  -21.1093  -13.1589   22.2505 H   0  0  0  0  0  0
  -24.6351  -15.8290   20.5469 H   0  0  0  0  0  0
  -26.2678  -15.6494   20.1346 H   0  0  0  0  0  0
  -26.7289  -32.5305   23.1017 H   0  0  0  0  0  0
  -25.0246  -33.9586   25.0438 H   0  0  0  0  0  0
  -22.7490  -31.3027   21.3866 H   0  0  0  0  0  0
  -23.3723  -35.9629   23.3280 H   0  0  0  0  0  0
  -24.3576  -36.8902   22.2053 H   0  0  0  0  0  0
  -23.7279  -37.6458   23.6675 H   0  0  0  0  0  0
  -26.1780  -31.4652   20.6163 H   0  0  0  0  0  0
  -26.8695  -30.7630   22.0439 H   0  0  0  0  0  0
  -28.1040  -28.7828   21.3015 H   0  0  0  0  0  0
  -25.8829  -25.9144   18.9319 H   0  0  0  0  0  0
  -23.9911  -27.3493   18.9177 H   0  0  0  0  0  0
  -23.8216  -30.6016   19.4045 H   0  0  0  0  0  0
  -22.7883  -29.2734   19.8148 H   0  0  0  0  0  0
  -25.1275  -36.1806   25.0809 H   0  0  0  0  0  0
  -21.0050  -28.3315   24.1302 H   0  0  0  0  0  0
  -20.5719  -26.2316   23.3629 H   0  0  0  0  0  0
  -21.6650  -26.7421   22.1160 H   0  0  0  0  0  0
  -19.6904  -25.6290   21.1212 H   0  0  0  0  0  0
  -19.6645  -27.3210   20.6769 H   0  0  0  0  0  0
  -17.4203  -26.6650   21.4043 H   0  0  0  0  0  0
  -18.0316  -26.0078   22.9053 H   0  0  0  0  0  0
  -19.7981  -30.7283   24.2186 H   0  0  0  0  0  0
  -17.5055  -31.6254   24.5169 H   0  0  0  0  0  0
  -15.5376  -30.2981   23.7662 H   0  0  0  0  0  0
  -15.8689  -28.0823   22.7048 H   0  0  0  0  0  0
  -24.6072  -30.6970   25.8033 H   0  0  0  0  0  0
  -24.9180  -32.2875   26.5020 H   0  0  0  0  0  0
  -25.8416  -30.8937   27.0298 H   0  0  0  0  0  0
  -26.3037  -29.6610   24.1334 H   0  0  0  0  0  0
  -27.4076  -29.7152   25.4830 H   0  0  0  0  0  0
  -27.8951  -30.4077   23.9587 H   0  0  0  0  0  0
  -27.2528  -33.3609   26.2046 H   0  0  0  0  0  0
  -28.3916  -32.6933   25.0436 H   0  0  0  0  0  0
  -28.0691  -31.8559   26.5560 H   0  0  0  0  0  0
  -28.2542  -38.0057   24.7491 H   0  0  0  0  0  0
  -28.1044  -36.2593   24.6306 H   0  0  0  0  0  0
  -27.2287  -37.1447   25.8860 H   0  0  0  0  0  0
  -20.9472  -29.8782   21.6765 H   0  0  0  0  0  0
  -26.0101  -38.2773   24.1482 H   0  0  0  0  0  0
  -27.8259  -20.4475   22.4801 H   0  0  0  0  0  0
  -29.7911  -18.1745   22.7334 H   0  0  0  0  0  0
  -28.0361  -18.1584   22.7241 H   0  0  0  0  0  0
  -27.9554  -15.9818   21.7116 H   0  0  0  0  0  0
  -29.3250  -15.8035   22.7867 H   0  0  0  0  0  0
  -31.0489  -17.7840   20.3709 H   0  0  0  0  0  0
  -29.9385  -17.4451   19.0530 H   0  0  0  0  0  0
  -28.0478  -18.3239   20.2740 H   0  0  0  0  0  0
  -26.8946  -22.2963   23.4255 H   0  0  0  0  0  0
  -26.0887  -23.2364   22.1865 H   0  0  0  0  0  0
  -27.4904  -23.8943   23.0502 H   0  0  0  0  0  0
  -29.2497  -22.8192   17.4040 H   0  0  0  0  0  0
  -30.8484  -22.9528   18.1492 H   0  0  0  0  0  0
  -29.6969  -24.2549   18.3306 H   0  0  0  0  0  0
  -26.7711  -24.6146   20.5560 H   0  0  0  0  0  0
  -27.5324  -24.5876   19.0155 H   0  0  0  0  0  0
  1 25  1  0  0  0
  1 30  2  0  0  0
  1 84  1  0  0  0
  2  3  1  0  0  0
  2 25  1  0  0  0
  2 86  1  0  0  0
  2 87  1  0  0  0
  3  4  1  0  0  0
  3 88  1  0  0  0
  3 89  1  0  0  0
  4  5  1  0  0  0
  4 90  1  0  0  0
  4 91  1  0  0  0
  5  6  1  0  0  0
  5 26  1  0  0  0
  5 92  1  0  0  0
  6 25  1  0  0  0
  6 93  1  0  0  0
  6 94  1  0  0  0
  7  8  2  0  0  0
  7 26  1  0  0  0
  7 29  1  0  0  0
  8  9  1  0  0  0
  8 22  1  0  0  0
  9 10  1  0  0  0
  9 27  2  0  0  0
 10 11  2  0  0  0
 10 15  1  0  0  0
 11 12  1  0  0  0
 11 95  1  0  0  0
 12 13  2  0  0  0
 12 96  1  0  0  0
 13 14  1  0  0  0
 13 31  1  0  0  0
 14 15  2  0  0  0
 14 97  1  0  0  0
 15 98  1  0  0  0
 16 17  2  0  0  0
 16 21  1  0  0  0
 16 31  1  0  0  0
 17 18  1  0  0  0
 17 99  1  0  0  0
 18 19  2  0  0  0
 18100  1  0  0  0
 19 20  1  0  0  0
 19 24  1  0  0  0
 20 21  2  0  0  0
 20101  1  0  0  0
 21 23  1  0  0  0
 22 28  1  0  0  0
 22 32  2  0  0  0
 26 27  1  0  0  0
 28102  1  0  0  0
 28103  1  0  0  0
 29104  1  0  0  0
 29105  1  0  0  0
 33 34  1  0  0  0
 33 66  1  0  0  0
 33 70  2  0  0  0
 34 36  1  0  0  0
 34 59  1  0  0  0
 34106  1  0  0  0
 35 44  2  0  0  0
 35 45  1  0  0  0
 35 68  1  0  0  0
 36 56  1  0  0  0
 36107  1  0  0  0
 37 39  1  0  0  0
 37 47  1  0  0  0
 37 66  1  0  0  0
 37108  1  0  0  0
 38 43  2  0  0  0
 38 46  1  0  0  0
 38 47  1  0  0  0
 39 64  1  0  0  0
 39 67  2  0  0  0
 40 52  1  0  0  0
 40 53  2  0  0  0
 40 58  1  0  0  0
 41109  1  0  0  0
 41110  1  0  0  0
 41111  1  0  0  0
 41 48  1  0  0  0
 42 43  1  0  0  0
 42 66  1  0  0  0
 42112  1  0  0  0
 42113  1  0  0  0
 43 44  1  0  0  0
 44114  1  0  0  0
 45 46  2  0  0  0
 45115  1  0  0  0
 46116  1  0  0  0
 47117  1  0  0  0
 47118  1  0  0  0
 48 56  1  0  0  0
 48 65  1  0  0  0
 48119  1  0  0  0
 49 50  1  0  0  0
 49 53  1  0  0  0
 49 64  1  0  0  0
 49120  1  0  0  0
 50 51  1  0  0  0
 50121  1  0  0  0
 50122  1  0  0  0
 51 52  1  0  0  0
 51123  1  0  0  0
 51124  1  0  0  0
 52125  1  0  0  0
 52126  1  0  0  0
 53 54  1  0  0  0
 54 55  2  0  0  0
 54127  1  0  0  0
 55 57  1  0  0  0
 55128  1  0  0  0
 56 69  2  0  0  0
 57 58  2  0  0  0
 57129  1  0  0  0
 58130  1  0  0  0
 59 60  1  0  0  0
 59 61  1  0  0  0
 59 62  1  0  0  0
 60131  1  0  0  0
 60132  1  0  0  0
 60133  1  0  0  0
 61134  1  0  0  0
 61135  1  0  0  0
 61136  1  0  0  0
 62137  1  0  0  0
 62138  1  0  0  0
 62139  1  0  0  0
 63 65  1  0  0  0
 63140  1  0  0  0
 63141  1  0  0  0
 63142  1  0  0  0
 64143  1  0  0  0
 65144  1  0  0  0
 68 83  1  0  0  0
 71 72  2  0  0  0
 71 73  1  0  0  0
 71145  1  0  0  0
 72 76  1  0  0  0
 72 80  1  0  0  0
 73 74  2  0  0  0
 73 81  1  0  0  0
 74 75  1  0  0  0
 74 83  1  0  0  0
 75 76  2  0  0  0
 75 82  1  0  0  0
 76 85  1  0  0  0
 77 78  1  0  0  0
 77 80  1  0  0  0
 77146  1  0  0  0
 77147  1  0  0  0
 78 84  1  0  0  0
 78148  1  0  0  0
 78149  1  0  0  0
 79 80  1  0  0  0
 79 84  1  0  0  0
 79150  1  0  0  0
 79151  1  0  0  0
 80152  1  0  0  0
 81153  1  0  0  0
 81154  1  0  0  0
 81155  1  0  0  0
 82156  1  0  0  0
 82157  1  0  0  0
 82158  1  0  0  0
 83159  1  0  0  0
 83160  1  0  0  0
M  ISO  4   1 100  68 101  83 101  84 100
M  END
> <chiral flag>
0

> <version>
0

> <s_m_source_file>
/data/baiqing/PycharmProjects/Reinvent-master-3.2/result/LINK_invent/BTK/process_docking_weight1_custom_sum_contain_oxygen_bond_distance_aromatic_linkinvent_7_9_3/rearranged_h_0169.sdf

> <i_m_source_file_index>
72

> <r_mmod_Potential_Energy-OPLS-2005>
655.246032714844

> <r_mmod_Stretch_Energy-OPLS-2005>
200.32438659668

> <r_mmod_Bend_Energy-OPLS-2005>
284.680938720703

> <r_mmod_Torsional_Energy-OPLS-2005>
329.074890136719

> <r_mmod_Improper_Torsional_Energy-OPLS-2005>
14.6987237930298

> <r_mmod_Van_der_Waal_Energy-OPLS-2005>
143.705841064453

> <r_mmod_Electrostatic_Energy-OPLS-2005>
-286.746948242188

> <r_mmod_Solvation_Energy-OPLS-2005>
-195.718170166016

> <b_mmod_Minimization_Converged-OPLS-2005>
0

> <r_mmod_RMS_Derivative-OPLS-2005>
5.22580814361572

$$$$
72
                    3D
 Structure written by MMmdl.
182192  0  0  1  0            999 V2000
  -30.7588  -14.4144   20.5960 C   0  0  0  0  0  0
  -30.4122  -12.2650   19.4367 C   0  0  0  0  0  0
  -29.4944  -12.4602   18.2164 C   0  0  0  0  0  0
  -28.0201  -12.3212   18.6317 C   0  0  0  0  0  0
  -27.6645  -13.1954   19.8635 C   0  0  2  0  0  0
  -28.6992  -12.9986   20.9964 C   0  0  0  0  0  0
  -25.2663  -13.8168   20.5674 C   0  0  0  0  0  0
  -24.1889  -13.0458   20.9190 C   0  0  0  0  0  0
  -24.6374  -11.6933   20.8703 C   0  0  0  0  0  0
  -23.9009  -10.4350   21.0318 C   0  0  0  0  0  0
  -24.3576   -9.4282   21.9095 C   0  0  0  0  0  0
  -23.6297   -8.2293   22.0717 C   0  0  0  0  0  0
  -22.4280   -8.0296   21.3527 C   0  0  0  0  0  0
  -21.9873   -9.0235   20.4626 C   0  0  0  0  0  0
  -22.7168  -10.2128   20.3002 C   0  0  0  0  0  0
  -21.6890   -6.0729   22.5248 C   0  0  0  0  0  0
  -21.4026   -6.5620   23.8180 C   0  0  0  0  0  0
  -21.3684   -5.6773   24.9147 C   0  0  0  0  0  0
  -21.6060   -4.3037   24.7204 C   0  0  0  0  0  0
  -21.8839   -3.8129   23.4327 C   0  0  0  0  0  0
  -21.9219   -4.6947   22.3380 C   0  0  0  0  0  0
  -22.7923  -13.5291   21.1815 C   0  0  0  0  0  0
  -22.1687   -4.2131   21.0959 F   0  0  0  0  0  0
  -21.5635   -3.4522   25.7712 F   0  0  0  0  0  0
  -30.0438  -13.2650   20.4545 N   0  0  0  0  0  0
  -26.3048  -12.9272   20.3298 N   0  0  0  0  0  0
  -25.9295  -11.6467   20.5734 N   0  0  0  0  0  0
  -22.0560  -12.8301   22.0381 N   0  0  0  0  0  0
  -25.4465  -15.1874   20.4069 N   0  0  0  0  0  0
  -31.8402  -14.6040   20.0284 O   0  0  0  0  0  0
  -21.6691   -6.8861   21.4205 O   0  0  0  0  0  0
  -22.3618  -14.5572   20.6655 O   0  0  0  0  0  0
  -24.6173  -31.8641   23.2151 C   0  0  0  0  0  0
  -25.9064  -32.4800   23.8426 C   0  0  1  0  0  0
  -27.2140  -27.4304   20.0874 C   0  0  0  0  0  0
  -25.5924  -33.8602   24.2327 N   0  0  0  0  0  0
  -23.4047  -30.5023   21.5472 C   0  0  2  0  0  0
  -24.8606  -28.9964   20.0819 C   0  0  0  0  0  0
  -22.7449  -29.4653   22.4886 C   0  0  0  0  0  0
  -18.0281  -28.1392   22.8462 C   0  0  0  0  0  0
  -24.1463  -36.7317   23.2638 C   0  0  0  0  0  0
  -25.9403  -30.8246   21.3822 C   0  0  0  0  0  0
  -26.0116  -29.4649   20.7256 C   0  0  0  0  0  0
  -27.1908  -28.6771   20.7571 C   0  0  0  0  0  0
  -26.1005  -27.0760   19.2952 C   0  0  0  0  0  0
  -24.8982  -27.7965   19.3601 C   0  0  0  0  0  0
  -23.6194  -29.8589   20.1497 C   0  0  0  0  0  0
  -25.4073  -36.3081   24.0314 C   0  0  1  0  0  0
  -20.5887  -28.3668   23.1290 C   0  0  2  0  0  0
  -20.6775  -26.9403   22.5424 C   0  0  0  0  0  0
  -19.5751  -26.6380   21.5219 C   0  0  0  0  0  0
  -18.1922  -26.7936   22.1590 C   0  0  0  0  0  0
  -19.1552  -28.8853   23.2871 C   0  0  0  0  0  0
  -18.9471  -30.1457   23.8893 C   0  0  0  0  0  0
  -17.6481  -30.6602   24.0573 C   0  0  0  0  0  0
  -25.9006  -34.9451   23.5104 C   0  0  0  0  0  0
  -16.5364  -29.9095   23.6335 C   0  0  0  0  0  0
  -16.7274  -28.6517   23.0327 C   0  0  0  0  0  0
  -26.4490  -31.6609   25.0781 C   0  0  0  0  0  0
  -25.3761  -31.3794   26.1552 C   0  0  0  0  0  0
  -27.0310  -30.3015   24.6219 C   0  0  0  0  0  0
  -27.6034  -32.4361   25.7562 C   0  0  0  0  0  0
  -27.5548  -37.1810   24.8466 C   0  0  0  0  0  0
  -21.4183  -29.3011   22.3669 N   0  0  0  0  0  0
  -26.4242  -37.3789   23.9439 N   0  0  0  0  0  0
  -24.6695  -31.0799   22.1027 N   0  0  0  0  0  0
  -23.4245  -28.8132   23.2849 O   0  0  0  0  0  0
  -28.2491  -26.5129   20.2167 O   0  0  0  0  0  0
  -26.5580  -34.8920   22.4670 O   0  0  0  0  0  0
  -23.5356  -32.1368   23.7543 O   0  0  0  0  0  0
  -27.9699  -23.0318   21.2067 C   0  0  0  0  0  0
  -28.8080  -24.1496   21.0212 C   0  0  0  0  0  0
  -28.4716  -21.7046   21.1063 C   0  0  0  0  0  0
  -30.1946  -23.9612   20.7854 C   0  0  0  0  0  0
  -30.7189  -22.6356   20.7223 C   0  0  0  0  0  0
  -29.8525  -21.5021   20.8258 C   0  0  0  0  0  0
  -31.6178  -17.2208   22.4126 C   0  0  0  0  0  0
  -26.6051  -24.9783   21.4318 C   0  0  0  0  0  0
  -31.5423  -18.7622   22.3690 C   0  0  0  0  0  0
  -29.5746  -17.8432   21.3784 C   0  0  0  0  0  0
  -30.6845  -16.7966   21.2775 C   0  0  1  0  0  0
  -26.5352  -23.4401   21.5395 C   0  0  0  0  0  0
  -28.0743  -25.4850   21.2654 C   0  0  2  0  0  0
  -27.5707  -20.4871   21.2967 C   0  0  0  0  0  0
  -31.1300  -25.1529   20.6125 C   0  0  0  0  0  0
  -32.2276  -22.4443   20.5411 C   0  0  0  0  0  0
  -26.1437  -23.0808   22.9877 C   0  0  0  0  0  0
  -25.4713  -22.9194   20.5106 C   0  0  0  0  0  0
  -28.5455  -26.0795   22.6127 C   0  0  0  0  0  0
  -30.3667  -20.0667   20.5451 C   0  0  0  0  0  0
  -30.2008  -15.4023   21.3117 N   0  0  0  0  0  0
  -30.2615  -19.1246   21.6995 N   0  3  2  0  0  0
  -31.4592  -12.3317   19.1382 H   0  0  0  0  0  0
  -30.2862  -11.2600   19.8431 H   0  0  0  0  0  0
  -29.7287  -11.7103   17.4591 H   0  0  0  0  0  0
  -29.6719  -13.4352   17.7573 H   0  0  0  0  0  0
  -27.8593  -11.2702   18.8773 H   0  0  0  0  0  0
  -27.3596  -12.5410   17.7925 H   0  0  0  0  0  0
  -27.7064  -14.2329   19.5384 H   0  0  0  0  0  0
  -28.6606  -11.9713   21.3643 H   0  0  0  0  0  0
  -28.4502  -13.6271   21.8498 H   0  0  0  0  0  0
  -25.2696   -9.5829   22.4696 H   0  0  0  0  0  0
  -24.0039   -7.4713   22.7445 H   0  0  0  0  0  0
  -21.0811   -8.8728   19.8930 H   0  0  0  0  0  0
  -22.3555  -10.9668   19.6164 H   0  0  0  0  0  0
  -21.1990   -7.6114   23.9682 H   0  0  0  0  0  0
  -21.1497   -6.0484   25.9046 H   0  0  0  0  0  0
  -22.0587   -2.7593   23.2826 H   0  0  0  0  0  0
  -22.4172  -11.9992   22.4812 H   0  0  0  0  0  0
  -21.1148  -13.1299   22.2488 H   0  0  0  0  0  0
  -24.6864  -15.8468   20.5277 H   0  0  0  0  0  0
  -26.2963  -15.6193   20.0647 H   0  0  0  0  0  0
  -26.7138  -32.5504   23.1189 H   0  0  0  0  0  0
  -25.0172  -33.9769   25.0537 H   0  0  0  0  0  0
  -22.6886  -31.3157   21.4174 H   0  0  0  0  0  0
  -23.3698  -35.9694   23.3300 H   0  0  0  0  0  0
  -24.3570  -36.8934   22.2067 H   0  0  0  0  0  0
  -23.7244  -37.6525   23.6657 H   0  0  0  0  0  0
  -26.0791  -31.5869   20.6121 H   0  0  0  0  0  0
  -26.8224  -30.8642   22.0091 H   0  0  0  0  0  0
  -28.0520  -28.9985   21.3261 H   0  0  0  0  0  0
  -26.1234  -26.1788   18.6895 H   0  0  0  0  0  0
  -24.0330  -27.4576   18.8059 H   0  0  0  0  0  0
  -23.7227  -30.6440   19.3979 H   0  0  0  0  0  0
  -22.7442  -29.2790   19.8465 H   0  0  0  0  0  0
  -25.1262  -36.1931   25.0804 H   0  0  0  0  0  0
  -21.0000  -28.3248   24.1384 H   0  0  0  0  0  0
  -20.5669  -26.2284   23.3614 H   0  0  0  0  0  0
  -21.6637  -26.7418   22.1214 H   0  0  0  0  0  0
  -19.6891  -25.6287   21.1212 H   0  0  0  0  0  0
  -19.6687  -27.3223   20.6794 H   0  0  0  0  0  0
  -17.4199  -26.6703   21.3975 H   0  0  0  0  0  0
  -18.0273  -26.0123   22.9022 H   0  0  0  0  0  0
  -19.7982  -30.7279   24.2225 H   0  0  0  0  0  0
  -17.5050  -31.6274   24.5187 H   0  0  0  0  0  0
  -15.5357  -30.2999   23.7690 H   0  0  0  0  0  0
  -15.8663  -28.0865   22.7000 H   0  0  0  0  0  0
  -24.6008  -30.6991   25.8024 H   0  0  0  0  0  0
  -24.8875  -32.2972   26.4836 H   0  0  0  0  0  0
  -25.8169  -30.9199   27.0408 H   0  0  0  0  0  0
  -26.2884  -29.6800   24.1202 H   0  0  0  0  0  0
  -27.3966  -29.7258   25.4738 H   0  0  0  0  0  0
  -27.8784  -30.4307   23.9482 H   0  0  0  0  0  0
  -27.2611  -33.3695   26.2070 H   0  0  0  0  0  0
  -28.3909  -32.6854   25.0428 H   0  0  0  0  0  0
  -28.0618  -31.8520   26.5556 H   0  0  0  0  0  0
  -28.2565  -38.0106   24.7504 H   0  0  0  0  0  0
  -28.1014  -36.2638   24.6255 H   0  0  0  0  0  0
  -27.2304  -37.1459   25.8878 H   0  0  0  0  0  0
  -20.9317  -29.8797   21.6977 H   0  0  0  0  0  0
  -26.0096  -38.2851   24.1460 H   0  0  0  0  0  0
  -31.2456  -16.8634   23.3717 H   0  0  0  0  0  0
  -32.6333  -16.8434   22.2823 H   0  0  0  0  0  0
  -26.0329  -25.5326   22.1762 H   0  0  0  0  0  0
  -26.0543  -25.1405   20.5307 H   0  0  0  0  0  0
  -32.4077  -19.1588   21.8350 H   0  0  0  0  0  0
  -31.5897  -19.1774   23.3757 H   0  0  0  0  0  0
  -28.9053  -17.5934   22.2047 H   0  0  0  0  0  0
  -28.9507  -17.8799   20.4811 H   0  0  0  0  0  0
  -31.2007  -16.9825   20.3317 H   0  0  0  0  0  0
  -27.5909  -19.8547   20.4111 H   0  0  0  0  0  0
  -26.5363  -20.7002   21.5065 H   0  0  0  0  0  0
  -27.8862  -19.9134   22.1667 H   0  0  0  0  0  0
  -31.8459  -25.2177   21.4377 H   0  0  0  0  0  0
  -30.5953  -26.1000   20.5654 H   0  0  0  0  0  0
  -31.6985  -25.0568   19.6842 H   0  0  0  0  0  0
  -32.7914  -23.2681   20.9737 H   0  0  0  0  0  0
  -32.4832  -22.3734   19.4832 H   0  0  0  0  0  0
  -32.6060  -21.5659   21.0581 H   0  0  0  0  0  0
  -26.8520  -23.4913   23.7124 H   0  0  0  0  0  0
  -26.0661  -22.0092   23.1664 H   0  0  0  0  0  0
  -25.1709  -23.5098   23.2269 H   0  0  0  0  0  0
  -25.7324  -23.1795   19.4805 H   0  0  0  0  0  0
  -24.4903  -23.3586   20.7117 H   0  0  0  0  0  0
  -25.2882  -21.8500   20.4926 H   0  0  0  0  0  0
  -28.0004  -26.9892   22.8656 H   0  0  0  0  0  0
  -29.6089  -26.3202   22.6267 H   0  0  0  0  0  0
  -28.3815  -25.3703   23.4235 H   0  0  0  0  0  0
  -31.3699  -20.0478   20.1277 H   0  0  0  0  0  0
  -29.7810  -19.7012   19.7029 H   0  0  0  0  0  0
  -29.3348  -15.1985   21.7940 H   0  0  0  0  0  0
  -29.6924  -19.6085   22.3779 H   0  0  0  0  0  0
  1 25  1  0  0  0
  1 30  2  0  0  0
  1 91  1  0  0  0
  2  3  1  0  0  0
  2 25  1  0  0  0
  2 93  1  0  0  0
  2 94  1  0  0  0
  3  4  1  0  0  0
  3 95  1  0  0  0
  3 96  1  0  0  0
  4  5  1  0  0  0
  4 97  1  0  0  0
  4 98  1  0  0  0
  5  6  1  0  0  0
  5 26  1  0  0  0
  5 99  1  0  0  0
  6 25  1  0  0  0
  6100  1  0  0  0
  6101  1  0  0  0
  7  8  2  0  0  0
  7 26  1  0  0  0
  7 29  1  0  0  0
  8  9  1  0  0  0
  8 22  1  0  0  0
  9 10  1  0  0  0
  9 27  2  0  0  0
 10 11  2  0  0  0
 10 15  1  0  0  0
 11 12  1  0  0  0
 11102  1  0  0  0
 12 13  2  0  0  0
 12103  1  0  0  0
 13 14  1  0  0  0
 13 31  1  0  0  0
 14 15  2  0  0  0
 14104  1  0  0  0
 15105  1  0  0  0
 16 17  2  0  0  0
 16 21  1  0  0  0
 16 31  1  0  0  0
 17 18  1  0  0  0
 17106  1  0  0  0
 18 19  2  0  0  0
 18107  1  0  0  0
 19 20  1  0  0  0
 19 24  1  0  0  0
 20 21  2  0  0  0
 20108  1  0  0  0
 21 23  1  0  0  0
 22 28  1  0  0  0
 22 32  2  0  0  0
 26 27  1  0  0  0
 28109  1  0  0  0
 28110  1  0  0  0
 29111  1  0  0  0
 29112  1  0  0  0
 33 34  1  0  0  0
 33 66  1  0  0  0
 33 70  2  0  0  0
 34 36  1  0  0  0
 34 59  1  0  0  0
 34113  1  0  0  0
 35 44  2  0  0  0
 35 45  1  0  0  0
 35 68  1  0  0  0
 36 56  1  0  0  0
 36114  1  0  0  0
 37 39  1  0  0  0
 37 47  1  0  0  0
 37 66  1  0  0  0
 37115  1  0  0  0
 38 43  2  0  0  0
 38 46  1  0  0  0
 38 47  1  0  0  0
 39 64  1  0  0  0
 39 67  2  0  0  0
 40 52  1  0  0  0
 40 53  2  0  0  0
 40 58  1  0  0  0
 41116  1  0  0  0
 41117  1  0  0  0
 41118  1  0  0  0
 41 48  1  0  0  0
 42 43  1  0  0  0
 42 66  1  0  0  0
 42119  1  0  0  0
 42120  1  0  0  0
 43 44  1  0  0  0
 44121  1  0  0  0
 45 46  2  0  0  0
 45122  1  0  0  0
 46123  1  0  0  0
 47124  1  0  0  0
 47125  1  0  0  0
 48 56  1  0  0  0
 48 65  1  0  0  0
 48126  1  0  0  0
 49 50  1  0  0  0
 49 53  1  0  0  0
 49 64  1  0  0  0
 49127  1  0  0  0
 50 51  1  0  0  0
 50128  1  0  0  0
 50129  1  0  0  0
 51 52  1  0  0  0
 51130  1  0  0  0
 51131  1  0  0  0
 52132  1  0  0  0
 52133  1  0  0  0
 53 54  1  0  0  0
 54 55  2  0  0  0
 54134  1  0  0  0
 55 57  1  0  0  0
 55135  1  0  0  0
 56 69  2  0  0  0
 57 58  2  0  0  0
 57136  1  0  0  0
 58137  1  0  0  0
 59 60  1  0  0  0
 59 61  1  0  0  0
 59 62  1  0  0  0
 60138  1  0  0  0
 60139  1  0  0  0
 60140  1  0  0  0
 61141  1  0  0  0
 61142  1  0  0  0
 61143  1  0  0  0
 62144  1  0  0  0
 62145  1  0  0  0
 62146  1  0  0  0
 63 65  1  0  0  0
 63147  1  0  0  0
 63148  1  0  0  0
 63149  1  0  0  0
 64150  1  0  0  0
 65151  1  0  0  0
 68 83  1  0  0  0
 71 72  1  0  0  0
 71 73  2  0  0  0
 71 82  1  0  0  0
 72 74  2  0  0  0
 72 83  1  0  0  0
 73 76  1  0  0  0
 73 84  1  0  0  0
 74 75  1  0  0  0
 74 85  1  0  0  0
 75 76  2  0  0  0
 75 86  1  0  0  0
 76 90  1  0  0  0
 77 79  1  0  0  0
 77 81  1  0  0  0
 77152  1  0  0  0
 77153  1  0  0  0
 78 82  1  0  0  0
 78 83  1  0  0  0
 78154  1  0  0  0
 78155  1  0  0  0
 79 92  1  0  0  0
 79156  1  0  0  0
 79157  1  0  0  0
 80 81  1  0  0  0
 80 92  1  0  0  0
 80158  1  0  0  0
 80159  1  0  0  0
 81 91  1  0  0  0
 81160  1  0  0  0
 82 87  1  0  0  0
 82 88  1  0  0  0
 83 89  1  0  0  0
 84161  1  0  0  0
 84162  1  0  0  0
 84163  1  0  0  0
 85164  1  0  0  0
 85165  1  0  0  0
 85166  1  0  0  0
 86167  1  0  0  0
 86168  1  0  0  0
 86169  1  0  0  0
 87170  1  0  0  0
 87171  1  0  0  0
 87172  1  0  0  0
 88173  1  0  0  0
 88174  1  0  0  0
 88175  1  0  0  0
 89176  1  0  0  0
 89177  1  0  0  0
 89178  1  0  0  0
 90179  1  0  0  0
 90180  1  0  0  0
 90 92  1  0  0  0
 91181  1  0  0  0
 92182  1  0  0  0
M  CHG  1  92   1
M  ISO  4   1 100  68 101  83 101  91 100
M  END
> <chiral flag>
0

> <version>
0

> <s_m_source_file>
/data/baiqing/PycharmProjects/Reinvent-master-3.2/result/LINK_invent/BTK/process_docking_weight1_custom_sum_contain_oxygen_bond_distance_aromatic_linkinvent_7_9_3/rearranged_h_0169.sdf

> <i_m_source_file_index>
73

> <r_mmod_Potential_Energy-OPLS-2005>
32.7649269104004

> <r_mmod_Stretch_Energy-OPLS-2005>
56.6484489440918

> <r_mmod_Bend_Energy-OPLS-2005>
188.560806274414

> <r_mmod_Torsional_Energy-OPLS-2005>
320.148864746094

> <r_mmod_Improper_Torsional_Energy-OPLS-2005>
3.66208696365356

> <r_mmod_Van_der_Waal_Energy-OPLS-2005>
191.462005615234

> <r_mmod_Electrostatic_Energy-OPLS-2005>
-326.991424560547

> <r_mmod_Solvation_Energy-OPLS-2005>
-434.067047119141

> <b_mmod_Minimization_Converged-OPLS-2005>
0

> <r_mmod_RMS_Derivative-OPLS-2005>
6.41545009613037

$$$$
73
                    3D
 Structure written by MMmdl.
158167  0  0  1  0            999 V2000
  -30.7189  -14.5305   20.5535 C   0  0  0  0  0  0
  -30.4156  -12.3414   19.4444 C   0  0  0  0  0  0
  -29.4935  -12.5005   18.2187 C   0  0  0  0  0  0
  -28.0186  -12.3409   18.6318 C   0  0  0  0  0  0
  -27.6505  -13.2061   19.8642 C   0  0  2  0  0  0
  -28.6960  -13.0581   20.9961 C   0  0  0  0  0  0
  -25.2529  -13.8143   20.5673 C   0  0  0  0  0  0
  -24.1803  -13.0411   20.9220 C   0  0  0  0  0  0
  -24.6375  -11.6887   20.8763 C   0  0  0  0  0  0
  -23.9042  -10.4272   21.0414 C   0  0  0  0  0  0
  -24.3593   -9.4188   21.9190 C   0  0  0  0  0  0
  -23.6274   -8.2223   22.0752 C   0  0  0  0  0  0
  -22.4259   -8.0262   21.3543 C   0  0  0  0  0  0
  -21.9889   -9.0237   20.4648 C   0  0  0  0  0  0
  -22.7215  -10.2120   20.3062 C   0  0  0  0  0  0
  -21.6851   -6.0713   22.5277 C   0  0  0  0  0  0
  -21.4002   -6.5620   23.8206 C   0  0  0  0  0  0
  -21.3664   -5.6785   24.9177 C   0  0  0  0  0  0
  -21.6049   -4.3047   24.7236 C   0  0  0  0  0  0
  -21.8822   -3.8129   23.4361 C   0  0  0  0  0  0
  -21.9190   -4.6938   22.3409 C   0  0  0  0  0  0
  -22.7824  -13.5204   21.1883 C   0  0  0  0  0  0
  -22.1660   -4.2115   21.0991 F   0  0  0  0  0  0
  -21.5642   -3.4538   25.7756 F   0  0  0  0  0  0
  -30.0225  -13.3593   20.4370 N   0  0  0  0  0  0
  -26.2960  -12.9311   20.3329 N   0  0  0  0  0  0
  -25.9295  -11.6473   20.5777 N   0  0  0  0  0  0
  -22.0458  -12.8194   22.0437 N   0  0  0  0  0  0
  -25.4179  -15.1858   20.4019 N   0  0  0  0  0  0
  -31.8607  -14.6460   20.1007 O   0  0  0  0  0  0
  -21.6639   -6.8850   21.4234 O   0  0  0  0  0  0
  -22.3506  -14.5509   20.6732 O   0  0  0  0  0  0
  -24.6185  -31.8653   23.2076 C   0  0  0  0  0  0
  -25.9063  -32.4810   23.8381 C   0  0  1  0  0  0
  -27.2328  -27.3905   20.1092 C   0  0  0  0  0  0
  -25.5905  -33.8609   24.2308 N   0  0  0  0  0  0
  -23.4081  -30.4890   21.5479 C   0  0  2  0  0  0
  -24.8553  -28.9511   20.1126 C   0  0  0  0  0  0
  -22.7415  -29.4649   22.4961 C   0  0  0  0  0  0
  -18.0276  -28.1383   22.8491 C   0  0  0  0  0  0
  -24.1494  -36.7320   23.2635 C   0  0  0  0  0  0
  -25.9412  -30.8189   21.3660 C   0  0  0  0  0  0
  -26.0181  -29.4504   20.7120 C   0  0  0  0  0  0
  -27.2085  -28.6794   20.7043 C   0  0  0  0  0  0
  -26.0490  -26.9246   19.4880 C   0  0  0  0  0  0
  -24.8681  -27.6899   19.4961 C   0  0  0  0  0  0
  -23.6191  -29.8220   20.1628 C   0  0  0  0  0  0
  -25.4114  -36.3111   24.0333 C   0  0  1  0  0  0
  -20.5865  -28.3678   23.1307 C   0  0  2  0  0  0
  -20.6772  -26.9408   22.5417 C   0  0  0  0  0  0
  -19.5748  -26.6387   21.5216 C   0  0  0  0  0  0
  -18.1927  -26.7928   22.1626 C   0  0  0  0  0  0
  -19.1523  -28.8843   23.2901 C   0  0  0  0  0  0
  -18.9449  -30.1449   23.8909 C   0  0  0  0  0  0
  -17.6452  -30.6589   24.0566 C   0  0  0  0  0  0
  -25.9038  -34.9471   23.5119 C   0  0  0  0  0  0
  -16.5345  -29.9091   23.6325 C   0  0  0  0  0  0
  -16.7264  -28.6511   23.0341 C   0  0  0  0  0  0
  -26.4477  -31.6599   25.0726 C   0  0  0  0  0  0
  -25.3731  -31.3724   26.1470 C   0  0  0  0  0  0
  -27.0311  -30.3034   24.6129 C   0  0  0  0  0  0
  -27.6051  -32.4317   25.7488 C   0  0  0  0  0  0
  -27.5582  -37.1820   24.8462 C   0  0  0  0  0  0
  -21.4135  -29.3048   22.3705 N   0  0  0  0  0  0
  -26.4300  -37.3793   23.9398 N   0  0  0  0  0  0
  -24.6742  -31.0725   22.0992 N   0  0  0  0  0  0
  -23.4169  -28.8176   23.3007 O   0  0  0  0  0  0
  -28.3890  -26.6195   20.1621 O   0  0  0  0  0  0
  -26.5602  -34.8922   22.4685 O   0  0  0  0  0  0
  -23.5371  -32.1420   23.7451 O   0  0  0  0  0  0
  -29.6224  -22.0006   21.6445 C   0  0  0  0  0  0
  -29.1577  -22.1920   19.2781 C   0  0  0  0  0  0
  -29.6585  -20.5853   21.5339 C   0  0  0  0  0  0
  -29.1963  -20.7810   19.1702 C   0  0  0  0  0  0
  -29.3745  -22.8314   20.5209 C   0  0  0  0  0  0
  -29.4483  -19.9510   20.2855 C   0  0  0  0  0  0
  -30.8047  -16.8922   21.3793 C   0  0  0  0  0  0
  -28.9199  -16.2852   20.6512 C   0  0  0  0  0  0
  -29.4828  -17.6238   21.1355 C   0  0  0  0  0  0
  -28.2695  -25.1808   19.9745 C   0  0  0  0  0  0
  -29.4282  -24.3776   20.6492 C   0  0  2  0  0  0
  -30.1204  -15.5971   21.1532 N   0  0  0  0  0  0
  -30.7369  -24.8540   20.1693 N   0  3  0  0  0  0
  -29.4853  -18.5803   20.0577 O   0  0  0  0  0  0
  -31.4612  -12.4248   19.1426 H   0  0  0  0  0  0
  -30.3132  -11.3436   19.8729 H   0  0  0  0  0  0
  -29.7473  -11.7631   17.4562 H   0  0  0  0  0  0
  -29.6477  -13.4796   17.7626 H   0  0  0  0  0  0
  -27.8529  -11.2871   18.8569 H   0  0  0  0  0  0
  -27.3625  -12.5787   17.7936 H   0  0  0  0  0  0
  -27.6640  -14.2345   19.5134 H   0  0  0  0  0  0
  -28.6849  -12.0433   21.3958 H   0  0  0  0  0  0
  -28.4541  -13.7087   21.8377 H   0  0  0  0  0  0
  -25.2729   -9.5665   22.4775 H   0  0  0  0  0  0
  -23.9980   -7.4607   22.7462 H   0  0  0  0  0  0
  -21.0822   -8.8760   19.8952 H   0  0  0  0  0  0
  -22.3666  -10.9666   19.6184 H   0  0  0  0  0  0
  -21.1982   -7.6127   23.9698 H   0  0  0  0  0  0
  -21.1492   -6.0521   25.9081 H   0  0  0  0  0  0
  -22.0597   -2.7586   23.2884 H   0  0  0  0  0  0
  -22.4058  -11.9850   22.4829 H   0  0  0  0  0  0
  -21.1083  -13.1233   22.2659 H   0  0  0  0  0  0
  -24.6437  -15.8336   20.5015 H   0  0  0  0  0  0
  -26.2512  -15.6215   20.0303 H   0  0  0  0  0  0
  -26.7131  -32.5499   23.1134 H   0  0  0  0  0  0
  -25.0062  -33.9765   25.0458 H   0  0  0  0  0  0
  -22.6996  -31.3079   21.4065 H   0  0  0  0  0  0
  -23.3749  -35.9661   23.3315 H   0  0  0  0  0  0
  -24.3592  -36.8919   22.2047 H   0  0  0  0  0  0
  -23.7255  -37.6533   23.6643 H   0  0  0  0  0  0
  -26.0575  -31.5821   20.5956 H   0  0  0  0  0  0
  -26.8279  -30.8738   21.9860 H   0  0  0  0  0  0
  -28.1025  -29.0589   21.1797 H   0  0  0  0  0  0
  -26.0090  -25.9653   18.9943 H   0  0  0  0  0  0
  -23.9754  -27.3013   19.0248 H   0  0  0  0  0  0
  -23.7330  -30.5969   19.4040 H   0  0  0  0  0  0
  -22.7413  -29.2463   19.8642 H   0  0  0  0  0  0
  -25.1296  -36.1980   25.0827 H   0  0  0  0  0  0
  -20.9963  -28.3258   24.1425 H   0  0  0  0  0  0
  -20.5683  -26.2285   23.3610 H   0  0  0  0  0  0
  -21.6643  -26.7463   22.1199 H   0  0  0  0  0  0
  -19.6911  -25.6299   21.1244 H   0  0  0  0  0  0
  -19.6686  -27.3201   20.6747 H   0  0  0  0  0  0
  -17.4195  -26.6671   21.4030 H   0  0  0  0  0  0
  -18.0331  -26.0069   22.9022 H   0  0  0  0  0  0
  -19.7925  -30.7264   24.2283 H   0  0  0  0  0  0
  -17.5009  -31.6270   24.5171 H   0  0  0  0  0  0
  -15.5345  -30.3001   23.7644 H   0  0  0  0  0  0
  -15.8664  -28.0846   22.7037 H   0  0  0  0  0  0
  -24.5903  -30.7074   25.7805 H   0  0  0  0  0  0
  -24.8918  -32.2886   26.4902 H   0  0  0  0  0  0
  -25.8069  -30.8900   27.0237 H   0  0  0  0  0  0
  -26.2870  -29.6800   24.1158 H   0  0  0  0  0  0
  -27.4041  -29.7270   25.4603 H   0  0  0  0  0  0
  -27.8720  -30.4340   23.9313 H   0  0  0  0  0  0
  -27.2676  -33.3609   26.2089 H   0  0  0  0  0  0
  -28.3853  -32.6882   25.0311 H   0  0  0  0  0  0
  -28.0725  -31.8420   26.5381 H   0  0  0  0  0  0
  -28.2612  -38.0104   24.7498 H   0  0  0  0  0  0
  -28.1068  -36.2638   24.6314 H   0  0  0  0  0  0
  -27.2295  -37.1500   25.8862 H   0  0  0  0  0  0
  -20.9295  -29.8788   21.6944 H   0  0  0  0  0  0
  -26.0196  -38.2880   24.1379 H   0  0  0  0  0  0
  -29.8075  -22.4462   22.6123 H   0  0  0  0  0  0
  -28.9801  -22.7722   18.3833 H   0  0  0  0  0  0
  -29.8705  -20.0000   22.4168 H   0  0  0  0  0  0
  -29.0344  -20.3243   18.2040 H   0  0  0  0  0  0
  -31.1855  -17.0246   22.3921 H   0  0  0  0  0  0
  -31.5679  -17.1460   20.6407 H   0  0  0  0  0  0
  -27.9996  -16.0132   21.1674 H   0  0  0  0  0  0
  -28.7989  -16.2375   19.5677 H   0  0  0  0  0  0
  -28.9854  -17.9507   22.0505 H   0  0  0  0  0  0
  -27.3372  -24.8141   20.4072 H   0  0  0  0  0  0
  -28.2333  -24.9741   18.9045 H   0  0  0  0  0  0
  -29.3870  -24.6145   21.7137 H   0  0  0  0  0  0
  -31.4802  -24.4177   20.6845 H   0  0  0  0  0  0
  -30.8052  -25.8497   20.2920 H   0  0  0  0  0  0
  -30.8605  -24.6471   19.1948 H   0  0  0  0  0  0
  1 25  1  0  0  0
  1 30  2  0  0  0
  1 82  1  0  0  0
  2  3  1  0  0  0
  2 25  1  0  0  0
  2 85  1  0  0  0
  2 86  1  0  0  0
  3  4  1  0  0  0
  3 87  1  0  0  0
  3 88  1  0  0  0
  4  5  1  0  0  0
  4 89  1  0  0  0
  4 90  1  0  0  0
  5  6  1  0  0  0
  5 26  1  0  0  0
  5 91  1  0  0  0
  6 25  1  0  0  0
  6 92  1  0  0  0
  6 93  1  0  0  0
  7  8  2  0  0  0
  7 26  1  0  0  0
  7 29  1  0  0  0
  8  9  1  0  0  0
  8 22  1  0  0  0
  9 10  1  0  0  0
  9 27  2  0  0  0
 10 11  2  0  0  0
 10 15  1  0  0  0
 11 12  1  0  0  0
 11 94  1  0  0  0
 12 13  2  0  0  0
 12 95  1  0  0  0
 13 14  1  0  0  0
 13 31  1  0  0  0
 14 15  2  0  0  0
 14 96  1  0  0  0
 15 97  1  0  0  0
 16 17  2  0  0  0
 16 21  1  0  0  0
 16 31  1  0  0  0
 17 18  1  0  0  0
 17 98  1  0  0  0
 18 19  2  0  0  0
 18 99  1  0  0  0
 19 20  1  0  0  0
 19 24  1  0  0  0
 20 21  2  0  0  0
 20100  1  0  0  0
 21 23  1  0  0  0
 22 28  1  0  0  0
 22 32  2  0  0  0
 26 27  1  0  0  0
 28101  1  0  0  0
 28102  1  0  0  0
 29103  1  0  0  0
 29104  1  0  0  0
 33 34  1  0  0  0
 33 66  1  0  0  0
 33 70  2  0  0  0
 34 36  1  0  0  0
 34 59  1  0  0  0
 34105  1  0  0  0
 35 44  2  0  0  0
 35 45  1  0  0  0
 35 68  1  0  0  0
 36 56  1  0  0  0
 36106  1  0  0  0
 37 39  1  0  0  0
 37 47  1  0  0  0
 37 66  1  0  0  0
 37107  1  0  0  0
 38 43  2  0  0  0
 38 46  1  0  0  0
 38 47  1  0  0  0
 39 64  1  0  0  0
 39 67  2  0  0  0
 40 52  1  0  0  0
 40 53  2  0  0  0
 40 58  1  0  0  0
 41108  1  0  0  0
 41109  1  0  0  0
 41110  1  0  0  0
 41 48  1  0  0  0
 42 43  1  0  0  0
 42 66  1  0  0  0
 42111  1  0  0  0
 42112  1  0  0  0
 43 44  1  0  0  0
 44113  1  0  0  0
 45 46  2  0  0  0
 45114  1  0  0  0
 46115  1  0  0  0
 47116  1  0  0  0
 47117  1  0  0  0
 48 56  1  0  0  0
 48 65  1  0  0  0
 48118  1  0  0  0
 49 50  1  0  0  0
 49 53  1  0  0  0
 49 64  1  0  0  0
 49119  1  0  0  0
 50 51  1  0  0  0
 50120  1  0  0  0
 50121  1  0  0  0
 51 52  1  0  0  0
 51122  1  0  0  0
 51123  1  0  0  0
 52124  1  0  0  0
 52125  1  0  0  0
 53 54  1  0  0  0
 54 55  2  0  0  0
 54126  1  0  0  0
 55 57  1  0  0  0
 55127  1  0  0  0
 56 69  2  0  0  0
 57 58  2  0  0  0
 57128  1  0  0  0
 58129  1  0  0  0
 59 60  1  0  0  0
 59 61  1  0  0  0
 59 62  1  0  0  0
 60130  1  0  0  0
 60131  1  0  0  0
 60132  1  0  0  0
 61133  1  0  0  0
 61134  1  0  0  0
 61135  1  0  0  0
 62136  1  0  0  0
 62137  1  0  0  0
 62138  1  0  0  0
 63 65  1  0  0  0
 63139  1  0  0  0
 63140  1  0  0  0
 63141  1  0  0  0
 64142  1  0  0  0
 65143  1  0  0  0
 68 80  1  0  0  0
 71 73  2  0  0  0
 71 75  1  0  0  0
 71144  1  0  0  0
 72 74  1  0  0  0
 72 75  2  0  0  0
 72145  1  0  0  0
 73 76  1  0  0  0
 73146  1  0  0  0
 74 76  2  0  0  0
 74147  1  0  0  0
 75 81  1  0  0  0
 76 84  1  0  0  0
 77 79  1  0  0  0
 77 82  1  0  0  0
 77148  1  0  0  0
 77149  1  0  0  0
 78 79  1  0  0  0
 78 82  1  0  0  0
 78150  1  0  0  0
 78151  1  0  0  0
 79 84  1  0  0  0
 79152  1  0  0  0
 80 81  1  0  0  0
 80153  1  0  0  0
 80154  1  0  0  0
 81 83  1  0  0  0
 81155  1  0  0  0
 83156  1  0  0  0
 83157  1  0  0  0
 83158  1  0  0  0
M  CHG  1  83   1
M  ISO  4   1 100  68 101  80 101  82 100
M  END
> <chiral flag>
0

> <version>
0

> <s_m_source_file>
/data/baiqing/PycharmProjects/Reinvent-master-3.2/result/LINK_invent/BTK/process_docking_weight1_custom_sum_contain_oxygen_bond_distance_aromatic_linkinvent_7_9_3/rearranged_h_0169.sdf

> <i_m_source_file_index>
74

> <r_mmod_Potential_Energy-OPLS-2005>
-206.901702880859

> <r_mmod_Stretch_Energy-OPLS-2005>
48.7334098815918

> <r_mmod_Bend_Energy-OPLS-2005>
124.258331298828

> <r_mmod_Torsional_Energy-OPLS-2005>
260.59765625

> <r_mmod_Improper_Torsional_Energy-OPLS-2005>
8.5408878326416

> <r_mmod_Van_der_Waal_Energy-OPLS-2005>
149.393753051758

> <r_mmod_Electrostatic_Energy-OPLS-2005>
-340.654815673828

> <r_mmod_Solvation_Energy-OPLS-2005>
-481.123870849609

> <b_mmod_Minimization_Converged-OPLS-2005>
0

> <r_mmod_RMS_Derivative-OPLS-2005>
1.24980175495148

$$$$
74
                    3D
 Structure written by MMmdl.
160169  0  0  1  0            999 V2000
  -30.4807  -15.3009   20.3706 C   0  0  0  0  0  0
  -30.4227  -12.8422   19.5269 C   0  0  0  0  0  0
  -29.5320  -12.6040   18.2832 C   0  0  0  0  0  0
  -28.0803  -12.3122   18.7047 C   0  0  0  0  0  0
  -27.6047  -13.2848   19.8138 C   0  0  2  0  0  0
  -28.6389  -13.4993   20.9433 C   0  0  0  0  0  0
  -25.2306  -13.8218   20.5695 C   0  0  0  0  0  0
  -24.1709  -13.0410   20.9275 C   0  0  0  0  0  0
  -24.6397  -11.6934   20.8786 C   0  0  0  0  0  0
  -23.9094  -10.4279   21.0400 C   0  0  0  0  0  0
  -24.3649   -9.4200   21.9170 C   0  0  0  0  0  0
  -23.6328   -8.2227   22.0734 C   0  0  0  0  0  0
  -22.4316   -8.0259   21.3511 C   0  0  0  0  0  0
  -21.9952   -9.0237   20.4621 C   0  0  0  0  0  0
  -22.7269  -10.2117   20.3029 C   0  0  0  0  0  0
  -21.6843   -6.0727   22.5282 C   0  0  0  0  0  0
  -21.4008   -6.5632   23.8217 C   0  0  0  0  0  0
  -21.3684   -5.6784   24.9164 C   0  0  0  0  0  0
  -21.6059   -4.3045   24.7205 C   0  0  0  0  0  0
  -21.8820   -3.8137   23.4330 C   0  0  0  0  0  0
  -21.9193   -4.6962   22.3387 C   0  0  0  0  0  0
  -22.7733  -13.5177   21.1905 C   0  0  0  0  0  0
  -22.1663   -4.2147   21.0966 F   0  0  0  0  0  0
  -21.5648   -3.4529   25.7716 F   0  0  0  0  0  0
  -29.8628  -14.0127   20.3063 N   0  0  0  0  0  0
  -26.2775  -12.9551   20.3194 N   0  0  0  0  0  0
  -25.9347  -11.6654   20.5728 N   0  0  0  0  0  0
  -22.0367  -12.8179   22.0457 N   0  0  0  0  0  0
  -25.3729  -15.1919   20.3986 N   0  0  0  0  0  0
  -31.7032  -15.2179   20.1761 O   0  0  0  0  0  0
  -21.6651   -6.8871   21.4244 O   0  0  0  0  0  0
  -22.3426  -14.5474   20.6705 O   0  0  0  0  0  0
  -24.6656  -31.8205   23.1692 C   0  0  0  0  0  0
  -25.9333  -32.4573   23.8171 C   0  0  1  0  0  0
  -27.2214  -26.9057   20.1716 C   0  0  0  0  0  0
  -25.6027  -33.8384   24.2090 N   0  0  0  0  0  0
  -23.4820  -30.4318   21.5185 C   0  0  2  0  0  0
  -24.9371  -28.8177   20.1067 C   0  0  0  0  0  0
  -22.7671  -29.4425   22.4768 C   0  0  0  0  0  0
  -18.0329  -28.1395   22.8436 C   0  0  0  0  0  0
  -24.1501  -36.7176   23.2646 C   0  0  0  0  0  0
  -26.0525  -30.6145   21.4075 C   0  0  0  0  0  0
  -26.1208  -29.2036   20.7488 C   0  0  0  0  0  0
  -27.2551  -28.2678   20.7604 C   0  0  0  0  0  0
  -26.0133  -26.6855   19.4717 C   0  0  0  0  0  0
  -24.9112  -27.5803   19.4453 C   0  0  0  0  0  0
  -23.7242  -29.7476   20.1448 C   0  0  0  0  0  0
  -25.4142  -36.2957   24.0313 C   0  0  1  0  0  0
  -20.5959  -28.3739   23.1167 C   0  0  2  0  0  0
  -20.6805  -26.9428   22.5388 C   0  0  0  0  0  0
  -19.5793  -26.6366   21.5194 C   0  0  0  0  0  0
  -18.1970  -26.7930   22.1607 C   0  0  0  0  0  0
  -19.1588  -28.8897   23.2787 C   0  0  0  0  0  0
  -18.9493  -30.1475   23.8834 C   0  0  0  0  0  0
  -17.6484  -30.6574   24.0542 C   0  0  0  0  0  0
  -25.9109  -34.9335   23.5017 C   0  0  0  0  0  0
  -16.5377  -29.9055   23.6360 C   0  0  0  0  0  0
  -16.7313  -28.6486   23.0360 C   0  0  0  0  0  0
  -26.4592  -31.6510   25.0687 C   0  0  0  0  0  0
  -25.3730  -31.3732   26.1358 C   0  0  0  0  0  0
  -27.0488  -30.2874   24.6436 C   0  0  0  0  0  0
  -27.6104  -32.4302   25.7481 C   0  0  0  0  0  0
  -27.5579  -37.1747   24.8464 C   0  0  0  0  0  0
  -21.4348  -29.3009   22.3489 N   0  0  0  0  0  0
  -26.4284  -37.3692   23.9413 N   0  0  0  0  0  0
  -24.7548  -30.9826   22.0861 N   0  0  0  0  0  0
  -23.4204  -28.8014   23.3038 O   0  0  0  0  0  0
  -28.2026  -25.7707   20.2497 O   0  0  0  0  0  0
  -26.5673  -34.8884   22.4589 O   0  0  0  0  0  0
  -23.5728  -32.1215   23.6787 O   0  0  0  0  0  0
  -28.5270  -19.8738   20.3930 C   0  0  0  0  0  0
  -29.9029  -19.6298   20.2308 C   0  0  0  0  0  0
  -27.9263  -21.2646   20.3825 C   0  0  0  0  0  0
  -30.6217  -20.8891   20.0450 C   0  0  0  0  0  0
  -30.0277  -22.2540   19.9982 C   0  0  0  0  0  0
  -28.6262  -22.5859   20.1943 C   0  0  0  0  0  0
  -27.7573  -18.4961   20.4460 C   0  0  0  0  0  0
  -30.5551  -18.0763   20.1973 C   0  0  0  0  0  0
  -28.4509  -17.0526   20.8035 C   0  0  0  0  0  0
  -26.4092  -21.3072   20.5237 C   0  0  0  0  0  0
  -32.1310  -20.7635   19.8333 C   0  0  0  0  0  0
  -30.9429  -23.4294   19.6648 C   0  0  0  0  0  0
  -27.8583  -24.1752   19.9688 C   0  0  0  0  0  0
  -29.8430  -16.6640   20.3848 N   0  0  0  0  0  0
  -31.4450  -13.0239   19.1958 H   0  0  0  0  0  0
  -30.4798  -11.9470   20.1500 H   0  0  0  0  0  0
  -29.9318  -11.7880   17.6801 H   0  0  0  0  0  0
  -29.5490  -13.4932   17.6478 H   0  0  0  0  0  0
  -28.0407  -11.2902   19.0769 H   0  0  0  0  0  0
  -27.4112  -12.3482   17.8440 H   0  0  0  0  0  0
  -27.5030  -14.2436   19.3058 H   0  0  0  0  0  0
  -28.8193  -12.5846   21.5114 H   0  0  0  0  0  0
  -28.2649  -14.2305   21.6616 H   0  0  0  0  0  0
  -25.2765   -9.5714   22.4776 H   0  0  0  0  0  0
  -24.0039   -7.4627   22.7475 H   0  0  0  0  0  0
  -21.0851   -8.8761   19.8933 H   0  0  0  0  0  0
  -22.3696  -10.9678   19.6163 H   0  0  0  0  0  0
  -21.1985   -7.6136   23.9727 H   0  0  0  0  0  0
  -21.1521   -6.0489   25.9084 H   0  0  0  0  0  0
  -22.0580   -2.7597   23.2800 H   0  0  0  0  0  0
  -22.3994  -11.9903   22.4923 H   0  0  0  0  0  0
  -21.0961  -13.1189   22.2568 H   0  0  0  0  0  0
  -24.5769  -15.8143   20.4750 H   0  0  0  0  0  0
  -26.1815  -15.6307   19.9819 H   0  0  0  0  0  0
  -26.7398  -32.5115   23.0873 H   0  0  0  0  0  0
  -25.0195  -33.9464   25.0271 H   0  0  0  0  0  0
  -22.7993  -31.2667   21.3477 H   0  0  0  0  0  0
  -23.3802  -35.9472   23.3268 H   0  0  0  0  0  0
  -24.3579  -36.8847   22.2070 H   0  0  0  0  0  0
  -23.7234  -37.6347   23.6710 H   0  0  0  0  0  0
  -26.2379  -31.3547   20.6287 H   0  0  0  0  0  0
  -26.9105  -30.6687   22.0641 H   0  0  0  0  0  0
  -28.1446  -28.5532   21.3076 H   0  0  0  0  0  0
  -25.8800  -25.7463   18.9524 H   0  0  0  0  0  0
  -24.0197  -27.2872   18.9071 H   0  0  0  0  0  0
  -23.8743  -30.5172   19.3863 H   0  0  0  0  0  0
  -22.8330  -29.2009   19.8323 H   0  0  0  0  0  0
  -25.1350  -36.1733   25.0806 H   0  0  0  0  0  0
  -21.0055  -28.3336   24.1296 H   0  0  0  0  0  0
  -20.5660  -26.2365   23.3622 H   0  0  0  0  0  0
  -21.6657  -26.7378   22.1198 H   0  0  0  0  0  0
  -19.6936  -25.6258   21.1260 H   0  0  0  0  0  0
  -19.6740  -27.3143   20.6700 H   0  0  0  0  0  0
  -17.4245  -26.6663   21.4011 H   0  0  0  0  0  0
  -18.0355  -26.0078   22.9004 H   0  0  0  0  0  0
  -19.7969  -30.7286   24.2186 H   0  0  0  0  0  0
  -17.5046  -31.6271   24.5113 H   0  0  0  0  0  0
  -15.5366  -30.2922   23.7741 H   0  0  0  0  0  0
  -15.8718  -28.0778   22.7121 H   0  0  0  0  0  0
  -24.5936  -30.7067   25.7647 H   0  0  0  0  0  0
  -24.8914  -32.2923   26.4701 H   0  0  0  0  0  0
  -25.7996  -30.8943   27.0184 H   0  0  0  0  0  0
  -26.3164  -29.6526   24.1442 H   0  0  0  0  0  0
  -27.4011  -29.7245   25.5087 H   0  0  0  0  0  0
  -27.9117  -30.4038   23.9875 H   0  0  0  0  0  0
  -27.2713  -33.3651   26.1948 H   0  0  0  0  0  0
  -28.3985  -32.6772   25.0349 H   0  0  0  0  0  0
  -28.0706  -31.8488   26.5477 H   0  0  0  0  0  0
  -28.2557  -38.0072   24.7541 H   0  0  0  0  0  0
  -28.1121  -36.2611   24.6271 H   0  0  0  0  0  0
  -27.2295  -37.1343   25.8859 H   0  0  0  0  0  0
  -20.9609  -29.8684   21.6602 H   0  0  0  0  0  0
  -26.0130  -38.2754   24.1414 H   0  0  0  0  0  0
  -27.2987  -18.3947   19.4617 H   0  0  0  0  0  0
  -26.9198  -18.5950   21.1326 H   0  0  0  0  0  0
  -31.3474  -18.0743   20.9452 H   0  0  0  0  0  0
  -31.0816  -18.0022   19.2454 H   0  0  0  0  0  0
  -27.7824  -16.2761   20.4470 H   0  0  0  0  0  0
  -28.4508  -16.9484   21.8888 H   0  0  0  0  0  0
  -26.0394  -20.5366   21.1982 H   0  0  0  0  0  0
  -25.9281  -21.1642   19.5557 H   0  0  0  0  0  0
  -26.0485  -22.2361   20.9536 H   0  0  0  0  0  0
  -32.5458  -19.8722   20.2989 H   0  0  0  0  0  0
  -32.6861  -21.5966   20.2646 H   0  0  0  0  0  0
  -32.3641  -20.7135   18.7693 H   0  0  0  0  0  0
  -31.4923  -23.7582   20.5473 H   0  0  0  0  0  0
  -30.3893  -24.2858   19.2862 H   0  0  0  0  0  0
  -31.6618  -23.1757   18.8832 H   0  0  0  0  0  0
  -26.8653  -24.0785   20.3940 H   0  0  0  0  0  0
  -27.6832  -24.1613   18.8941 H   0  0  0  0  0  0
  1 25  1  0  0  0
  1 30  2  0  0  0
  1 84  1  0  0  0
  2  3  1  0  0  0
  2 25  1  0  0  0
  2 85  1  0  0  0
  2 86  1  0  0  0
  3  4  1  0  0  0
  3 87  1  0  0  0
  3 88  1  0  0  0
  4  5  1  0  0  0
  4 89  1  0  0  0
  4 90  1  0  0  0
  5  6  1  0  0  0
  5 26  1  0  0  0
  5 91  1  0  0  0
  6 25  1  0  0  0
  6 92  1  0  0  0
  6 93  1  0  0  0
  7  8  2  0  0  0
  7 26  1  0  0  0
  7 29  1  0  0  0
  8  9  1  0  0  0
  8 22  1  0  0  0
  9 10  1  0  0  0
  9 27  2  0  0  0
 10 11  2  0  0  0
 10 15  1  0  0  0
 11 12  1  0  0  0
 11 94  1  0  0  0
 12 13  2  0  0  0
 12 95  1  0  0  0
 13 14  1  0  0  0
 13 31  1  0  0  0
 14 15  2  0  0  0
 14 96  1  0  0  0
 15 97  1  0  0  0
 16 17  2  0  0  0
 16 21  1  0  0  0
 16 31  1  0  0  0
 17 18  1  0  0  0
 17 98  1  0  0  0
 18 19  2  0  0  0
 18 99  1  0  0  0
 19 20  1  0  0  0
 19 24  1  0  0  0
 20 21  2  0  0  0
 20100  1  0  0  0
 21 23  1  0  0  0
 22 28  1  0  0  0
 22 32  2  0  0  0
 26 27  1  0  0  0
 28101  1  0  0  0
 28102  1  0  0  0
 29103  1  0  0  0
 29104  1  0  0  0
 33 34  1  0  0  0
 33 66  1  0  0  0
 33 70  2  0  0  0
 34 36  1  0  0  0
 34 59  1  0  0  0
 34105  1  0  0  0
 35 44  2  0  0  0
 35 45  1  0  0  0
 35 68  1  0  0  0
 36 56  1  0  0  0
 36106  1  0  0  0
 37 39  1  0  0  0
 37 47  1  0  0  0
 37 66  1  0  0  0
 37107  1  0  0  0
 38 43  2  0  0  0
 38 46  1  0  0  0
 38 47  1  0  0  0
 39 64  1  0  0  0
 39 67  2  0  0  0
 40 52  1  0  0  0
 40 53  2  0  0  0
 40 58  1  0  0  0
 41108  1  0  0  0
 41109  1  0  0  0
 41110  1  0  0  0
 41 48  1  0  0  0
 42 43  1  0  0  0
 42 66  1  0  0  0
 42111  1  0  0  0
 42112  1  0  0  0
 43 44  1  0  0  0
 44113  1  0  0  0
 45 46  2  0  0  0
 45114  1  0  0  0
 46115  1  0  0  0
 47116  1  0  0  0
 47117  1  0  0  0
 48 56  1  0  0  0
 48 65  1  0  0  0
 48118  1  0  0  0
 49 50  1  0  0  0
 49 53  1  0  0  0
 49 64  1  0  0  0
 49119  1  0  0  0
 50 51  1  0  0  0
 50120  1  0  0  0
 50121  1  0  0  0
 51 52  1  0  0  0
 51122  1  0  0  0
 51123  1  0  0  0
 52124  1  0  0  0
 52125  1  0  0  0
 53 54  1  0  0  0
 54 55  2  0  0  0
 54126  1  0  0  0
 55 57  1  0  0  0
 55127  1  0  0  0
 56 69  2  0  0  0
 57 58  2  0  0  0
 57128  1  0  0  0
 58129  1  0  0  0
 59 60  1  0  0  0
 59 61  1  0  0  0
 59 62  1  0  0  0
 60130  1  0  0  0
 60131  1  0  0  0
 60132  1  0  0  0
 61133  1  0  0  0
 61134  1  0  0  0
 61135  1  0  0  0
 62136  1  0  0  0
 62137  1  0  0  0
 62138  1  0  0  0
 63 65  1  0  0  0
 63139  1  0  0  0
 63140  1  0  0  0
 63141  1  0  0  0
 64142  1  0  0  0
 65143  1  0  0  0
 68 83  1  0  0  0
 71 72  1  0  0  0
 71 73  2  0  0  0
 71 77  1  0  0  0
 72 74  2  0  0  0
 72 78  1  0  0  0
 73 76  1  0  0  0
 73 80  1  0  0  0
 74 75  1  0  0  0
 74 81  1  0  0  0
 75 76  2  0  0  0
 75 82  1  0  0  0
 76 83  1  0  0  0
 77 79  1  0  0  0
 77144  1  0  0  0
 77145  1  0  0  0
 78 84  1  0  0  0
 78146  1  0  0  0
 78147  1  0  0  0
 79 84  1  0  0  0
 79148  1  0  0  0
 79149  1  0  0  0
 80150  1  0  0  0
 80151  1  0  0  0
 80152  1  0  0  0
 81153  1  0  0  0
 81154  1  0  0  0
 81155  1  0  0  0
 82156  1  0  0  0
 82157  1  0  0  0
 82158  1  0  0  0
 83159  1  0  0  0
 83160  1  0  0  0
M  ISO  4   1 100  68 101  83 101  84 100
M  END
> <chiral flag>
0

> <version>
0

> <s_m_source_file>
/data/baiqing/PycharmProjects/Reinvent-master-3.2/result/LINK_invent/BTK/process_docking_weight1_custom_sum_contain_oxygen_bond_distance_aromatic_linkinvent_7_9_3/rearranged_h_0169.sdf

> <i_m_source_file_index>
75

> <r_mmod_Potential_Energy-OPLS-2005>
1359.98022460938

> <r_mmod_Stretch_Energy-OPLS-2005>
531.284301757812

> <r_mmod_Bend_Energy-OPLS-2005>
446.6591796875

> <r_mmod_Torsional_Energy-OPLS-2005>
274.835052490234

> <r_mmod_Improper_Torsional_Energy-OPLS-2005>
8.57070827484131

> <r_mmod_Van_der_Waal_Energy-OPLS-2005>
139.166275024414

> <r_mmod_Electrostatic_Energy-OPLS-2005>
-323.981109619141

> <r_mmod_Solvation_Energy-OPLS-2005>
-210.21842956543

> <b_mmod_Minimization_Converged-OPLS-2005>
0

> <r_mmod_RMS_Derivative-OPLS-2005>
4.40713500976562

$$$$
75
                    3D
 Structure written by MMmdl.
176187  0  0  1  0            999 V2000
  -30.6720  -14.5627   20.5408 C   0  0  0  0  0  0
  -30.4324  -12.3647   19.4232 C   0  0  0  0  0  0
  -29.4942  -12.5027   18.2033 C   0  0  0  0  0  0
  -28.0151  -12.3581   18.6171 C   0  0  0  0  0  0
  -27.6565  -13.2033   19.8675 C   0  0  2  0  0  0
  -28.7062  -12.9812   20.9791 C   0  0  0  0  0  0
  -25.2570  -13.8160   20.5623 C   0  0  0  0  0  0
  -24.1830  -13.0445   20.9172 C   0  0  0  0  0  0
  -24.6389  -11.6912   20.8748 C   0  0  0  0  0  0
  -23.9063  -10.4294   21.0427 C   0  0  0  0  0  0
  -24.3617   -9.4206   21.9195 C   0  0  0  0  0  0
  -23.6279   -8.2240   22.0765 C   0  0  0  0  0  0
  -22.4269   -8.0285   21.3545 C   0  0  0  0  0  0
  -21.9913   -9.0267   20.4649 C   0  0  0  0  0  0
  -22.7244  -10.2138   20.3067 C   0  0  0  0  0  0
  -21.6849   -6.0738   22.5281 C   0  0  0  0  0  0
  -21.4003   -6.5644   23.8214 C   0  0  0  0  0  0
  -21.3662   -5.6795   24.9181 C   0  0  0  0  0  0
  -21.6041   -4.3057   24.7232 C   0  0  0  0  0  0
  -21.8827   -3.8149   23.4350 C   0  0  0  0  0  0
  -21.9191   -4.6965   22.3403 C   0  0  0  0  0  0
  -22.7852  -13.5234   21.1828 C   0  0  0  0  0  0
  -22.1654   -4.2149   21.0984 F   0  0  0  0  0  0
  -21.5638   -3.4546   25.7739 F   0  0  0  0  0  0
  -30.0115  -13.3668   20.4224 N   0  0  0  0  0  0
  -26.2999  -12.9317   20.3335 N   0  0  0  0  0  0
  -25.9316  -11.6485   20.5790 N   0  0  0  0  0  0
  -22.0478  -12.8227   22.0385 N   0  0  0  0  0  0
  -25.4278  -15.1864   20.3919 N   0  0  0  0  0  0
  -31.8336  -14.6765   20.1315 O   0  0  0  0  0  0
  -21.6632   -6.8881   21.4240 O   0  0  0  0  0  0
  -22.3541  -14.5544   20.6692 O   0  0  0  0  0  0
  -24.6178  -31.8656   23.2094 C   0  0  0  0  0  0
  -25.9076  -32.4808   23.8380 C   0  0  1  0  0  0
  -27.2337  -27.3959   20.1145 C   0  0  0  0  0  0
  -25.5922  -33.8619   24.2311 N   0  0  0  0  0  0
  -23.4042  -30.4885   21.5522 C   0  0  2  0  0  0
  -24.8517  -28.9344   20.1347 C   0  0  0  0  0  0
  -22.7399  -29.4666   22.5025 C   0  0  0  0  0  0
  -18.0262  -28.1366   22.8511 C   0  0  0  0  0  0
  -24.1479  -36.7292   23.2630 C   0  0  0  0  0  0
  -25.9355  -30.8148   21.3708 C   0  0  0  0  0  0
  -26.0136  -29.4401   20.7323 C   0  0  0  0  0  0
  -27.2118  -28.6805   20.7148 C   0  0  0  0  0  0
  -26.0540  -26.9066   19.5211 C   0  0  0  0  0  0
  -24.8655  -27.6637   19.5307 C   0  0  0  0  0  0
  -23.6176  -29.8100   20.1720 C   0  0  0  0  0  0
  -25.4115  -36.3126   24.0323 C   0  0  1  0  0  0
  -20.5845  -28.3671   23.1322 C   0  0  2  0  0  0
  -20.6759  -26.9411   22.5421 C   0  0  0  0  0  0
  -19.5738  -26.6383   21.5221 C   0  0  0  0  0  0
  -18.1909  -26.7911   22.1637 C   0  0  0  0  0  0
  -19.1512  -28.8842   23.2910 C   0  0  0  0  0  0
  -18.9452  -30.1450   23.8927 C   0  0  0  0  0  0
  -17.6464  -30.6597   24.0577 C   0  0  0  0  0  0
  -25.9060  -34.9485   23.5124 C   0  0  0  0  0  0
  -16.5353  -29.9100   23.6331 C   0  0  0  0  0  0
  -16.7261  -28.6504   23.0371 C   0  0  0  0  0  0
  -26.4501  -31.6582   25.0724 C   0  0  0  0  0  0
  -25.3754  -31.3712   26.1475 C   0  0  0  0  0  0
  -27.0310  -30.2991   24.6131 C   0  0  0  0  0  0
  -27.6083  -32.4282   25.7506 C   0  0  0  0  0  0
  -27.5587  -37.1805   24.8459 C   0  0  0  0  0  0
  -21.4133  -29.3031   22.3734 N   0  0  0  0  0  0
  -26.4294  -37.3826   23.9432 N   0  0  0  0  0  0
  -24.6698  -31.0728   22.1016 N   0  0  0  0  0  0
  -23.4159  -28.8204   23.3065 O   0  0  0  0  0  0
  -28.4065  -26.6990   19.9001 O   0  0  0  0  0  0
  -26.5627  -34.8937   22.4688 O   0  0  0  0  0  0
  -23.5370  -32.1449   23.7475 O   0  0  0  0  0  0
  -30.7785  -19.9000   21.6432 C   0  0  0  0  0  0
  -29.7072  -19.5802   20.7875 C   0  0  0  0  0  0
  -29.0355  -20.6735   20.1348 C   0  0  0  0  0  0
  -29.4140  -22.0170   20.4796 C   0  0  0  0  0  0
  -31.1176  -21.2381   21.8688 C   0  0  0  0  0  0
  -28.1526  -19.4971   17.9301 C   0  0  0  0  0  0
  -28.0568  -20.9792   17.7032 C   0  0  0  0  0  0
  -29.7880  -24.1599   19.1031 C   0  0  0  0  0  0
  -30.2132  -25.2741   20.0710 C   0  0  0  0  0  0
  -28.8848  -17.4711   22.0310 C   0  0  0  0  0  0
  -28.1613  -24.3309   20.9038 C   0  0  0  0  0  0
  -28.9483  -15.9553   21.8027 C   0  0  0  0  0  0
  -30.3455  -17.0404   20.2210 C   0  0  0  0  0  0
  -29.2899  -18.0824   20.6907 C   0  0  2  0  0  0
  -27.9484  -20.4261   19.1133 C   0  0  0  0  0  0
  -28.7727  -23.3126   19.8878 C   0  0  2  0  0  0
  -28.9243  -25.6925   20.7981 C   0  0  2  0  0  0
  -32.2850  -21.6005   22.7604 C   0  0  0  0  0  0
  -29.2122  -26.3302   22.1680 C   0  0  0  0  0  0
  -30.4344  -22.2637   21.3304 N   0  0  0  0  0  0
  -29.9337  -15.7066   20.7403 N   0  0  0  0  0  0
  -31.4682  -12.4908   19.1026 H   0  0  0  0  0  0
  -30.3765  -11.3578   19.8411 H   0  0  0  0  0  0
  -29.7437  -11.7546   17.4486 H   0  0  0  0  0  0
  -29.6479  -13.4749   17.7321 H   0  0  0  0  0  0
  -27.8324  -11.3025   18.8211 H   0  0  0  0  0  0
  -27.3641  -12.6251   17.7840 H   0  0  0  0  0  0
  -27.6985  -14.2480   19.5600 H   0  0  0  0  0  0
  -28.7217  -11.9297   21.2676 H   0  0  0  0  0  0
  -28.4546  -13.4991   21.8988 H   0  0  0  0  0  0
  -25.2773   -9.5672   22.4771 H   0  0  0  0  0  0
  -23.9990   -7.4644   22.7496 H   0  0  0  0  0  0
  -21.0850   -8.8800   19.8956 H   0  0  0  0  0  0
  -22.3722  -10.9687   19.6181 H   0  0  0  0  0  0
  -21.1991   -7.6145   23.9706 H   0  0  0  0  0  0
  -21.1471   -6.0529   25.9075 H   0  0  0  0  0  0
  -22.0602   -2.7609   23.2855 H   0  0  0  0  0  0
  -22.4096  -11.9892   22.4774 H   0  0  0  0  0  0
  -21.1109  -13.1284   22.2613 H   0  0  0  0  0  0
  -24.6603  -15.8418   20.4876 H   0  0  0  0  0  0
  -26.2716  -15.6131   20.0334 H   0  0  0  0  0  0
  -26.7132  -32.5514   23.1129 H   0  0  0  0  0  0
  -25.0078  -33.9780   25.0458 H   0  0  0  0  0  0
  -22.6975  -31.3090   21.4072 H   0  0  0  0  0  0
  -23.3806  -35.9558   23.3256 H   0  0  0  0  0  0
  -24.3567  -36.8968   22.2054 H   0  0  0  0  0  0
  -23.7145  -37.6434   23.6692 H   0  0  0  0  0  0
  -26.0547  -31.5754   20.5981 H   0  0  0  0  0  0
  -26.8201  -30.8706   21.9921 H   0  0  0  0  0  0
  -28.1218  -29.0873   21.1351 H   0  0  0  0  0  0
  -26.0676  -25.9460   19.0242 H   0  0  0  0  0  0
  -23.9733  -27.2709   19.0613 H   0  0  0  0  0  0
  -23.7343  -30.5814   19.4099 H   0  0  0  0  0  0
  -22.7389  -29.2340   19.8747 H   0  0  0  0  0  0
  -25.1273  -36.1995   25.0808 H   0  0  0  0  0  0
  -20.9949  -28.3259   24.1438 H   0  0  0  0  0  0
  -20.5678  -26.2292   23.3619 H   0  0  0  0  0  0
  -21.6631  -26.7452   22.1221 H   0  0  0  0  0  0
  -19.6920  -25.6302   21.1241 H   0  0  0  0  0  0
  -19.6674  -27.3205   20.6756 H   0  0  0  0  0  0
  -17.4186  -26.6694   21.4023 H   0  0  0  0  0  0
  -18.0298  -26.0023   22.8999 H   0  0  0  0  0  0
  -19.7939  -30.7234   24.2329 H   0  0  0  0  0  0
  -17.5034  -31.6279   24.5171 H   0  0  0  0  0  0
  -15.5365  -30.3032   23.7627 H   0  0  0  0  0  0
  -15.8644  -28.0838   22.7088 H   0  0  0  0  0  0
  -24.5886  -30.7105   25.7801 H   0  0  0  0  0  0
  -24.9005  -32.2888   26.4946 H   0  0  0  0  0  0
  -25.8093  -30.8837   27.0213 H   0  0  0  0  0  0
  -26.2820  -29.6763   24.1212 H   0  0  0  0  0  0
  -27.4044  -29.7246   25.4615 H   0  0  0  0  0  0
  -27.8702  -30.4232   23.9281 H   0  0  0  0  0  0
  -27.2714  -33.3586   26.2087 H   0  0  0  0  0  0
  -28.3912  -32.6810   25.0346 H   0  0  0  0  0  0
  -28.0721  -31.8391   26.5429 H   0  0  0  0  0  0
  -28.2593  -38.0120   24.7592 H   0  0  0  0  0  0
  -28.1100  -36.2667   24.6194 H   0  0  0  0  0  0
  -27.2317  -37.1326   25.8860 H   0  0  0  0  0  0
  -20.9334  -29.8739   21.6924 H   0  0  0  0  0  0
  -26.0193  -38.2893   24.1520 H   0  0  0  0  0  0
  -31.3339  -19.1204   22.1448 H   0  0  0  0  0  0
  -29.1297  -19.0381   17.7958 H   0  0  0  0  0  0
  -27.3067  -18.9034   17.5875 H   0  0  0  0  0  0
  -27.1485  -21.3490   17.2313 H   0  0  0  0  0  0
  -28.9724  -21.4930   17.4148 H   0  0  0  0  0  0
  -30.6255  -23.5812   18.7111 H   0  0  0  0  0  0
  -29.2829  -24.6155   18.2502 H   0  0  0  0  0  0
  -30.6981  -26.1053   19.5576 H   0  0  0  0  0  0
  -30.9369  -24.8749   20.7832 H   0  0  0  0  0  0
  -29.6074  -17.7296   22.8059 H   0  0  0  0  0  0
  -27.9082  -17.8148   22.3730 H   0  0  0  0  0  0
  -28.2646  -23.9214   21.9089 H   0  0  0  0  0  0
  -27.0909  -24.4609   20.7462 H   0  0  0  0  0  0
  -27.9651  -15.6196   21.4781 H   0  0  0  0  0  0
  -29.2066  -15.4372   22.7270 H   0  0  0  0  0  0
  -31.3273  -17.2771   20.6352 H   0  0  0  0  0  0
  -30.4426  -17.0389   19.1339 H   0  0  0  0  0  0
  -28.4246  -17.9912   20.0373 H   0  0  0  0  0  0
  -26.9657  -20.4419   19.5807 H   0  0  0  0  0  0
  -27.9645  -23.0327   19.2179 H   0  0  0  0  0  0
  -32.9957  -20.7759   22.8285 H   0  0  0  0  0  0
  -31.9341  -21.8399   23.7639 H   0  0  0  0  0  0
  -32.8186  -22.4651   22.3639 H   0  0  0  0  0  0
  -29.7923  -25.6595   22.8025 H   0  0  0  0  0  0
  -28.2871  -26.5582   22.6950 H   0  0  0  0  0  0
  -29.7800  -27.2553   22.0655 H   0  0  0  0  0  0
  1 25  1  0  0  0
  1 30  2  0  0  0
  1 91  1  0  0  0
  2  3  1  0  0  0
  2 25  1  0  0  0
  2 92  1  0  0  0
  2 93  1  0  0  0
  3  4  1  0  0  0
  3 94  1  0  0  0
  3 95  1  0  0  0
  4  5  1  0  0  0
  4 96  1  0  0  0
  4 97  1  0  0  0
  5  6  1  0  0  0
  5 26  1  0  0  0
  5 98  1  0  0  0
  6 25  1  0  0  0
  6 99  1  0  0  0
  6100  1  0  0  0
  7  8  2  0  0  0
  7 26  1  0  0  0
  7 29  1  0  0  0
  8  9  1  0  0  0
  8 22  1  0  0  0
  9 10  1  0  0  0
  9 27  2  0  0  0
 10 11  2  0  0  0
 10 15  1  0  0  0
 11 12  1  0  0  0
 11101  1  0  0  0
 12 13  2  0  0  0
 12102  1  0  0  0
 13 14  1  0  0  0
 13 31  1  0  0  0
 14 15  2  0  0  0
 14103  1  0  0  0
 15104  1  0  0  0
 16 17  2  0  0  0
 16 21  1  0  0  0
 16 31  1  0  0  0
 17 18  1  0  0  0
 17105  1  0  0  0
 18 19  2  0  0  0
 18106  1  0  0  0
 19 20  1  0  0  0
 19 24  1  0  0  0
 20 21  2  0  0  0
 20107  1  0  0  0
 21 23  1  0  0  0
 22 28  1  0  0  0
 22 32  2  0  0  0
 26 27  1  0  0  0
 28108  1  0  0  0
 28109  1  0  0  0
 29110  1  0  0  0
 29111  1  0  0  0
 33 34  1  0  0  0
 33 66  1  0  0  0
 33 70  2  0  0  0
 34 36  1  0  0  0
 34 59  1  0  0  0
 34112  1  0  0  0
 35 44  2  0  0  0
 35 45  1  0  0  0
 35 68  1  0  0  0
 36 56  1  0  0  0
 36113  1  0  0  0
 37 39  1  0  0  0
 37 47  1  0  0  0
 37 66  1  0  0  0
 37114  1  0  0  0
 38 43  2  0  0  0
 38 46  1  0  0  0
 38 47  1  0  0  0
 39 64  1  0  0  0
 39 67  2  0  0  0
 40 52  1  0  0  0
 40 53  2  0  0  0
 40 58  1  0  0  0
 41115  1  0  0  0
 41116  1  0  0  0
 41117  1  0  0  0
 41 48  1  0  0  0
 42 43  1  0  0  0
 42 66  1  0  0  0
 42118  1  0  0  0
 42119  1  0  0  0
 43 44  1  0  0  0
 44120  1  0  0  0
 45 46  2  0  0  0
 45121  1  0  0  0
 46122  1  0  0  0
 47123  1  0  0  0
 47124  1  0  0  0
 48 56  1  0  0  0
 48 65  1  0  0  0
 48125  1  0  0  0
 49 50  1  0  0  0
 49 53  1  0  0  0
 49 64  1  0  0  0
 49126  1  0  0  0
 50 51  1  0  0  0
 50127  1  0  0  0
 50128  1  0  0  0
 51 52  1  0  0  0
 51129  1  0  0  0
 51130  1  0  0  0
 52131  1  0  0  0
 52132  1  0  0  0
 53 54  1  0  0  0
 54 55  2  0  0  0
 54133  1  0  0  0
 55 57  1  0  0  0
 55134  1  0  0  0
 56 69  2  0  0  0
 57 58  2  0  0  0
 57135  1  0  0  0
 58136  1  0  0  0
 59 60  1  0  0  0
 59 61  1  0  0  0
 59 62  1  0  0  0
 60137  1  0  0  0
 60138  1  0  0  0
 60139  1  0  0  0
 61140  1  0  0  0
 61141  1  0  0  0
 61142  1  0  0  0
 62143  1  0  0  0
 62144  1  0  0  0
 62145  1  0  0  0
 63 65  1  0  0  0
 63146  1  0  0  0
 63147  1  0  0  0
 63148  1  0  0  0
 64149  1  0  0  0
 65150  1  0  0  0
 68 87  1  0  0  0
 71 72  2  0  0  0
 71 75  1  0  0  0
 71151  1  0  0  0
 72 73  1  0  0  0
 72 84  1  0  0  0
 73 74  2  0  0  0
 73 85  1  0  0  0
 74 90  1  0  0  0
 74 86  1  0  0  0
 75 88  1  0  0  0
 75 90  2  0  0  0
 76 77  1  0  0  0
 76 85  1  0  0  0
 76152  1  0  0  0
 76153  1  0  0  0
 77 85  1  0  0  0
 77154  1  0  0  0
 77155  1  0  0  0
 78 79  1  0  0  0
 78 86  1  0  0  0
 78156  1  0  0  0
 78157  1  0  0  0
 79 87  1  0  0  0
 79158  1  0  0  0
 79159  1  0  0  0
 80 82  1  0  0  0
 80 84  1  0  0  0
 80160  1  0  0  0
 80161  1  0  0  0
 81 86  1  0  0  0
 81 87  1  0  0  0
 81162  1  0  0  0
 81163  1  0  0  0
 82 91  1  0  0  0
 82164  1  0  0  0
 82165  1  0  0  0
 83 84  1  0  0  0
 83 91  1  0  0  0
 83166  1  0  0  0
 83167  1  0  0  0
 84168  1  0  0  0
 85169  1  0  0  0
 86170  1  0  0  0
 87 89  1  0  0  0
 88171  1  0  0  0
 88172  1  0  0  0
 88173  1  0  0  0
 89174  1  0  0  0
 89175  1  0  0  0
 89176  1  0  0  0
M  ISO  4   1 100  68 101  87 101  91 100
M  END
> <chiral flag>
0

> <version>
0

> <s_m_source_file>
/data/baiqing/PycharmProjects/Reinvent-master-3.2/result/LINK_invent/BTK/process_docking_weight1_custom_sum_contain_oxygen_bond_distance_aromatic_linkinvent_7_9_3/rearranged_h_0169.sdf

> <i_m_source_file_index>
76

> <r_mmod_Potential_Energy-OPLS-2005>
142.356292724609

> <r_mmod_Stretch_Energy-OPLS-2005>
58.0209083557129

> <r_mmod_Bend_Energy-OPLS-2005>
189.24479675293

> <r_mmod_Torsional_Energy-OPLS-2005>
407.397705078125

> <r_mmod_Improper_Torsional_Energy-OPLS-2005>
13.4484663009644

> <r_mmod_Van_der_Waal_Energy-OPLS-2005>
138.415023803711

> <r_mmod_Electrostatic_Energy-OPLS-2005>
-487.182556152344

> <r_mmod_Solvation_Energy-OPLS-2005>
-199.596374511719

> <b_mmod_Minimization_Converged-OPLS-2005>
0

> <r_mmod_RMS_Derivative-OPLS-2005>
2.69299101829529

$$$$
76
                    3D
 Structure written by MMmdl.
173182  0  0  1  0            999 V2000
  -30.6742  -14.6431   20.5798 C   0  0  0  0  0  0
  -30.4267  -12.4092   19.4833 C   0  0  0  0  0  0
  -29.5131  -12.5244   18.2423 C   0  0  0  0  0  0
  -28.0300  -12.3698   18.6283 C   0  0  0  0  0  0
  -27.6472  -13.2261   19.8629 C   0  0  2  0  0  0
  -28.6818  -13.0780   20.9972 C   0  0  0  0  0  0
  -25.2412  -13.8101   20.5603 C   0  0  0  0  0  0
  -24.1734  -13.0350   20.9162 C   0  0  0  0  0  0
  -24.6383  -11.6866   20.8745 C   0  0  0  0  0  0
  -23.9080  -10.4247   21.0423 C   0  0  0  0  0  0
  -24.3636   -9.4166   21.9204 C   0  0  0  0  0  0
  -23.6302   -8.2208   22.0773 C   0  0  0  0  0  0
  -22.4281   -8.0251   21.3562 C   0  0  0  0  0  0
  -21.9920   -9.0226   20.4670 C   0  0  0  0  0  0
  -22.7248  -10.2098   20.3076 C   0  0  0  0  0  0
  -21.6839   -6.0731   22.5297 C   0  0  0  0  0  0
  -21.4004   -6.5650   23.8227 C   0  0  0  0  0  0
  -21.3665   -5.6813   24.9193 C   0  0  0  0  0  0
  -21.6048   -4.3077   24.7243 C   0  0  0  0  0  0
  -21.8811   -3.8156   23.4366 C   0  0  0  0  0  0
  -21.9188   -4.6964   22.3415 C   0  0  0  0  0  0
  -22.7772  -13.5163   21.1884 C   0  0  0  0  0  0
  -22.1653   -4.2143   21.0994 F   0  0  0  0  0  0
  -21.5632   -3.4554   25.7755 F   0  0  0  0  0  0
  -30.0090  -13.4375   20.4656 N   0  0  0  0  0  0
  -26.2927  -12.9370   20.3294 N   0  0  0  0  0  0
  -25.9320  -11.6516   20.5762 N   0  0  0  0  0  0
  -22.0434  -12.8142   22.0434 N   0  0  0  0  0  0
  -25.3910  -15.1786   20.3928 N   0  0  0  0  0  0
  -31.7700  -14.8024   20.0328 O   0  0  0  0  0  0
  -21.6653   -6.8845   21.4244 O   0  0  0  0  0  0
  -22.3469  -14.5490   20.6781 O   0  0  0  0  0  0
  -24.6233  -31.8615   23.2020 C   0  0  0  0  0  0
  -25.9091  -32.4795   23.8353 C   0  0  1  0  0  0
  -27.2358  -27.3403   20.1250 C   0  0  0  0  0  0
  -25.5907  -33.8588   24.2273 N   0  0  0  0  0  0
  -23.4184  -30.4815   21.5468 C   0  0  2  0  0  0
  -24.8678  -28.9310   20.1295 C   0  0  0  0  0  0
  -22.7444  -29.4639   22.4975 C   0  0  0  0  0  0
  -18.0276  -28.1391   22.8494 C   0  0  0  0  0  0
  -24.1490  -36.7293   23.2636 C   0  0  0  0  0  0
  -25.9555  -30.8014   21.3689 C   0  0  0  0  0  0
  -26.0361  -29.4236   20.7270 C   0  0  0  0  0  0
  -27.2277  -28.6409   20.7120 C   0  0  0  0  0  0
  -26.0440  -26.8880   19.5282 C   0  0  0  0  0  0
  -24.8715  -27.6636   19.5276 C   0  0  0  0  0  0
  -23.6339  -29.8071   20.1681 C   0  0  0  0  0  0
  -25.4120  -36.3090   24.0326 C   0  0  1  0  0  0
  -20.5879  -28.3694   23.1305 C   0  0  2  0  0  0
  -20.6779  -26.9426   22.5413 C   0  0  0  0  0  0
  -19.5766  -26.6399   21.5210 C   0  0  0  0  0  0
  -18.1936  -26.7940   22.1614 C   0  0  0  0  0  0
  -19.1525  -28.8860   23.2904 C   0  0  0  0  0  0
  -18.9447  -30.1457   23.8931 C   0  0  0  0  0  0
  -17.6446  -30.6593   24.0590 C   0  0  0  0  0  0
  -25.9050  -34.9458   23.5088 C   0  0  0  0  0  0
  -16.5343  -29.9088   23.6350 C   0  0  0  0  0  0
  -16.7261  -28.6516   23.0353 C   0  0  0  0  0  0
  -26.4492  -31.6593   25.0707 C   0  0  0  0  0  0
  -25.3718  -31.3732   26.1426 C   0  0  0  0  0  0
  -27.0311  -30.3018   24.6122 C   0  0  0  0  0  0
  -27.6061  -32.4312   25.7487 C   0  0  0  0  0  0
  -27.5578  -37.1805   24.8466 C   0  0  0  0  0  0
  -21.4160  -29.3052   22.3701 N   0  0  0  0  0  0
  -26.4299  -37.3787   23.9400 N   0  0  0  0  0  0
  -24.6851  -31.0628   22.0987 N   0  0  0  0  0  0
  -23.4157  -28.8176   23.3069 O   0  0  0  0  0  0
  -28.3760  -26.5465   19.9923 O   0  0  0  0  0  0
  -26.5606  -34.8924   22.4655 O   0  0  0  0  0  0
  -23.5402  -32.1410   23.7348 O   0  0  0  0  0  0
  -29.2888  -21.7075   20.4235 C   0  0  0  0  0  0
  -28.4320  -22.7949   19.9655 C   0  0  0  0  0  0
  -29.4936  -20.5340   19.6028 C   0  0  0  0  0  0
  -27.9165  -22.6432   18.6498 C   0  0  0  0  0  0
  -28.8627  -20.5403   18.3384 C   0  0  0  0  0  0
  -28.2121  -16.5352   22.4257 C   0  0  0  0  0  0
  -28.1522  -17.1440   21.0118 C   0  0  0  0  0  0
  -29.5836  -15.8449   22.5048 C   0  0  0  0  0  0
  -29.5790  -17.0248   20.4676 C   0  0  1  0  0  0
  -30.0479  -21.8060   21.7363 C   0  0  0  0  0  0
  -27.0507  -23.6862   17.9708 C   0  0  0  0  0  0
  -29.0221  -19.3915   17.3546 C   0  0  0  0  0  0
  -27.5265  -23.5615   22.2654 C   0  0  0  0  0  0
  -30.3331  -18.3691   20.8689 C   0  0  0  0  0  0
  -28.6265  -25.4280   20.9083 C   0  0  0  0  0  0
  -27.8896  -24.0130   20.8375 C   0  0  1  0  0  0
  -28.1226  -21.5612   17.8780 N   0  0  0  0  0  0
  -30.0071  -15.7304   21.1125 N   0  0  0  0  0  0
  -30.3925  -19.4402   19.8388 N   0  0  0  0  0  0
  -31.4725  -12.5118   19.1922 H   0  0  0  0  0  0
  -30.3457  -11.4177   19.9315 H   0  0  0  0  0  0
  -29.7845  -11.7652   17.5083 H   0  0  0  0  0  0
  -29.6686  -13.4896   17.7596 H   0  0  0  0  0  0
  -27.8472  -11.3157   18.8401 H   0  0  0  0  0  0
  -27.3956  -12.6234   17.7771 H   0  0  0  0  0  0
  -27.6623  -14.2650   19.5374 H   0  0  0  0  0  0
  -28.6914  -12.0563   21.3761 H   0  0  0  0  0  0
  -28.3705  -13.6835   21.8402 H   0  0  0  0  0  0
  -25.2772   -9.5641   22.4794 H   0  0  0  0  0  0
  -23.9998   -7.4590   22.7491 H   0  0  0  0  0  0
  -21.0846   -8.8749   19.8982 H   0  0  0  0  0  0
  -22.3699  -10.9650   19.6198 H   0  0  0  0  0  0
  -21.1979   -7.6157   23.9716 H   0  0  0  0  0  0
  -21.1516   -6.0556   25.9097 H   0  0  0  0  0  0
  -22.0587   -2.7617   23.2874 H   0  0  0  0  0  0
  -22.4063  -11.9800   22.4795 H   0  0  0  0  0  0
  -21.1102  -13.1222   22.2763 H   0  0  0  0  0  0
  -24.6239  -15.8292   20.5172 H   0  0  0  0  0  0
  -26.2509  -15.6238   20.1036 H   0  0  0  0  0  0
  -26.7154  -32.5508   23.1110 H   0  0  0  0  0  0
  -25.0088  -33.9745   25.0432 H   0  0  0  0  0  0
  -22.7158  -31.3033   21.3966 H   0  0  0  0  0  0
  -23.3751  -35.9627   23.3317 H   0  0  0  0  0  0
  -24.3581  -36.8887   22.2047 H   0  0  0  0  0  0
  -23.7238  -37.6501   23.6640 H   0  0  0  0  0  0
  -26.0661  -31.5597   20.5926 H   0  0  0  0  0  0
  -26.8449  -30.8682   21.9838 H   0  0  0  0  0  0
  -28.1382  -29.0290   21.1470 H   0  0  0  0  0  0
  -26.0141  -25.9285   19.0447 H   0  0  0  0  0  0
  -23.9765  -27.2725   19.0630 H   0  0  0  0  0  0
  -23.7539  -30.5765   19.4063 H   0  0  0  0  0  0
  -22.7590  -29.2273   19.8692 H   0  0  0  0  0  0
  -25.1301  -36.1962   25.0822 H   0  0  0  0  0  0
  -20.9979  -28.3256   24.1421 H   0  0  0  0  0  0
  -20.5699  -26.2278   23.3598 H   0  0  0  0  0  0
  -21.6658  -26.7492   22.1205 H   0  0  0  0  0  0
  -19.6926  -25.6298   21.1260 H   0  0  0  0  0  0
  -19.6713  -27.3212   20.6740 H   0  0  0  0  0  0
  -17.4208  -26.6709   21.4006 H   0  0  0  0  0  0
  -18.0328  -26.0073   22.9000 H   0  0  0  0  0  0
  -19.7918  -30.7287   24.2291 H   0  0  0  0  0  0
  -17.4995  -31.6281   24.5176 H   0  0  0  0  0  0
  -15.5345  -30.2995   23.7658 H   0  0  0  0  0  0
  -15.8664  -28.0844   22.7047 H   0  0  0  0  0  0
  -24.5912  -30.7062   25.7746 H   0  0  0  0  0  0
  -24.8890  -32.2901   26.4826 H   0  0  0  0  0  0
  -25.8046  -30.8933   27.0214 H   0  0  0  0  0  0
  -26.2862  -29.6797   24.1142 H   0  0  0  0  0  0
  -27.4008  -29.7261   25.4618 H   0  0  0  0  0  0
  -27.8741  -30.4307   23.9323 H   0  0  0  0  0  0
  -27.2682  -33.3621   26.2066 H   0  0  0  0  0  0
  -28.3892  -32.6852   25.0322 H   0  0  0  0  0  0
  -28.0705  -31.8421   26.5410 H   0  0  0  0  0  0
  -28.2611  -38.0089   24.7502 H   0  0  0  0  0  0
  -28.1060  -36.2615   24.6321 H   0  0  0  0  0  0
  -27.2286  -37.1494   25.8867 H   0  0  0  0  0  0
  -20.9317  -29.8747   21.6906 H   0  0  0  0  0  0
  -26.0181  -38.2865   24.1408 H   0  0  0  0  0  0
  -27.4038  -15.8181   22.5733 H   0  0  0  0  0  0
  -28.1120  -17.2953   23.2036 H   0  0  0  0  0  0
  -27.7694  -18.1664   21.0085 H   0  0  0  0  0  0
  -27.4961  -16.5652   20.3743 H   0  0  0  0  0  0
  -29.5779  -14.9091   23.0649 H   0  0  0  0  0  0
  -30.2972  -16.4940   23.0139 H   0  0  0  0  0  0
  -29.5839  -16.8994   19.3817 H   0  0  0  0  0  0
  -30.9674  -21.2204   21.7035 H   0  0  0  0  0  0
  -30.3487  -22.8335   21.9313 H   0  0  0  0  0  0
  -29.4486  -21.4335   22.5655 H   0  0  0  0  0  0
  -26.9046  -23.4637   16.9131 H   0  0  0  0  0  0
  -27.5258  -24.6651   18.0254 H   0  0  0  0  0  0
  -26.0620  -23.7306   18.4270 H   0  0  0  0  0  0
  -28.7324  -18.4482   17.8195 H   0  0  0  0  0  0
  -30.0576  -19.3149   17.0242 H   0  0  0  0  0  0
  -28.3940  -19.5242   16.4739 H   0  0  0  0  0  0
  -26.8359  -24.2691   22.7259 H   0  0  0  0  0  0
  -28.3965  -23.5122   22.9181 H   0  0  0  0  0  0
  -27.0362  -22.5879   22.2665 H   0  0  0  0  0  0
  -31.3709  -18.1129   21.0911 H   0  0  0  0  0  0
  -29.9318  -18.7808   21.7966 H   0  0  0  0  0  0
  -28.4048  -25.8557   21.8879 H   0  0  0  0  0  0
  -29.7034  -25.2523   20.9373 H   0  0  0  0  0  0
  -26.9064  -24.2495   20.4382 H   0  0  0  0  0  0
  -30.7541  -19.0676   18.9661 H   0  0  0  0  0  0
  1 25  1  0  0  0
  1 30  2  0  0  0
  1 88  1  0  0  0
  2  3  1  0  0  0
  2 25  1  0  0  0
  2 90  1  0  0  0
  2 91  1  0  0  0
  3  4  1  0  0  0
  3 92  1  0  0  0
  3 93  1  0  0  0
  4  5  1  0  0  0
  4 94  1  0  0  0
  4 95  1  0  0  0
  5  6  1  0  0  0
  5 26  1  0  0  0
  5 96  1  0  0  0
  6 25  1  0  0  0
  6 97  1  0  0  0
  6 98  1  0  0  0
  7  8  2  0  0  0
  7 26  1  0  0  0
  7 29  1  0  0  0
  8  9  1  0  0  0
  8 22  1  0  0  0
  9 10  1  0  0  0
  9 27  2  0  0  0
 10 11  2  0  0  0
 10 15  1  0  0  0
 11 12  1  0  0  0
 11 99  1  0  0  0
 12 13  2  0  0  0
 12100  1  0  0  0
 13 14  1  0  0  0
 13 31  1  0  0  0
 14 15  2  0  0  0
 14101  1  0  0  0
 15102  1  0  0  0
 16 17  2  0  0  0
 16 21  1  0  0  0
 16 31  1  0  0  0
 17 18  1  0  0  0
 17103  1  0  0  0
 18 19  2  0  0  0
 18104  1  0  0  0
 19 20  1  0  0  0
 19 24  1  0  0  0
 20 21  2  0  0  0
 20105  1  0  0  0
 21 23  1  0  0  0
 22 28  1  0  0  0
 22 32  2  0  0  0
 26 27  1  0  0  0
 28106  1  0  0  0
 28107  1  0  0  0
 29108  1  0  0  0
 29109  1  0  0  0
 33 34  1  0  0  0
 33 66  1  0  0  0
 33 70  2  0  0  0
 34 36  1  0  0  0
 34 59  1  0  0  0
 34110  1  0  0  0
 35 44  2  0  0  0
 35 45  1  0  0  0
 35 68  1  0  0  0
 36 56  1  0  0  0
 36111  1  0  0  0
 37 39  1  0  0  0
 37 47  1  0  0  0
 37 66  1  0  0  0
 37112  1  0  0  0
 38 43  2  0  0  0
 38 46  1  0  0  0
 38 47  1  0  0  0
 39 64  1  0  0  0
 39 67  2  0  0  0
 40 52  1  0  0  0
 40 53  2  0  0  0
 40 58  1  0  0  0
 41113  1  0  0  0
 41114  1  0  0  0
 41115  1  0  0  0
 41 48  1  0  0  0
 42 43  1  0  0  0
 42 66  1  0  0  0
 42116  1  0  0  0
 42117  1  0  0  0
 43 44  1  0  0  0
 44118  1  0  0  0
 45 46  2  0  0  0
 45119  1  0  0  0
 46120  1  0  0  0
 47121  1  0  0  0
 47122  1  0  0  0
 48 56  1  0  0  0
 48 65  1  0  0  0
 48123  1  0  0  0
 49 50  1  0  0  0
 49 53  1  0  0  0
 49 64  1  0  0  0
 49124  1  0  0  0
 50 51  1  0  0  0
 50125  1  0  0  0
 50126  1  0  0  0
 51 52  1  0  0  0
 51127  1  0  0  0
 51128  1  0  0  0
 52129  1  0  0  0
 52130  1  0  0  0
 53 54  1  0  0  0
 54 55  2  0  0  0
 54131  1  0  0  0
 55 57  1  0  0  0
 55132  1  0  0  0
 56 69  2  0  0  0
 57 58  2  0  0  0
 57133  1  0  0  0
 58134  1  0  0  0
 59 60  1  0  0  0
 59 61  1  0  0  0
 59 62  1  0  0  0
 60135  1  0  0  0
 60136  1  0  0  0
 60137  1  0  0  0
 61138  1  0  0  0
 61139  1  0  0  0
 61140  1  0  0  0
 62141  1  0  0  0
 62142  1  0  0  0
 62143  1  0  0  0
 63 65  1  0  0  0
 63144  1  0  0  0
 63145  1  0  0  0
 63146  1  0  0  0
 64147  1  0  0  0
 65148  1  0  0  0
 68 85  1  0  0  0
 71 72  2  0  0  0
 71 73  1  0  0  0
 71 80  1  0  0  0
 72 74  1  0  0  0
 72 86  1  0  0  0
 73 75  2  0  0  0
 73 89  1  0  0  0
 74 81  1  0  0  0
 74 87  2  0  0  0
 75 82  1  0  0  0
 75 87  1  0  0  0
 76 77  1  0  0  0
 76 78  1  0  0  0
 76149  1  0  0  0
 76150  1  0  0  0
 77 79  1  0  0  0
 77151  1  0  0  0
 77152  1  0  0  0
 78 88  1  0  0  0
 78153  1  0  0  0
 78154  1  0  0  0
 79 84  1  0  0  0
 79 88  1  0  0  0
 79155  1  0  0  0
 80156  1  0  0  0
 80157  1  0  0  0
 80158  1  0  0  0
 81159  1  0  0  0
 81160  1  0  0  0
 81161  1  0  0  0
 82162  1  0  0  0
 82163  1  0  0  0
 82164  1  0  0  0
 83165  1  0  0  0
 83166  1  0  0  0
 83167  1  0  0  0
 83 86  1  0  0  0
 84 89  1  0  0  0
 84168  1  0  0  0
 84169  1  0  0  0
 85 86  1  0  0  0
 85170  1  0  0  0
 85171  1  0  0  0
 86172  1  0  0  0
 89173  1  0  0  0
M  ISO  4   1 100  68 101  85 101  88 100
M  END
> <chiral flag>
0

> <version>
0

> <s_m_source_file>
/data/baiqing/PycharmProjects/Reinvent-master-3.2/result/LINK_invent/BTK/process_docking_weight1_custom_sum_contain_oxygen_bond_distance_aromatic_linkinvent_7_9_3/rearranged_h_0169.sdf

> <i_m_source_file_index>
77

> <r_mmod_Potential_Energy-OPLS-2005>
262.762084960938

> <r_mmod_Stretch_Energy-OPLS-2005>
89.7851409912109

> <r_mmod_Bend_Energy-OPLS-2005>
234.318771362305

> <r_mmod_Torsional_Energy-OPLS-2005>
416.804229736328

> <r_mmod_Improper_Torsional_Energy-OPLS-2005>
9.75713729858398

> <r_mmod_Van_der_Waal_Energy-OPLS-2005>
138.187835693359

> <r_mmod_Electrostatic_Energy-OPLS-2005>
-453.323333740234

> <r_mmod_Solvation_Energy-OPLS-2005>
-212.3583984375

> <b_mmod_Minimization_Converged-OPLS-2005>
0

> <r_mmod_RMS_Derivative-OPLS-2005>
3.55556631088257

$$$$
77
                    3D
 Structure written by MMmdl.
154163  0  0  1  0            999 V2000
  -30.4689  -15.3172   20.3801 C   0  0  0  0  0  0
  -30.4305  -12.8596   19.5151 C   0  0  0  0  0  0
  -29.5328  -12.5956   18.2799 C   0  0  0  0  0  0
  -28.0841  -12.3140   18.7114 C   0  0  0  0  0  0
  -27.6084  -13.2875   19.8194 C   0  0  2  0  0  0
  -28.6453  -13.4851   20.9464 C   0  0  0  0  0  0
  -25.2357  -13.8266   20.5719 C   0  0  0  0  0  0
  -24.1735  -13.0446   20.9264 C   0  0  0  0  0  0
  -24.6421  -11.6950   20.8773 C   0  0  0  0  0  0
  -23.9123  -10.4307   21.0410 C   0  0  0  0  0  0
  -24.3667   -9.4215   21.9179 C   0  0  0  0  0  0
  -23.6331   -8.2253   22.0758 C   0  0  0  0  0  0
  -22.4299   -8.0304   21.3558 C   0  0  0  0  0  0
  -21.9953   -9.0276   20.4647 C   0  0  0  0  0  0
  -22.7302  -10.2146   20.3054 C   0  0  0  0  0  0
  -21.6860   -6.0761   22.5290 C   0  0  0  0  0  0
  -21.4009   -6.5651   23.8226 C   0  0  0  0  0  0
  -21.3657   -5.6797   24.9181 C   0  0  0  0  0  0
  -21.6041   -4.3063   24.7224 C   0  0  0  0  0  0
  -21.8814   -3.8160   23.4340 C   0  0  0  0  0  0
  -21.9188   -4.6983   22.3403 C   0  0  0  0  0  0
  -22.7747  -13.5192   21.1896 C   0  0  0  0  0  0
  -22.1653   -4.2173   21.0982 F   0  0  0  0  0  0
  -21.5639   -3.4537   25.7731 F   0  0  0  0  0  0
  -29.8587  -14.0223   20.3035 N   0  0  0  0  0  0
  -26.2813  -12.9573   20.3230 N   0  0  0  0  0  0
  -25.9368  -11.6668   20.5730 N   0  0  0  0  0  0
  -22.0400  -12.8182   22.0448 N   0  0  0  0  0  0
  -25.3913  -15.1990   20.4066 N   0  0  0  0  0  0
  -31.6933  -15.2332   20.1943 O   0  0  0  0  0  0
  -21.6651   -6.8912   21.4254 O   0  0  0  0  0  0
  -22.3433  -14.5488   20.6728 O   0  0  0  0  0  0
  -24.6647  -31.8224   23.1700 C   0  0  0  0  0  0
  -25.9330  -32.4573   23.8160 C   0  0  1  0  0  0
  -27.2105  -26.9117   20.1884 C   0  0  0  0  0  0
  -25.6000  -33.8386   24.2064 N   0  0  0  0  0  0
  -23.4779  -30.4356   21.5203 C   0  0  2  0  0  0
  -24.9308  -28.8237   20.1110 C   0  0  0  0  0  0
  -22.7678  -29.4432   22.4790 C   0  0  0  0  0  0
  -18.0321  -28.1415   22.8477 C   0  0  0  0  0  0
  -24.1478  -36.7164   23.2644 C   0  0  0  0  0  0
  -26.0486  -30.6269   21.4005 C   0  0  0  0  0  0
  -26.1166  -29.2154   20.7448 C   0  0  0  0  0  0
  -27.2513  -28.2823   20.7585 C   0  0  0  0  0  0
  -25.9949  -26.6818   19.5045 C   0  0  0  0  0  0
  -24.8971  -27.5778   19.4677 C   0  0  0  0  0  0
  -23.7171  -29.7530   20.1461 C   0  0  0  0  0  0
  -25.4123  -36.2941   24.0303 C   0  0  1  0  0  0
  -20.5954  -28.3750   23.1198 C   0  0  2  0  0  0
  -20.6796  -26.9429   22.5422 C   0  0  0  0  0  0
  -19.5769  -26.6386   21.5228 C   0  0  0  0  0  0
  -18.1947  -26.7953   22.1629 C   0  0  0  0  0  0
  -19.1595  -28.8904   23.2819 C   0  0  0  0  0  0
  -18.9498  -30.1501   23.8843 C   0  0  0  0  0  0
  -17.6492  -30.6603   24.0564 C   0  0  0  0  0  0
  -25.9110  -34.9339   23.5004 C   0  0  0  0  0  0
  -16.5374  -29.9099   23.6359 C   0  0  0  0  0  0
  -16.7305  -28.6526   23.0364 C   0  0  0  0  0  0
  -26.4575  -31.6516   25.0686 C   0  0  0  0  0  0
  -25.3699  -31.3811   26.1350 C   0  0  0  0  0  0
  -27.0445  -30.2864   24.6427 C   0  0  0  0  0  0
  -27.6073  -32.4320   25.7483 C   0  0  0  0  0  0
  -27.5563  -37.1726   24.8459 C   0  0  0  0  0  0
  -21.4355  -29.3024   22.3528 N   0  0  0  0  0  0
  -26.4241  -37.3705   23.9443 N   0  0  0  0  0  0
  -24.7520  -30.9895   22.0836 N   0  0  0  0  0  0
  -23.4237  -28.8006   23.3032 O   0  0  0  0  0  0
  -28.1914  -25.7805   20.2601 O   0  0  0  0  0  0
  -26.5712  -34.8886   22.4589 O   0  0  0  0  0  0
  -23.5727  -32.1182   23.6819 O   0  0  0  0  0  0
  -27.9796  -21.3062   20.6360 C   0  0  0  0  0  0
  -30.5118  -20.8858   19.7818 C   0  0  0  0  0  0
  -28.5584  -19.9079   20.6029 C   0  0  0  0  0  0
  -29.8681  -19.6395   20.1681 C   0  0  0  0  0  0
  -29.9440  -22.2529   19.8067 C   0  0  0  0  0  0
  -28.6104  -22.6083   20.2496 C   0  0  0  0  0  0
  -27.8961  -18.5752   21.1031 C   0  0  0  0  0  0
  -30.5448  -18.0993   20.1872 C   0  0  0  0  0  0
  -28.3844  -17.0793   20.6117 C   0  0  0  0  0  0
  -30.8241  -23.3826   19.3045 C   0  0  0  0  0  0
  -27.7993  -24.1767   20.1593 C   0  0  0  0  0  0
  -29.8349  -16.6863   20.4181 N   0  0  0  0  0  0
  -31.4464  -13.0607   19.1703 H   0  0  0  0  0  0
  -30.5126  -11.9666   20.1365 H   0  0  0  0  0  0
  -29.9233  -11.7613   17.6951 H   0  0  0  0  0  0
  -29.5567  -13.4673   17.6233 H   0  0  0  0  0  0
  -28.0435  -11.2883   19.0787 H   0  0  0  0  0  0
  -27.4156  -12.3571   17.8507 H   0  0  0  0  0  0
  -27.5132  -14.2495   19.3142 H   0  0  0  0  0  0
  -28.8366  -12.5511   21.4779 H   0  0  0  0  0  0
  -28.2767  -14.1894   21.6912 H   0  0  0  0  0  0
  -25.2816   -9.5683   22.4750 H   0  0  0  0  0  0
  -24.0037   -7.4641   22.7477 H   0  0  0  0  0  0
  -21.0890   -8.8817   19.8944 H   0  0  0  0  0  0
  -22.3784  -10.9689   19.6158 H   0  0  0  0  0  0
  -21.1995   -7.6156   23.9739 H   0  0  0  0  0  0
  -21.1482   -6.0520   25.9091 H   0  0  0  0  0  0
  -22.0588   -2.7621   23.2829 H   0  0  0  0  0  0
  -22.4038  -11.9865   22.4860 H   0  0  0  0  0  0
  -21.1000  -13.1186   22.2629 H   0  0  0  0  0  0
  -24.6076  -15.8366   20.4927 H   0  0  0  0  0  0
  -26.2228  -15.6395   20.0384 H   0  0  0  0  0  0
  -26.7392  -32.5104   23.0875 H   0  0  0  0  0  0
  -25.0116  -33.9460   25.0197 H   0  0  0  0  0  0
  -22.7906  -31.2673   21.3512 H   0  0  0  0  0  0
  -23.3770  -35.9459   23.3258 H   0  0  0  0  0  0
  -24.3571  -36.8855   22.2067 H   0  0  0  0  0  0
  -23.7189  -37.6323   23.6720 H   0  0  0  0  0  0
  -26.2292  -31.3706   20.6230 H   0  0  0  0  0  0
  -26.9091  -30.6835   22.0555 H   0  0  0  0  0  0
  -28.1460  -28.5830   21.2856 H   0  0  0  0  0  0
  -25.8460  -25.7328   19.0132 H   0  0  0  0  0  0
  -23.9977  -27.2733   18.9507 H   0  0  0  0  0  0
  -23.8681  -30.5207   19.3861 H   0  0  0  0  0  0
  -22.8269  -29.2062   19.8318 H   0  0  0  0  0  0
  -25.1318  -36.1707   25.0791 H   0  0  0  0  0  0
  -21.0039  -28.3345   24.1326 H   0  0  0  0  0  0
  -20.5647  -26.2373   23.3665 H   0  0  0  0  0  0
  -21.6656  -26.7392   22.1230 H   0  0  0  0  0  0
  -19.6918  -25.6294   21.1262 H   0  0  0  0  0  0
  -19.6703  -27.3196   20.6754 H   0  0  0  0  0  0
  -17.4220  -26.6713   21.4020 H   0  0  0  0  0  0
  -18.0319  -26.0110   22.9036 H   0  0  0  0  0  0
  -19.7975  -30.7340   24.2167 H   0  0  0  0  0  0
  -17.5044  -31.6273   24.5192 H   0  0  0  0  0  0
  -15.5372  -30.2976   23.7721 H   0  0  0  0  0  0
  -15.8710  -28.0833   22.7089 H   0  0  0  0  0  0
  -24.5931  -30.7077   25.7709 H   0  0  0  0  0  0
  -24.8828  -32.3026   26.4550 H   0  0  0  0  0  0
  -25.7951  -30.9172   27.0261 H   0  0  0  0  0  0
  -26.3111  -29.6557   24.1383 H   0  0  0  0  0  0
  -27.3905  -29.7219   25.5098 H   0  0  0  0  0  0
  -27.9096  -30.4024   23.9890 H   0  0  0  0  0  0
  -27.2653  -33.3697   26.1883 H   0  0  0  0  0  0
  -28.3977  -32.6745   25.0362 H   0  0  0  0  0  0
  -28.0616  -31.8535   26.5541 H   0  0  0  0  0  0
  -28.2524  -38.0078   24.7581 H   0  0  0  0  0  0
  -28.1106  -36.2613   24.6167 H   0  0  0  0  0  0
  -27.2311  -37.1238   25.8867 H   0  0  0  0  0  0
  -20.9598  -29.8705   21.6651 H   0  0  0  0  0  0
  -26.0069  -38.2734   24.1534 H   0  0  0  0  0  0
  -26.9574  -21.3802   20.9832 H   0  0  0  0  0  0
  -31.5305  -20.7937   19.4299 H   0  0  0  0  0  0
  -26.8219  -18.6569   20.9306 H   0  0  0  0  0  0
  -28.0024  -18.6063   22.1890 H   0  0  0  0  0  0
  -31.3194  -18.1489   20.9535 H   0  0  0  0  0  0
  -31.0971  -18.0070   19.2505 H   0  0  0  0  0  0
  -27.9197  -16.8934   19.6440 H   0  0  0  0  0  0
  -27.9335  -16.3600   21.2927 H   0  0  0  0  0  0
  -31.8807  -23.1301   19.3977 H   0  0  0  0  0  0
  -30.6518  -24.2971   19.8736 H   0  0  0  0  0  0
  -30.6115  -23.5936   18.2554 H   0  0  0  0  0  0
  -26.9864  -24.0755   20.8787 H   0  0  0  0  0  0
  -27.3078  -24.1050   19.1904 H   0  0  0  0  0  0
  1 25  1  0  0  0
  1 30  2  0  0  0
  1 82  1  0  0  0
  2  3  1  0  0  0
  2 25  1  0  0  0
  2 83  1  0  0  0
  2 84  1  0  0  0
  3  4  1  0  0  0
  3 85  1  0  0  0
  3 86  1  0  0  0
  4  5  1  0  0  0
  4 87  1  0  0  0
  4 88  1  0  0  0
  5  6  1  0  0  0
  5 26  1  0  0  0
  5 89  1  0  0  0
  6 25  1  0  0  0
  6 90  1  0  0  0
  6 91  1  0  0  0
  7  8  2  0  0  0
  7 26  1  0  0  0
  7 29  1  0  0  0
  8  9  1  0  0  0
  8 22  1  0  0  0
  9 10  1  0  0  0
  9 27  2  0  0  0
 10 11  2  0  0  0
 10 15  1  0  0  0
 11 12  1  0  0  0
 11 92  1  0  0  0
 12 13  2  0  0  0
 12 93  1  0  0  0
 13 14  1  0  0  0
 13 31  1  0  0  0
 14 15  2  0  0  0
 14 94  1  0  0  0
 15 95  1  0  0  0
 16 17  2  0  0  0
 16 21  1  0  0  0
 16 31  1  0  0  0
 17 18  1  0  0  0
 17 96  1  0  0  0
 18 19  2  0  0  0
 18 97  1  0  0  0
 19 20  1  0  0  0
 19 24  1  0  0  0
 20 21  2  0  0  0
 20 98  1  0  0  0
 21 23  1  0  0  0
 22 28  1  0  0  0
 22 32  2  0  0  0
 26 27  1  0  0  0
 28 99  1  0  0  0
 28100  1  0  0  0
 29101  1  0  0  0
 29102  1  0  0  0
 33 34  1  0  0  0
 33 66  1  0  0  0
 33 70  2  0  0  0
 34 36  1  0  0  0
 34 59  1  0  0  0
 34103  1  0  0  0
 35 44  2  0  0  0
 35 45  1  0  0  0
 35 68  1  0  0  0
 36 56  1  0  0  0
 36104  1  0  0  0
 37 39  1  0  0  0
 37 47  1  0  0  0
 37 66  1  0  0  0
 37105  1  0  0  0
 38 43  2  0  0  0
 38 46  1  0  0  0
 38 47  1  0  0  0
 39 64  1  0  0  0
 39 67  2  0  0  0
 40 52  1  0  0  0
 40 53  2  0  0  0
 40 58  1  0  0  0
 41106  1  0  0  0
 41107  1  0  0  0
 41108  1  0  0  0
 41 48  1  0  0  0
 42 43  1  0  0  0
 42 66  1  0  0  0
 42109  1  0  0  0
 42110  1  0  0  0
 43 44  1  0  0  0
 44111  1  0  0  0
 45 46  2  0  0  0
 45112  1  0  0  0
 46113  1  0  0  0
 47114  1  0  0  0
 47115  1  0  0  0
 48 56  1  0  0  0
 48 65  1  0  0  0
 48116  1  0  0  0
 49 50  1  0  0  0
 49 53  1  0  0  0
 49 64  1  0  0  0
 49117  1  0  0  0
 50 51  1  0  0  0
 50118  1  0  0  0
 50119  1  0  0  0
 51 52  1  0  0  0
 51120  1  0  0  0
 51121  1  0  0  0
 52122  1  0  0  0
 52123  1  0  0  0
 53 54  1  0  0  0
 54 55  2  0  0  0
 54124  1  0  0  0
 55 57  1  0  0  0
 55125  1  0  0  0
 56 69  2  0  0  0
 57 58  2  0  0  0
 57126  1  0  0  0
 58127  1  0  0  0
 59 60  1  0  0  0
 59 61  1  0  0  0
 59 62  1  0  0  0
 60128  1  0  0  0
 60129  1  0  0  0
 60130  1  0  0  0
 61131  1  0  0  0
 61132  1  0  0  0
 61133  1  0  0  0
 62134  1  0  0  0
 62135  1  0  0  0
 62136  1  0  0  0
 63 65  1  0  0  0
 63137  1  0  0  0
 63138  1  0  0  0
 63139  1  0  0  0
 64140  1  0  0  0
 65141  1  0  0  0
 68 81  1  0  0  0
 71 73  2  0  0  0
 71 76  1  0  0  0
 71142  1  0  0  0
 72 74  2  0  0  0
 72 75  1  0  0  0
 72143  1  0  0  0
 73 74  1  0  0  0
 73 77  1  0  0  0
 74 78  1  0  0  0
 75 76  2  0  0  0
 75 80  1  0  0  0
 76 81  1  0  0  0
 77 79  1  0  0  0
 77144  1  0  0  0
 77145  1  0  0  0
 78 82  1  0  0  0
 78146  1  0  0  0
 78147  1  0  0  0
 79 82  1  0  0  0
 79148  1  0  0  0
 79149  1  0  0  0
 80150  1  0  0  0
 80151  1  0  0  0
 80152  1  0  0  0
 81153  1  0  0  0
 81154  1  0  0  0
M  ISO  4   1 100  68 101  81 101  82 100
M  END
> <chiral flag>
0

> <version>
0

> <s_m_source_file>
/data/baiqing/PycharmProjects/Reinvent-master-3.2/result/LINK_invent/BTK/process_docking_weight1_custom_sum_contain_oxygen_bond_distance_aromatic_linkinvent_7_9_3/rearranged_h_0169.sdf

> <i_m_source_file_index>
78

> <r_mmod_Potential_Energy-OPLS-2005>
1355.81799316406

> <r_mmod_Stretch_Energy-OPLS-2005>
516.832641601562

> <r_mmod_Bend_Energy-OPLS-2005>
445.994171142578

> <r_mmod_Torsional_Energy-OPLS-2005>
274.680206298828

> <r_mmod_Improper_Torsional_Energy-OPLS-2005>
6.48568344116211

> <r_mmod_Van_der_Waal_Energy-OPLS-2005>
127.347473144531

> <r_mmod_Electrostatic_Energy-OPLS-2005>
-302.773468017578

> <r_mmod_Solvation_Energy-OPLS-2005>
-208.456405639648

> <b_mmod_Minimization_Converged-OPLS-2005>
0

> <r_mmod_RMS_Derivative-OPLS-2005>
2.37496280670166

$$$$
78
                    3D
 Structure written by MMmdl.
171181  0  0  1  0            999 V2000
  -30.3038  -14.4262   21.0400 C   0  0  0  0  0  0
  -30.6661  -12.4578   19.4634 C   0  0  0  0  0  0
  -29.6899  -12.1150   18.2839 C   0  0  0  0  0  0
  -28.1809  -12.4089   18.4574 C   0  0  0  0  0  0
  -27.9095  -12.9482   19.8783 C   0  0  2  0  0  0
  -28.8439  -12.4208   20.9917 C   0  0  0  0  0  0
  -25.9077  -14.3549   20.2434 C   0  0  0  0  0  0
  -24.7783  -14.3173   20.8390 C   0  0  0  0  0  0
  -24.7735  -12.5440   20.8907 C   0  0  0  0  0  0
  -23.9759  -11.0293   21.1785 C   0  0  0  0  0  0
  -24.5051   -9.7173   21.6936 C   0  0  0  0  0  0
  -23.7790   -8.4299   21.8797 C   0  0  0  0  0  0
  -22.4878   -8.2411   21.3874 C   0  0  0  0  0  0
  -21.9472   -9.3838   20.7585 C   0  0  0  0  0  0
  -22.6325  -10.6710   20.8062 C   0  0  0  0  0  0
  -21.7556   -6.1345   22.5114 C   0  0  0  0  0  0
  -21.4645   -6.5890   23.8191 C   0  0  0  0  0  0
  -21.3852   -5.6849   24.9055 C   0  0  0  0  0  0
  -21.6042   -4.3087   24.7099 C   0  0  0  0  0  0
  -21.8523   -3.8356   23.4169 C   0  0  0  0  0  0
  -21.9264   -4.7337   22.3285 C   0  0  0  0  0  0
  -22.6257  -16.0463   21.5803 C   0  0  0  0  0  0
  -22.1519   -4.2345   21.0872 F   0  0  0  0  0  0
  -21.5454   -3.4627   25.7531 F   0  0  0  0  0  0
  -30.0522  -13.1324   20.6612 N   0  0  0  0  0  0
  -26.5774  -13.1251   20.2499 N   0  0  0  0  0  0
  -25.9222  -12.0715   20.6301 N   0  0  0  0  0  0
  -21.7107  -15.6019   22.5974 N   0  0  0  0  0  0
  -26.4364  -15.4342   19.6823 N   0  0  0  0  0  0
  -31.2848  -14.9537   20.4923 O   0  0  0  0  0  0
  -21.7833   -7.0144   21.4185 O   0  0  0  0  0  0
  -21.6981  -16.3887   20.8359 O   0  0  0  0  0  0
  -24.7893  -31.5986   23.0426 C   0  0  0  0  0  0
  -25.9915  -32.3370   23.7349 C   0  0  1  0  0  0
  -25.9716  -24.8930   20.3948 C   0  0  0  0  0  0
  -25.5892  -33.7322   24.0924 N   0  0  0  0  0  0
  -23.6014  -30.2067   21.4267 C   0  0  2  0  0  0
  -24.7920  -28.1908   20.0779 C   0  0  0  0  0  0
  -22.7752  -29.3358   22.4278 C   0  0  0  0  0  0
  -18.0309  -28.1445   22.8410 C   0  0  0  0  0  0
  -24.1487  -36.6669   23.2712 C   0  0  0  0  0  0
  -26.0921  -29.5903   21.6142 C   0  0  0  0  0  0
  -25.8648  -28.0191   20.9492 C   0  0  0  0  0  0
  -26.4087  -26.4489   21.0455 C   0  0  0  0  0  0
  -25.2391  -25.7089   19.3686 C   0  0  0  0  0  0
  -24.6490  -27.0585   19.2427 C   0  0  0  0  0  0
  -23.8447  -29.4546   20.0520 C   0  0  0  0  0  0
  -25.4178  -36.2238   24.0177 C   0  0  1  0  0  0
  -20.5874  -28.3735   23.1027 C   0  0  2  0  0  0
  -20.6651  -26.9339   22.5563 C   0  0  0  0  0  0
  -19.5684  -26.6265   21.5274 C   0  0  0  0  0  0
  -18.1813  -26.7984   22.1582 C   0  0  0  0  0  0
  -19.1601  -28.8922   23.2666 C   0  0  0  0  0  0
  -18.9541  -30.1480   23.8748 C   0  0  0  0  0  0
  -17.6532  -30.6607   24.0524 C   0  0  0  0  0  0
  -25.9221  -34.8671   23.4528 C   0  0  0  0  0  0
  -16.5385  -29.9091   23.6350 C   0  0  0  0  0  0
  -16.7298  -28.6510   23.0361 C   0  0  0  0  0  0
  -26.4848  -31.6298   25.0658 C   0  0  0  0  0  0
  -25.3624  -31.4033   26.1077 C   0  0  0  0  0  0
  -27.1066  -30.2606   24.7572 C   0  0  0  0  0  0
  -27.5962  -32.4695   25.7382 C   0  0  0  0  0  0
  -27.5477  -37.1463   24.8469 C   0  0  0  0  0  0
  -21.4323  -29.2692   22.3045 N   0  0  0  0  0  0
  -26.4160  -37.3191   23.9415 N   0  0  0  0  0  0
  -24.9100  -30.5679   22.0606 N   0  0  0  0  0  0
  -23.3801  -28.7155   23.3131 O   0  0  0  0  0  0
  -26.0397  -22.8522   20.5555 O   0  0  0  0  0  0
  -26.6212  -34.8595   22.4391 O   0  0  0  0  0  0
  -23.6714  -32.0012   23.4528 O   0  0  0  0  0  0
  -23.8813  -16.1823   19.5667 C   0  0  0  0  0  0
  -24.9620  -16.3443   22.2180 C   0  0  0  0  0  0
  -24.7449  -17.5788   20.7542 C   0  0  0  0  0  0
  -22.7978  -14.5170   19.8405 C   0  0  0  0  0  0
  -24.0137  -14.6980   22.9078 C   0  0  0  0  0  0
  -24.0575  -15.8991   18.0777 C   0  0  0  0  0  0
  -23.4181  -14.4300   17.7477 C   0  0  0  0  0  0
  -27.7924  -17.2241   22.6059 C   0  0  0  0  0  0
  -27.0962  -14.8731   23.3224 C   0  0  0  0  0  0
  -29.0879  -16.6018   21.7906 C   0  0  0  0  0  0
  -28.6697  -14.6349   23.1205 C   0  0  0  0  0  0
  -26.5220  -16.2294   22.7859 C   0  0  0  0  0  0
  -22.1550  -13.9708   18.5351 C   0  0  0  0  0  0
  -20.7921  -14.5801   18.0275 C   0  0  0  0  0  0
  -21.6991  -12.4335   18.5299 C   0  0  0  0  0  0
  -25.2517  -20.2876   20.4083 C   0  0  0  0  0  0
  -22.7679  -13.7450   21.6377 N   0  0  0  0  0  0
  -29.3102  -15.0954   21.8339 N   0  0  0  0  0  0
  -24.2026  -14.2763   24.2027 N   0  0  0  0  0  0
  -31.3863  -13.1308   19.0436 H   0  0  0  0  0  0
  -31.2791  -11.5898   19.7402 H   0  0  0  0  0  0
  -29.8601  -11.0348   18.1229 H   0  0  0  0  0  0
  -30.0721  -12.5008   17.3327 H   0  0  0  0  0  0
  -27.5660  -11.6052   18.0631 H   0  0  0  0  0  0
  -27.9615  -13.2337   17.7726 H   0  0  0  0  0  0
  -28.2550  -13.9398   19.6890 H   0  0  0  0  0  0
  -29.0131  -11.3614   20.8148 H   0  0  0  0  0  0
  -28.4034  -12.3717   21.9877 H   0  0  0  0  0  0
  -25.5446   -9.6345   22.0009 H   0  0  0  0  0  0
  -24.2698   -7.5396   22.2689 H   0  0  0  0  0  0
  -20.9330   -9.3294   20.3682 H   0  0  0  0  0  0
  -22.0172  -11.5278   20.7599 H   0  0  0  0  0  0
  -21.3097   -7.6490   23.9979 H   0  0  0  0  0  0
  -21.1959   -6.0574   25.9065 H   0  0  0  0  0  0
  -22.0131   -2.7858   23.2825 H   0  0  0  0  0  0
  -20.7523  -15.7402   22.6211 H   0  0  0  0  0  0
  -21.8123  -14.6262   22.5984 H   0  0  0  0  0  0
  -25.5311  -15.7678   19.4016 H   0  0  0  0  0  0
  -26.8958  -14.8357   19.0422 H   0  0  0  0  0  0
  -26.8183  -32.3608   23.0163 H   0  0  0  0  0  0
  -24.9542  -33.8099   24.8731 H   0  0  0  0  0  0
  -23.0229  -31.1008   21.2055 H   0  0  0  0  0  0
  -23.3771  -35.8961   23.3162 H   0  0  0  0  0  0
  -24.3509  -36.8642   22.2169 H   0  0  0  0  0  0
  -23.7230  -37.5713   23.7078 H   0  0  0  0  0  0
  -26.6688  -30.1626   20.8902 H   0  0  0  0  0  0
  -26.7670  -29.4087   22.4200 H   0  0  0  0  0  0
  -27.1305  -26.3148   21.8448 H   0  0  0  0  0  0
  -24.8361  -25.0649   18.5940 H   0  0  0  0  0  0
  -23.9620  -27.1674   18.4157 H   0  0  0  0  0  0
  -24.2204  -30.1744   19.3332 H   0  0  0  0  0  0
  -22.8771  -29.1468   19.6542 H   0  0  0  0  0  0
  -25.1479  -36.0745   25.0660 H   0  0  0  0  0  0
  -21.0021  -28.3475   24.1090 H   0  0  0  0  0  0
  -20.5236  -26.2416   23.3877 H   0  0  0  0  0  0
  -21.6514  -26.6956   22.1531 H   0  0  0  0  0  0
  -19.6807  -25.6087   21.1352 H   0  0  0  0  0  0
  -19.6742  -27.2980   20.6697 H   0  0  0  0  0  0
  -17.4173  -26.6786   21.3887 H   0  0  0  0  0  0
  -18.0100  -26.0132   22.8947 H   0  0  0  0  0  0
  -19.8017  -30.7327   24.2044 H   0  0  0  0  0  0
  -17.5096  -31.6300   24.5170 H   0  0  0  0  0  0
  -15.5379  -30.3007   23.7776 H   0  0  0  0  0  0
  -15.8649  -28.0831   22.7181 H   0  0  0  0  0  0
  -24.5921  -30.7232   25.7445 H   0  0  0  0  0  0
  -24.8746  -32.3401   26.3774 H   0  0  0  0  0  0
  -25.7599  -30.9754   27.0259 H   0  0  0  0  0  0
  -26.3541  -29.5341   24.4565 H   0  0  0  0  0  0
  -27.5704  -29.8394   25.6471 H   0  0  0  0  0  0
  -27.8964  -30.3341   24.0087 H   0  0  0  0  0  0
  -27.2247  -33.4283   26.0954 H   0  0  0  0  0  0
  -28.4127  -32.6694   25.0468 H   0  0  0  0  0  0
  -28.0136  -31.9583   26.6025 H   0  0  0  0  0  0
  -28.2343  -37.9877   24.7446 H   0  0  0  0  0  0
  -28.1098  -36.2358   24.6342 H   0  0  0  0  0  0
  -27.2189  -37.1114   25.8869 H   0  0  0  0  0  0
  -20.9867  -29.8165   21.5771 H   0  0  0  0  0  0
  -25.9808  -38.2155   24.1426 H   0  0  0  0  0  0
  -25.1267  -15.8997   17.6805 H   0  0  0  0  0  0
  -23.5157  -16.7153   17.5844 H   0  0  0  0  0  0
  -24.1280  -13.6330   18.0643 H   0  0  0  0  0  0
  -23.4474  -14.2451   16.6776 H   0  0  0  0  0  0
  -27.4725  -18.1612   22.1649 H   0  0  0  0  0  0
  -28.1543  -17.5238   23.5816 H   0  0  0  0  0  0
  -26.8449  -14.7553   24.3800 H   0  0  0  0  0  0
  -26.5767  -14.0549   22.8540 H   0  0  0  0  0  0
  -30.0166  -17.1016   22.0501 H   0  0  0  0  0  0
  -28.9698  -16.8743   20.7408 H   0  0  0  0  0  0
  -28.9397  -13.6313   23.4320 H   0  0  0  0  0  0
  -29.1297  -15.2367   23.9122 H   0  0  0  0  0  0
  -26.7786  -15.9152   21.8558 H   0  0  0  0  0  0
  -20.8713  -15.6461   17.7712 H   0  0  0  0  0  0
  -19.9075  -14.4197   18.7004 H   0  0  0  0  0  0
  -20.4905  -14.0553   17.1065 H   0  0  0  0  0  0
  -22.4724  -11.6643   18.4563 H   0  0  0  0  0  0
  -21.0268  -12.1610   17.7258 H   0  0  0  0  0  0
  -20.9718  -12.1543   19.3299 H   0  0  0  0  0  0
  -25.8508  -20.1083   19.5270 H   0  0  0  0  0  0
  -24.2475  -20.4948   20.0263 H   0  0  0  0  0  0
  -24.4417  -15.0593   24.8302 H   0  0  0  0  0  0
  -23.4907  -13.6760   24.6741 H   0  0  0  0  0  0
  1 25  1  0  0  0
  1 30  2  0  0  0
  1 88  1  0  0  0
  2  3  1  0  0  0
  2 25  1  0  0  0
  2 90  1  0  0  0
  2 91  1  0  0  0
  3  4  1  0  0  0
  3 92  1  0  0  0
  3 93  1  0  0  0
  4  5  1  0  0  0
  4 94  1  0  0  0
  4 95  1  0  0  0
  5  6  1  0  0  0
  5 26  1  0  0  0
  5 96  1  0  0  0
  6 25  1  0  0  0
  6 97  1  0  0  0
  6 98  1  0  0  0
  7  8  2  0  0  0
  7 26  1  0  0  0
  7 29  1  0  0  0
  8  9  1  0  0  0
  8 22  1  0  0  0
  9 10  1  0  0  0
  9 27  2  0  0  0
 10 11  2  0  0  0
 10 15  1  0  0  0
 11 12  1  0  0  0
 11 99  1  0  0  0
 12 13  2  0  0  0
 12100  1  0  0  0
 13 14  1  0  0  0
 13 31  1  0  0  0
 14 15  2  0  0  0
 14101  1  0  0  0
 15102  1  0  0  0
 16 17  2  0  0  0
 16 21  1  0  0  0
 16 31  1  0  0  0
 17 18  1  0  0  0
 17103  1  0  0  0
 18 19  2  0  0  0
 18104  1  0  0  0
 19 20  1  0  0  0
 19 24  1  0  0  0
 20 21  2  0  0  0
 20105  1  0  0  0
 21 23  1  0  0  0
 22 28  1  0  0  0
 22 32  2  0  0  0
 26 27  1  0  0  0
 28106  1  0  0  0
 28107  1  0  0  0
 29108  1  0  0  0
 29109  1  0  0  0
 33 34  1  0  0  0
 33 66  1  0  0  0
 33 70  2  0  0  0
 34 36  1  0  0  0
 34 59  1  0  0  0
 34110  1  0  0  0
 35 44  2  0  0  0
 35 45  1  0  0  0
 35 68  1  0  0  0
 36 56  1  0  0  0
 36111  1  0  0  0
 37 39  1  0  0  0
 37 47  1  0  0  0
 37 66  1  0  0  0
 37112  1  0  0  0
 38 43  2  0  0  0
 38 46  1  0  0  0
 38 47  1  0  0  0
 39 64  1  0  0  0
 39 67  2  0  0  0
 40 52  1  0  0  0
 40 53  2  0  0  0
 40 58  1  0  0  0
 41113  1  0  0  0
 41114  1  0  0  0
 41115  1  0  0  0
 41 48  1  0  0  0
 42 43  1  0  0  0
 42 66  1  0  0  0
 42116  1  0  0  0
 42117  1  0  0  0
 43 44  1  0  0  0
 44118  1  0  0  0
 45 46  2  0  0  0
 45119  1  0  0  0
 46120  1  0  0  0
 47121  1  0  0  0
 47122  1  0  0  0
 48 56  1  0  0  0
 48 65  1  0  0  0
 48123  1  0  0  0
 49 50  1  0  0  0
 49 53  1  0  0  0
 49 64  1  0  0  0
 49124  1  0  0  0
 50 51  1  0  0  0
 50125  1  0  0  0
 50126  1  0  0  0
 51 52  1  0  0  0
 51127  1  0  0  0
 51128  1  0  0  0
 52129  1  0  0  0
 52130  1  0  0  0
 53 54  1  0  0  0
 54 55  2  0  0  0
 54131  1  0  0  0
 55 57  1  0  0  0
 55132  1  0  0  0
 56 69  2  0  0  0
 57 58  2  0  0  0
 57133  1  0  0  0
 58134  1  0  0  0
 59 60  1  0  0  0
 59 61  1  0  0  0
 59 62  1  0  0  0
 60135  1  0  0  0
 60136  1  0  0  0
 60137  1  0  0  0
 61138  1  0  0  0
 61139  1  0  0  0
 61140  1  0  0  0
 62141  1  0  0  0
 62142  1  0  0  0
 62143  1  0  0  0
 63 65  1  0  0  0
 63144  1  0  0  0
 63145  1  0  0  0
 63146  1  0  0  0
 64147  1  0  0  0
 65148  1  0  0  0
 68 86  1  0  0  0
 71 73  2  0  0  0
 71 74  1  0  0  0
 71 76  1  0  0  0
 72 73  1  0  0  0
 72 75  2  0  0  0
 72 82  1  0  0  0
 73 86  1  0  0  0
 74 83  1  0  0  0
 74 87  2  0  0  0
 75 87  1  0  0  0
 75 89  1  0  0  0
 76 77  1  0  0  0
 76149  1  0  0  0
 76150  1  0  0  0
 77 83  1  0  0  0
 77151  1  0  0  0
 77152  1  0  0  0
 78 80  1  0  0  0
 78 82  1  0  0  0
 78153  1  0  0  0
 78154  1  0  0  0
 79 81  1  0  0  0
 79 82  1  0  0  0
 79155  1  0  0  0
 79156  1  0  0  0
 80 88  1  0  0  0
 80157  1  0  0  0
 80158  1  0  0  0
 81 88  1  0  0  0
 81159  1  0  0  0
 81160  1  0  0  0
 82161  1  0  0  0
 83 84  1  0  0  0
 83 85  1  0  0  0
 84162  1  0  0  0
 84163  1  0  0  0
 84164  1  0  0  0
 85165  1  0  0  0
 85166  1  0  0  0
 85167  1  0  0  0
 86168  1  0  0  0
 86169  1  0  0  0
 89170  1  0  0  0
 89171  1  0  0  0
M  ISO  4   1 100  68 101  86 101  88 100
M  END
> <chiral flag>
0

> <version>
0

> <s_m_source_file>
/data/baiqing/PycharmProjects/Reinvent-master-3.2/result/LINK_invent/BTK/process_docking_weight1_custom_sum_contain_oxygen_bond_distance_aromatic_linkinvent_7_9_3/rearranged_h_0169.sdf

> <i_m_source_file_index>
79

> <r_mmod_Potential_Energy-OPLS-2005>
26083.677734375

> <r_mmod_Stretch_Energy-OPLS-2005>
14006.0537109375

> <r_mmod_Bend_Energy-OPLS-2005>
2060.86645507812

> <r_mmod_Torsional_Energy-OPLS-2005>
663.089904785156

> <r_mmod_Improper_Torsional_Energy-OPLS-2005>
81.1573181152344

> <r_mmod_Van_der_Waal_Energy-OPLS-2005>
2955.91284179688

> <r_mmod_Electrostatic_Energy-OPLS-2005>
-653.581848144531

> <r_mmod_Solvation_Energy-OPLS-2005>
-207.902450561523

> <b_mmod_Minimization_Converged-OPLS-2005>
0

> <r_mmod_RMS_Derivative-OPLS-2005>
89.9789276123047

$$$$
79
                    3D
 Structure written by MMmdl.
178188  0  0  1  0            999 V2000
  -29.4484  -15.6918   20.7051 C   0  0  0  0  0  0
  -30.2665  -13.2392   19.7237 C   0  0  0  0  0  0
  -29.5257  -12.7426   18.4333 C   0  0  0  0  0  0
  -28.0934  -12.2908   18.7634 C   0  0  0  0  0  0
  -27.4946  -13.2334   19.8272 C   0  0  2  0  0  0
  -28.3631  -13.3978   21.0663 C   0  0  0  0  0  0
  -25.1691  -13.7991   20.5355 C   0  0  0  0  0  0
  -24.1207  -13.0246   20.9197 C   0  0  0  0  0  0
  -24.5904  -11.6758   20.8764 C   0  0  0  0  0  0
  -23.8756  -10.4176   21.0485 C   0  0  0  0  0  0
  -24.3445   -9.4142   21.9228 C   0  0  0  0  0  0
  -23.6201   -8.2140   22.0761 C   0  0  0  0  0  0
  -22.4189   -8.0165   21.3540 C   0  0  0  0  0  0
  -21.9752   -9.0099   20.4644 C   0  0  0  0  0  0
  -22.6991  -10.2009   20.3083 C   0  0  0  0  0  0
  -21.6816   -6.0667   22.5287 C   0  0  0  0  0  0
  -21.3988   -6.5600   23.8211 C   0  0  0  0  0  0
  -21.3652   -5.6768   24.9184 C   0  0  0  0  0  0
  -21.6040   -4.3030   24.7244 C   0  0  0  0  0  0
  -21.8826   -3.8106   23.4373 C   0  0  0  0  0  0
  -21.9185   -4.6907   22.3421 C   0  0  0  0  0  0
  -22.7352  -13.5111   21.1989 C   0  0  0  0  0  0
  -22.1659   -4.2097   21.0998 F   0  0  0  0  0  0
  -21.5637   -3.4527   25.7765 F   0  0  0  0  0  0
  -29.4022  -14.2337   20.5611 N   0  0  0  0  0  0
  -26.1847  -12.9097   20.2674 N   0  0  0  0  0  0
  -25.8703  -11.6305   20.5488 N   0  0  0  0  0  0
  -22.0086  -12.8131   22.0610 N   0  0  0  0  0  0
  -25.3361  -15.1700   20.3630 N   0  0  0  0  0  0
  -30.6537  -15.9120   20.3514 O   0  0  0  0  0  0
  -21.6583   -6.8766   21.4232 O   0  0  0  0  0  0
  -22.3099  -14.5457   20.6868 O   0  0  0  0  0  0
  -24.6541  -31.9325   23.2265 C   0  0  0  0  0  0
  -25.9403  -32.5123   23.8672 C   0  0  1  0  0  0
  -27.0193  -27.4223   20.0937 C   0  0  0  0  0  0
  -25.6245  -33.8877   24.2634 N   0  0  0  0  0  0
  -23.4642  -30.6045   21.5648 C   0  0  2  0  0  0
  -24.8537  -29.1260   20.0357 C   0  0  0  0  0  0
  -22.9714  -29.5390   22.5341 C   0  0  0  0  0  0
  -18.3491  -27.3254   23.1378 C   0  0  0  0  0  0
  -24.1503  -36.7361   23.2616 C   0  0  0  0  0  0
  -25.9859  -30.8623   21.4151 C   0  0  0  0  0  0
  -26.0073  -29.5162   20.7296 C   0  0  0  0  0  0
  -27.1086  -28.6372   20.8065 C   0  0  0  0  0  0
  -26.0518  -27.2445   19.1209 C   0  0  0  0  0  0
  -24.8836  -28.0036   19.2031 C   0  0  0  0  0  0
  -23.6438  -30.0140   20.1421 C   0  0  0  0  0  0
  -25.4114  -36.3232   24.0355 C   0  0  1  0  0  0
  -21.2476  -28.0644   22.9826 C   0  0  2  0  0  0
  -21.8156  -26.9891   21.3245 C   0  0  0  0  0  0
  -20.1602  -25.6327   20.6821 C   0  0  0  0  0  0
  -18.5340  -25.8725   21.9819 C   0  0  0  0  0  0
  -19.5451  -28.2382   23.5888 C   0  0  0  0  0  0
  -19.1965  -29.5912   24.0296 C   0  0  0  0  0  0
  -17.8969  -30.1654   24.0322 C   0  0  0  0  0  0
  -25.9098  -34.9635   23.5199 C   0  0  0  0  0  0
  -16.8268  -29.3872   23.5769 C   0  0  0  0  0  0
  -17.0650  -28.0389   23.1488 C   0  0  0  0  0  0
  -26.4587  -31.6679   25.0921 C   0  0  0  0  0  0
  -25.3734  -31.3721   26.1510 C   0  0  0  0  0  0
  -27.0343  -30.3098   24.6271 C   0  0  0  0  0  0
  -27.6161  -32.4237   25.7774 C   0  0  0  0  0  0
  -27.5597  -37.1867   24.8468 C   0  0  0  0  0  0
  -21.6768  -29.3718   22.6032 N   0  0  0  0  0  0
  -26.4311  -37.3892   23.9404 N   0  0  0  0  0  0
  -24.7188  -31.1709   22.1035 N   0  0  0  0  0  0
  -23.7364  -28.8498   23.2085 O   0  0  0  0  0  0
  -27.2577  -26.2412   20.7057 O   0  0  0  0  0  0
  -26.5493  -34.9037   22.4651 O   0  0  0  0  0  0
  -23.5701  -32.1956   23.7718 O   0  0  0  0  0  0
  -24.4085  -22.9927   22.0686 C   0  0  0  0  0  0
  -24.1423  -21.5309   22.0537 C   0  0  0  0  0  0
  -23.5557  -24.3189   22.0098 C   0  0  0  0  0  0
  -22.6543  -21.8629   22.3285 C   0  0  0  0  0  0
  -22.0072  -24.5881   22.4724 C   0  0  0  0  0  0
  -20.1653  -21.2195   20.4298 C   0  0  0  0  0  0
  -19.9015  -19.8060   20.9029 C   0  0  0  0  0  0
  -26.6453  -19.5830   20.6047 C   0  0  0  0  0  0
  -26.2537  -18.7794   22.5532 C   0  0  0  0  0  0
  -27.6500  -18.1133   20.1793 C   0  0  0  0  0  0
  -27.2138  -17.2701   22.1589 C   0  0  0  0  0  0
  -25.2745  -19.9163   21.6478 C   0  0  0  0  0  0
  -20.4740  -20.8261   21.8564 C   0  0  0  0  0  0
  -22.9259  -25.2698   18.8405 C   0  0  0  0  0  0
  -19.7109  -27.7542   21.2308 C   0  0  0  0  0  0
  -24.1995  -24.7580   19.5147 C   0  0  0  0  0  0
  -25.9947  -25.8631   21.5217 C   0  0  0  0  0  0
  -24.5736  -25.1466   21.0083 C   0  0  1  0  0  0
  -21.8189  -23.1248   22.5825 N   0  0  0  0  0  0
  -28.2501  -16.8086   20.9717 N   0  0  0  0  0  0
  -21.8603  -20.7120   22.2983 N   0  0  0  0  0  0
  -20.6973  -25.8788   22.7311 O   0  0  0  0  0  0
  -31.2067  -13.7050   19.4271 H   0  0  0  0  0  0
  -30.5673  -12.3869   20.3361 H   0  0  0  0  0  0
  -30.0832  -11.9434   17.9428 H   0  0  0  0  0  0
  -29.4776  -13.5679   17.7208 H   0  0  0  0  0  0
  -28.1270  -11.2718   19.1523 H   0  0  0  0  0  0
  -27.4755  -12.2645   17.8672 H   0  0  0  0  0  0
  -27.3974  -14.1903   19.3087 H   0  0  0  0  0  0
  -28.6957  -12.4460   21.4838 H   0  0  0  0  0  0
  -27.8340  -13.9266   21.8622 H   0  0  0  0  0  0
  -25.2589   -9.5683   22.4790 H   0  0  0  0  0  0
  -23.9945   -7.4529   22.7462 H   0  0  0  0  0  0
  -21.0689   -8.8556   19.8952 H   0  0  0  0  0  0
  -22.3414  -10.9542   19.6203 H   0  0  0  0  0  0
  -21.1965   -7.6109   23.9695 H   0  0  0  0  0  0
  -21.1475   -6.0509   25.9084 H   0  0  0  0  0  0
  -22.0618   -2.7570   23.2887 H   0  0  0  0  0  0
  -22.3727  -11.9774   22.4947 H   0  0  0  0  0  0
  -21.0747  -13.1191   22.2940 H   0  0  0  0  0  0
  -24.5722  -15.8212   20.5042 H   0  0  0  0  0  0
  -26.1829  -15.6176   20.0401 H   0  0  0  0  0  0
  -26.7595  -32.5870   23.1570 H   0  0  0  0  0  0
  -25.0528  -34.0106   25.0865 H   0  0  0  0  0  0
  -22.7128  -31.3933   21.5057 H   0  0  0  0  0  0
  -23.3798  -35.9666   23.3312 H   0  0  0  0  0  0
  -24.3629  -36.8897   22.2028 H   0  0  0  0  0  0
  -23.7231  -37.6584   23.6569 H   0  0  0  0  0  0
  -26.1637  -31.6412   20.6740 H   0  0  0  0  0  0
  -26.8601  -30.8699   22.0535 H   0  0  0  0  0  0
  -27.8888  -28.7888   21.5375 H   0  0  0  0  0  0
  -26.1242  -26.4169   18.4392 H   0  0  0  0  0  0
  -24.0530  -27.7978   18.5472 H   0  0  0  0  0  0
  -23.8185  -30.8336   19.4425 H   0  0  0  0  0  0
  -22.7366  -29.5362   19.7825 H   0  0  0  0  0  0
  -25.1271  -36.2151   25.0850 H   0  0  0  0  0  0
  -21.7811  -27.6915   23.8616 H   0  0  0  0  0  0
  -22.8064  -26.6200   21.4971 H   0  0  0  0  0  0
  -22.0674  -27.6716   20.5148 H   0  0  0  0  0  0
  -20.4167  -24.5744   20.5968 H   0  0  0  0  0  0
  -19.8765  -25.8448   19.6501 H   0  0  0  0  0  0
  -17.6179  -25.7977   21.3920 H   0  0  0  0  0  0
  -18.4808  -24.9814   22.6109 H   0  0  0  0  0  0
  -19.9983  -30.2491   24.3346 H   0  0  0  0  0  0
  -17.7440  -31.1883   24.3502 H   0  0  0  0  0  0
  -15.8349  -29.8155   23.5236 H   0  0  0  0  0  0
  -16.2142  -27.5221   22.7256 H   0  0  0  0  0  0
  -24.5938  -30.7115   25.7695 H   0  0  0  0  0  0
  -24.8910  -32.2856   26.5013 H   0  0  0  0  0  0
  -25.7992  -30.8777   27.0250 H   0  0  0  0  0  0
  -26.2930  -29.6973   24.1123 H   0  0  0  0  0  0
  -27.3855  -29.7243   25.4782 H   0  0  0  0  0  0
  -27.8926  -30.4355   23.9658 H   0  0  0  0  0  0
  -27.2848  -33.3546   26.2403 H   0  0  0  0  0  0
  -28.4055  -32.6726   25.0655 H   0  0  0  0  0  0
  -28.0707  -31.8226   26.5669 H   0  0  0  0  0  0
  -28.2606  -38.0173   24.7529 H   0  0  0  0  0  0
  -28.1120  -36.2708   24.6295 H   0  0  0  0  0  0
  -27.2309  -37.1488   25.8872 H   0  0  0  0  0  0
  -21.0478  -29.9741   22.0926 H   0  0  0  0  0  0
  -26.0233  -38.2976   24.1434 H   0  0  0  0  0  0
  -25.4802  -23.0430   21.9464 H   0  0  0  0  0  0
  -19.3085  -21.8708   20.2660 H   0  0  0  0  0  0
  -21.0045  -21.3946   19.7575 H   0  0  0  0  0  0
  -20.5576  -19.0191   20.5302 H   0  0  0  0  0  0
  -18.8639  -19.5088   21.0500 H   0  0  0  0  0  0
  -26.3322  -19.9634   19.6312 H   0  0  0  0  0  0
  -27.3938  -20.3198   20.9079 H   0  0  0  0  0  0
  -26.9808  -19.4112   23.0674 H   0  0  0  0  0  0
  -25.5978  -18.4641   23.3646 H   0  0  0  0  0  0
  -28.5251  -18.5130   19.6647 H   0  0  0  0  0  0
  -27.0910  -17.6363   19.3728 H   0  0  0  0  0  0
  -26.4933  -16.4589   22.2097 H   0  0  0  0  0  0
  -27.8086  -17.1000   23.0555 H   0  0  0  0  0  0
  -24.4834  -19.2927   21.2289 H   0  0  0  0  0  0
  -19.8212  -21.2066   22.6403 H   0  0  0  0  0  0
  -22.6963  -26.2984   19.0550 H   0  0  0  0  0  0
  -22.0661  -24.6610   19.1065 H   0  0  0  0  0  0
  -23.0159  -25.2016   17.7550 H   0  0  0  0  0  0
  -19.7203  -28.8351   21.4053 H   0  0  0  0  0  0
  -18.6866  -27.7631   20.8342 H   0  0  0  0  0  0
  -20.0774  -27.9086   20.2024 H   0  0  0  0  0  0
  -24.0765  -23.6714   19.4692 H   0  0  0  0  0  0
  -25.0148  -24.8772   18.8143 H   0  0  0  0  0  0
  -25.6917  -26.7321   22.1081 H   0  0  0  0  0  0
  -26.4168  -25.2123   22.2924 H   0  0  0  0  0  0
  -25.3666  -24.4665   20.7261 H   0  0  0  0  0  0
  -22.3539  -19.8551   22.0721 H   0  0  0  0  0  0
  1 25  1  0  0  0
  1 30  2  0  0  0
  1 90  1  0  0  0
  2  3  1  0  0  0
  2 25  1  0  0  0
  2 93  1  0  0  0
  2 94  1  0  0  0
  3  4  1  0  0  0
  3 95  1  0  0  0
  3 96  1  0  0  0
  4  5  1  0  0  0
  4 97  1  0  0  0
  4 98  1  0  0  0
  5  6  1  0  0  0
  5 26  1  0  0  0
  5 99  1  0  0  0
  6 25  1  0  0  0
  6100  1  0  0  0
  6101  1  0  0  0
  7  8  2  0  0  0
  7 26  1  0  0  0
  7 29  1  0  0  0
  8  9  1  0  0  0
  8 22  1  0  0  0
  9 10  1  0  0  0
  9 27  2  0  0  0
 10 11  2  0  0  0
 10 15  1  0  0  0
 11 12  1  0  0  0
 11102  1  0  0  0
 12 13  2  0  0  0
 12103  1  0  0  0
 13 14  1  0  0  0
 13 31  1  0  0  0
 14 15  2  0  0  0
 14104  1  0  0  0
 15105  1  0  0  0
 16 17  2  0  0  0
 16 21  1  0  0  0
 16 31  1  0  0  0
 17 18  1  0  0  0
 17106  1  0  0  0
 18 19  2  0  0  0
 18107  1  0  0  0
 19 20  1  0  0  0
 19 24  1  0  0  0
 20 21  2  0  0  0
 20108  1  0  0  0
 21 23  1  0  0  0
 22 28  1  0  0  0
 22 32  2  0  0  0
 26 27  1  0  0  0
 28109  1  0  0  0
 28110  1  0  0  0
 29111  1  0  0  0
 29112  1  0  0  0
 33 34  1  0  0  0
 33 66  1  0  0  0
 33 70  2  0  0  0
 34 36  1  0  0  0
 34 59  1  0  0  0
 34113  1  0  0  0
 35 44  2  0  0  0
 35 45  1  0  0  0
 35 68  1  0  0  0
 36 56  1  0  0  0
 36114  1  0  0  0
 37 39  1  0  0  0
 37 47  1  0  0  0
 37 66  1  0  0  0
 37115  1  0  0  0
 38 43  2  0  0  0
 38 46  1  0  0  0
 38 47  1  0  0  0
 39 64  1  0  0  0
 39 67  2  0  0  0
 40 52  1  0  0  0
 40 53  2  0  0  0
 40 58  1  0  0  0
 41116  1  0  0  0
 41117  1  0  0  0
 41118  1  0  0  0
 41 48  1  0  0  0
 42 43  1  0  0  0
 42 66  1  0  0  0
 42119  1  0  0  0
 42120  1  0  0  0
 43 44  1  0  0  0
 44121  1  0  0  0
 45 46  2  0  0  0
 45122  1  0  0  0
 46123  1  0  0  0
 47124  1  0  0  0
 47125  1  0  0  0
 48 56  1  0  0  0
 48 65  1  0  0  0
 48126  1  0  0  0
 49 50  1  0  0  0
 49 53  1  0  0  0
 49 64  1  0  0  0
 49127  1  0  0  0
 50 51  1  0  0  0
 50128  1  0  0  0
 50129  1  0  0  0
 51 52  1  0  0  0
 51130  1  0  0  0
 51131  1  0  0  0
 52132  1  0  0  0
 52133  1  0  0  0
 53 54  1  0  0  0
 54 55  2  0  0  0
 54134  1  0  0  0
 55 57  1  0  0  0
 55135  1  0  0  0
 56 69  2  0  0  0
 57 58  2  0  0  0
 57136  1  0  0  0
 58137  1  0  0  0
 59 60  1  0  0  0
 59 61  1  0  0  0
 59 62  1  0  0  0
 60138  1  0  0  0
 60139  1  0  0  0
 60140  1  0  0  0
 61141  1  0  0  0
 61142  1  0  0  0
 61143  1  0  0  0
 62144  1  0  0  0
 62145  1  0  0  0
 62146  1  0  0  0
 63 65  1  0  0  0
 63147  1  0  0  0
 63148  1  0  0  0
 63149  1  0  0  0
 64150  1  0  0  0
 65151  1  0  0  0
 68 87  1  0  0  0
 71 72  2  0  0  0
 71 73  1  0  0  0
 71152  1  0  0  0
 72 74  1  0  0  0
 72 82  1  0  0  0
 73 75  2  0  0  0
 73 88  1  0  0  0
 74 89  2  0  0  0
 74 91  1  0  0  0
 75 89  1  0  0  0
 75 92  1  0  0  0
 76 77  1  0  0  0
 76 83  1  0  0  0
 76153  1  0  0  0
 76154  1  0  0  0
 77 83  1  0  0  0
 77155  1  0  0  0
 77156  1  0  0  0
 78 80  1  0  0  0
 78 82  1  0  0  0
 78157  1  0  0  0
 78158  1  0  0  0
 79 81  1  0  0  0
 79 82  1  0  0  0
 79159  1  0  0  0
 79160  1  0  0  0
 80 90  1  0  0  0
 80161  1  0  0  0
 80162  1  0  0  0
 81 90  1  0  0  0
 81163  1  0  0  0
 81164  1  0  0  0
 82165  1  0  0  0
 83 91  1  0  0  0
 83166  1  0  0  0
 84 86  1  0  0  0
 84167  1  0  0  0
 84168  1  0  0  0
 84169  1  0  0  0
 85 92  1  0  0  0
 85170  1  0  0  0
 85171  1  0  0  0
 85172  1  0  0  0
 86173  1  0  0  0
 86174  1  0  0  0
 86 88  1  0  0  0
 87 88  1  0  0  0
 87175  1  0  0  0
 87176  1  0  0  0
 88177  1  0  0  0
 91178  1  0  0  0
M  ISO  4   1 100  68 101  87 101  90 100
M  END
> <chiral flag>
0

> <version>
0

> <s_m_source_file>
/data/baiqing/PycharmProjects/Reinvent-master-3.2/result/LINK_invent/BTK/process_docking_weight1_custom_sum_contain_oxygen_bond_distance_aromatic_linkinvent_7_9_3/rearranged_h_0169.sdf

> <i_m_source_file_index>
80

> <r_mmod_Potential_Energy-OPLS-2005>
11066.8017578125

> <r_mmod_Stretch_Energy-OPLS-2005>
5424.38134765625

> <r_mmod_Bend_Energy-OPLS-2005>
1655.21557617188

> <r_mmod_Torsional_Energy-OPLS-2005>
639.261413574219

> <r_mmod_Improper_Torsional_Energy-OPLS-2005>
36.6162567138672

> <r_mmod_Van_der_Waal_Energy-OPLS-2005>
1834.3056640625

> <r_mmod_Electrostatic_Energy-OPLS-2005>
-493.843139648438

> <r_mmod_Solvation_Energy-OPLS-2005>
-235.678466796875

> <b_mmod_Minimization_Converged-OPLS-2005>
0

> <r_mmod_RMS_Derivative-OPLS-2005>
7.79364824295044

$$$$
80
                    3D
 Structure written by MMmdl.
161170  0  0  1  0            999 V2000
  -30.5471  -15.0336   20.4217 C   0  0  0  0  0  0
  -30.4329  -12.6580   19.4942 C   0  0  0  0  0  0
  -29.5125  -12.5433   18.2571 C   0  0  0  0  0  0
  -28.0514  -12.3110   18.6844 C   0  0  0  0  0  0
  -27.6206  -13.2501   19.8391 C   0  0  2  0  0  0
  -28.6716  -13.3062   20.9686 C   0  0  0  0  0  0
  -25.2396  -13.8194   20.5739 C   0  0  0  0  0  0
  -24.1735  -13.0413   20.9258 C   0  0  0  0  0  0
  -24.6374  -11.6910   20.8789 C   0  0  0  0  0  0
  -23.9073  -10.4277   21.0425 C   0  0  0  0  0  0
  -24.3622   -9.4185   21.9194 C   0  0  0  0  0  0
  -23.6291   -8.2225   22.0756 C   0  0  0  0  0  0
  -22.4275   -8.0267   21.3540 C   0  0  0  0  0  0
  -21.9917   -9.0248   20.4648 C   0  0  0  0  0  0
  -22.7251  -10.2125   20.3064 C   0  0  0  0  0  0
  -21.6850   -6.0730   22.5277 C   0  0  0  0  0  0
  -21.4008   -6.5635   23.8207 C   0  0  0  0  0  0
  -21.3656   -5.6787   24.9171 C   0  0  0  0  0  0
  -21.6048   -4.3054   24.7224 C   0  0  0  0  0  0
  -21.8818   -3.8143   23.4344 C   0  0  0  0  0  0
  -21.9191   -4.6959   22.3400 C   0  0  0  0  0  0
  -22.7755  -13.5179   21.1906 C   0  0  0  0  0  0
  -22.1658   -4.2145   21.0979 F   0  0  0  0  0  0
  -21.5636   -3.4539   25.7739 F   0  0  0  0  0  0
  -29.9199  -13.7766   20.3499 N   0  0  0  0  0  0
  -26.2839  -12.9442   20.3301 N   0  0  0  0  0  0
  -25.9307  -11.6570   20.5796 N   0  0  0  0  0  0
  -22.0423  -12.8166   22.0471 N   0  0  0  0  0  0
  -25.3983  -15.1918   20.4121 N   0  0  0  0  0  0
  -31.7617  -15.0169   20.1831 O   0  0  0  0  0  0
  -21.6634   -6.8871   21.4236 O   0  0  0  0  0  0
  -22.3432  -14.5489   20.6756 O   0  0  0  0  0  0
  -24.6484  -31.8391   23.1849 C   0  0  0  0  0  0
  -25.9239  -32.4665   23.8248 C   0  0  1  0  0  0
  -27.2191  -27.0894   20.1686 C   0  0  0  0  0  0
  -25.5959  -33.8470   24.2165 N   0  0  0  0  0  0
  -23.4552  -30.4572   21.5306 C   0  0  2  0  0  0
  -24.9061  -28.8731   20.1134 C   0  0  0  0  0  0
  -22.7600  -29.4519   22.4836 C   0  0  0  0  0  0
  -18.0309  -28.1399   22.8469 C   0  0  0  0  0  0
  -24.1492  -36.7235   23.2650 C   0  0  0  0  0  0
  -26.0138  -30.6991   21.3905 C   0  0  0  0  0  0
  -26.0854  -29.3044   20.7349 C   0  0  0  0  0  0
  -27.2450  -28.4328   20.7365 C   0  0  0  0  0  0
  -26.0143  -26.7692   19.5067 C   0  0  0  0  0  0
  -24.8869  -27.6211   19.4788 C   0  0  0  0  0  0
  -23.6863  -29.7840   20.1509 C   0  0  0  0  0  0
  -25.4122  -36.3006   24.0317 C   0  0  1  0  0  0
  -20.5928  -28.3731   23.1211 C   0  0  2  0  0  0
  -20.6798  -26.9421   22.5403 C   0  0  0  0  0  0
  -19.5770  -26.6372   21.5214 C   0  0  0  0  0  0
  -18.1947  -26.7931   22.1618 C   0  0  0  0  0  0
  -19.1571  -28.8880   23.2833 C   0  0  0  0  0  0
  -18.9494  -30.1473   23.8859 C   0  0  0  0  0  0
  -17.6495  -30.6598   24.0550 C   0  0  0  0  0  0
  -25.9083  -34.9388   23.5058 C   0  0  0  0  0  0
  -16.5381  -29.9092   23.6342 C   0  0  0  0  0  0
  -16.7297  -28.6513   23.0354 C   0  0  0  0  0  0
  -26.4539  -31.6552   25.0718 C   0  0  0  0  0  0
  -25.3713  -31.3760   26.1414 C   0  0  0  0  0  0
  -27.0427  -30.2942   24.6347 C   0  0  0  0  0  0
  -27.6039  -32.4354   25.7509 C   0  0  0  0  0  0
  -27.5572  -37.1768   24.8467 C   0  0  0  0  0  0
  -21.4286  -29.3050   22.3584 N   0  0  0  0  0  0
  -26.4277  -37.3725   23.9421 N   0  0  0  0  0  0
  -24.7257  -31.0210   22.0905 N   0  0  0  0  0  0
  -23.4219  -28.8069   23.3008 O   0  0  0  0  0  0
  -28.2660  -26.0816   20.1871 O   0  0  0  0  0  0
  -26.5670  -34.8893   22.4638 O   0  0  0  0  0  0
  -23.5589  -32.1289   23.7044 O   0  0  0  0  0  0
  -30.1662  -22.6596   21.8738 C   0  0  0  0  0  0
  -30.8323  -21.7997   22.6748 C   0  0  0  0  0  0
  -30.5048  -20.4833   22.2605 C   0  0  0  0  0  0
  -29.7173  -20.5126   21.1158 C   0  0  0  0  0  0
  -28.2706  -18.1923   21.0922 C   0  0  0  0  0  0
  -28.4649  -16.6506   20.7895 C   0  0  0  0  0  0
  -30.4370  -17.7608   20.2875 C   0  0  0  0  0  0
  -29.3700  -19.0427   20.4125 C   0  0  2  0  0  0
  -31.7470  -22.1944   23.8072 C   0  0  0  0  0  0
  -31.0286  -19.2894   23.0335 C   0  0  0  0  0  0
  -28.6102  -23.0456   20.0343 C   0  0  0  0  0  0
  -28.0107  -24.5733   20.5890 C   0  0  0  0  0  0
  -29.3950  -21.9988   20.9369 N   0  0  0  0  0  0
  -29.8730  -16.3207   20.4962 N   0  0  0  0  0  0
  -31.4588  -12.8273   19.1648 H   0  0  0  0  0  0
  -30.4571  -11.7198   20.0503 H   0  0  0  0  0  0
  -29.8459  -11.7333   17.6073 H   0  0  0  0  0  0
  -29.5783  -13.4582   17.6664 H   0  0  0  0  0  0
  -27.9641  -11.2731   19.0065 H   0  0  0  0  0  0
  -27.3809  -12.4243   17.8318 H   0  0  0  0  0  0
  -27.5677  -14.2393   19.3889 H   0  0  0  0  0  0
  -28.7991  -12.3249   21.4280 H   0  0  0  0  0  0
  -28.3615  -13.9648   21.7769 H   0  0  0  0  0  0
  -25.2761   -9.5665   22.4781 H   0  0  0  0  0  0
  -23.9997   -7.4613   22.7478 H   0  0  0  0  0  0
  -21.0843   -8.8771   19.8954 H   0  0  0  0  0  0
  -22.3703  -10.9671   19.6182 H   0  0  0  0  0  0
  -21.1990   -7.6143   23.9709 H   0  0  0  0  0  0
  -21.1484   -6.0520   25.9075 H   0  0  0  0  0  0
  -22.0602   -2.7607   23.2846 H   0  0  0  0  0  0
  -22.4044  -11.9815   22.4834 H   0  0  0  0  0  0
  -21.1049  -13.1191   22.2726 H   0  0  0  0  0  0
  -24.6270  -15.8408   20.5252 H   0  0  0  0  0  0
  -26.2423  -15.6358   20.0782 H   0  0  0  0  0  0
  -26.7316  -32.5256   23.0977 H   0  0  0  0  0  0
  -25.0057  -33.9555   25.0279 H   0  0  0  0  0  0
  -22.7600  -31.2845   21.3730 H   0  0  0  0  0  0
  -23.3760  -35.9565   23.3293 H   0  0  0  0  0  0
  -24.3580  -36.8890   22.2072 H   0  0  0  0  0  0
  -23.7246  -37.6419   23.6708 H   0  0  0  0  0  0
  -26.1759  -31.4507   20.6169 H   0  0  0  0  0  0
  -26.8807  -30.7503   22.0375 H   0  0  0  0  0  0
  -28.1492  -28.7649   21.2281 H   0  0  0  0  0  0
  -25.9267  -25.8113   19.0131 H   0  0  0  0  0  0
  -23.9917  -27.2885   18.9714 H   0  0  0  0  0  0
  -23.8302  -30.5591   19.3975 H   0  0  0  0  0  0
  -22.7989  -29.2327   19.8359 H   0  0  0  0  0  0
  -25.1311  -36.1817   25.0807 H   0  0  0  0  0  0
  -21.0010  -28.3341   24.1337 H   0  0  0  0  0  0
  -20.5693  -26.2348   23.3635 H   0  0  0  0  0  0
  -21.6663  -26.7424   22.1200 H   0  0  0  0  0  0
  -19.6934  -25.6277   21.1263 H   0  0  0  0  0  0
  -19.6712  -27.3166   20.6731 H   0  0  0  0  0  0
  -17.4218  -26.6669   21.4023 H   0  0  0  0  0  0
  -18.0342  -26.0082   22.9021 H   0  0  0  0  0  0
  -19.7979  -30.7285   24.2211 H   0  0  0  0  0  0
  -17.5063  -31.6272   24.5166 H   0  0  0  0  0  0
  -15.5385  -30.2985   23.7697 H   0  0  0  0  0  0
  -15.8691  -28.0828   22.7083 H   0  0  0  0  0  0
  -24.5888  -30.7108   25.7746 H   0  0  0  0  0  0
  -24.8904  -32.2948   26.4782 H   0  0  0  0  0  0
  -25.7988  -30.8976   27.0236 H   0  0  0  0  0  0
  -26.3068  -29.6639   24.1345 H   0  0  0  0  0  0
  -27.4008  -29.7274   25.4952 H   0  0  0  0  0  0
  -27.8983  -30.4163   23.9706 H   0  0  0  0  0  0
  -27.2594  -33.3678   26.1997 H   0  0  0  0  0  0
  -28.3884  -32.6882   25.0369 H   0  0  0  0  0  0
  -28.0665  -31.8550   26.5502 H   0  0  0  0  0  0
  -28.2559  -38.0090   24.7519 H   0  0  0  0  0  0
  -28.1089  -36.2613   24.6276 H   0  0  0  0  0  0
  -27.2287  -37.1386   25.8866 H   0  0  0  0  0  0
  -20.9513  -29.8759   21.6746 H   0  0  0  0  0  0
  -26.0136  -38.2786   24.1442 H   0  0  0  0  0  0
  -30.1823  -23.7413   21.9090 H   0  0  0  0  0  0
  -28.3337  -18.3287   22.1710 H   0  0  0  0  0  0
  -27.2733  -18.5359   20.8163 H   0  0  0  0  0  0
  -27.8892  -16.3970   19.9011 H   0  0  0  0  0  0
  -28.0742  -16.0694   21.6217 H   0  0  0  0  0  0
  -31.2817  -17.8642   20.9594 H   0  0  0  0  0  0
  -30.8944  -17.7963   19.2979 H   0  0  0  0  0  0
  -29.0268  -19.2490   19.3977 H   0  0  0  0  0  0
  -32.0068  -23.2517   23.7477 H   0  0  0  0  0  0
  -32.6728  -21.6187   23.7700 H   0  0  0  0  0  0
  -31.2681  -22.0151   24.7697 H   0  0  0  0  0  0
  -32.0345  -19.0296   22.7024 H   0  0  0  0  0  0
  -30.3892  -18.4137   22.9553 H   0  0  0  0  0  0
  -31.0918  -19.5225   24.0965 H   0  0  0  0  0  0
  -27.7583  -22.5008   19.6276 H   0  0  0  0  0  0
  -29.2421  -23.2388   19.1673 H   0  0  0  0  0  0
  -28.1483  -24.5793   21.6698 H   0  0  0  0  0  0
  -26.9312  -24.4522   20.5162 H   0  0  0  0  0  0
  1 25  1  0  0  0
  1 30  2  0  0  0
  1 84  1  0  0  0
  2  3  1  0  0  0
  2 25  1  0  0  0
  2 85  1  0  0  0
  2 86  1  0  0  0
  3  4  1  0  0  0
  3 87  1  0  0  0
  3 88  1  0  0  0
  4  5  1  0  0  0
  4 89  1  0  0  0
  4 90  1  0  0  0
  5  6  1  0  0  0
  5 26  1  0  0  0
  5 91  1  0  0  0
  6 25  1  0  0  0
  6 92  1  0  0  0
  6 93  1  0  0  0
  7  8  2  0  0  0
  7 26  1  0  0  0
  7 29  1  0  0  0
  8  9  1  0  0  0
  8 22  1  0  0  0
  9 10  1  0  0  0
  9 27  2  0  0  0
 10 11  2  0  0  0
 10 15  1  0  0  0
 11 12  1  0  0  0
 11 94  1  0  0  0
 12 13  2  0  0  0
 12 95  1  0  0  0
 13 14  1  0  0  0
 13 31  1  0  0  0
 14 15  2  0  0  0
 14 96  1  0  0  0
 15 97  1  0  0  0
 16 17  2  0  0  0
 16 21  1  0  0  0
 16 31  1  0  0  0
 17 18  1  0  0  0
 17 98  1  0  0  0
 18 19  2  0  0  0
 18 99  1  0  0  0
 19 20  1  0  0  0
 19 24  1  0  0  0
 20 21  2  0  0  0
 20100  1  0  0  0
 21 23  1  0  0  0
 22 28  1  0  0  0
 22 32  2  0  0  0
 26 27  1  0  0  0
 28101  1  0  0  0
 28102  1  0  0  0
 29103  1  0  0  0
 29104  1  0  0  0
 33 34  1  0  0  0
 33 66  1  0  0  0
 33 70  2  0  0  0
 34 36  1  0  0  0
 34 59  1  0  0  0
 34105  1  0  0  0
 35 44  2  0  0  0
 35 45  1  0  0  0
 35 68  1  0  0  0
 36 56  1  0  0  0
 36106  1  0  0  0
 37 39  1  0  0  0
 37 47  1  0  0  0
 37 66  1  0  0  0
 37107  1  0  0  0
 38 43  2  0  0  0
 38 46  1  0  0  0
 38 47  1  0  0  0
 39 64  1  0  0  0
 39 67  2  0  0  0
 40 52  1  0  0  0
 40 53  2  0  0  0
 40 58  1  0  0  0
 41108  1  0  0  0
 41109  1  0  0  0
 41110  1  0  0  0
 41 48  1  0  0  0
 42 43  1  0  0  0
 42 66  1  0  0  0
 42111  1  0  0  0
 42112  1  0  0  0
 43 44  1  0  0  0
 44113  1  0  0  0
 45 46  2  0  0  0
 45114  1  0  0  0
 46115  1  0  0  0
 47116  1  0  0  0
 47117  1  0  0  0
 48 56  1  0  0  0
 48 65  1  0  0  0
 48118  1  0  0  0
 49 50  1  0  0  0
 49 53  1  0  0  0
 49 64  1  0  0  0
 49119  1  0  0  0
 50 51  1  0  0  0
 50120  1  0  0  0
 50121  1  0  0  0
 51 52  1  0  0  0
 51122  1  0  0  0
 51123  1  0  0  0
 52124  1  0  0  0
 52125  1  0  0  0
 53 54  1  0  0  0
 54 55  2  0  0  0
 54126  1  0  0  0
 55 57  1  0  0  0
 55127  1  0  0  0
 56 69  2  0  0  0
 57 58  2  0  0  0
 57128  1  0  0  0
 58129  1  0  0  0
 59 60  1  0  0  0
 59 61  1  0  0  0
 59 62  1  0  0  0
 60130  1  0  0  0
 60131  1  0  0  0
 60132  1  0  0  0
 61133  1  0  0  0
 61134  1  0  0  0
 61135  1  0  0  0
 62136  1  0  0  0
 62137  1  0  0  0
 62138  1  0  0  0
 63 65  1  0  0  0
 63139  1  0  0  0
 63140  1  0  0  0
 63141  1  0  0  0
 64142  1  0  0  0
 65143  1  0  0  0
 68 82  1  0  0  0
 71 72  2  0  0  0
 71 83  1  0  0  0
 71144  1  0  0  0
 72 73  1  0  0  0
 72 79  1  0  0  0
 73 74  2  0  0  0
 73 80  1  0  0  0
 74 83  1  0  0  0
 74 78  1  0  0  0
 75 76  1  0  0  0
 75 78  1  0  0  0
 75145  1  0  0  0
 75146  1  0  0  0
 76 84  1  0  0  0
 76147  1  0  0  0
 76148  1  0  0  0
 77 78  1  0  0  0
 77 84  1  0  0  0
 77149  1  0  0  0
 77150  1  0  0  0
 78151  1  0  0  0
 79152  1  0  0  0
 79153  1  0  0  0
 79154  1  0  0  0
 80155  1  0  0  0
 80156  1  0  0  0
 80157  1  0  0  0
 81 82  1  0  0  0
 81 83  1  0  0  0
 81158  1  0  0  0
 81159  1  0  0  0
 82160  1  0  0  0
 82161  1  0  0  0
M  ISO  4   1 100  68 101  82 101  84 100
M  END
> <chiral flag>
0

> <version>
0

> <s_m_source_file>
/data/baiqing/PycharmProjects/Reinvent-master-3.2/result/LINK_invent/BTK/process_docking_weight1_custom_sum_contain_oxygen_bond_distance_aromatic_linkinvent_7_9_3/rearranged_h_0169.sdf

> <i_m_source_file_index>
81

> <r_mmod_Potential_Energy-OPLS-2005>
928.048461914062

> <r_mmod_Stretch_Energy-OPLS-2005>
342.759063720703

> <r_mmod_Bend_Energy-OPLS-2005>
403.302825927734

> <r_mmod_Torsional_Energy-OPLS-2005>
355.432983398438

> <r_mmod_Improper_Torsional_Energy-OPLS-2005>
6.04140138626099

> <r_mmod_Van_der_Waal_Energy-OPLS-2005>
114.22834777832

> <r_mmod_Electrostatic_Energy-OPLS-2005>
-322.758819580078

> <r_mmod_Solvation_Energy-OPLS-2005>
-211.26530456543

> <b_mmod_Minimization_Converged-OPLS-2005>
0

> <r_mmod_RMS_Derivative-OPLS-2005>
1.28452825546265

$$$$
81
                    3D
 Structure written by MMmdl.
159168  0  0  1  0            999 V2000
  -30.5443  -14.9804   20.4084 C   0  0  0  0  0  0
  -30.4383  -12.6060   19.5030 C   0  0  0  0  0  0
  -29.5248  -12.5272   18.2585 C   0  0  0  0  0  0
  -28.0597  -12.3055   18.6779 C   0  0  0  0  0  0
  -27.6275  -13.2487   19.8308 C   0  0  2  0  0  0
  -28.6680  -13.3032   20.9700 C   0  0  0  0  0  0
  -25.2458  -13.8214   20.5690 C   0  0  0  0  0  0
  -24.1779  -13.0442   20.9231 C   0  0  0  0  0  0
  -24.6394  -11.6927   20.8747 C   0  0  0  0  0  0
  -23.9076  -10.4302   21.0404 C   0  0  0  0  0  0
  -24.3621   -9.4216   21.9184 C   0  0  0  0  0  0
  -23.6297   -8.2249   22.0757 C   0  0  0  0  0  0
  -22.4282   -8.0283   21.3541 C   0  0  0  0  0  0
  -21.9920   -9.0257   20.4642 C   0  0  0  0  0  0
  -22.7249  -10.2137   20.3051 C   0  0  0  0  0  0
  -21.6859   -6.0737   22.5281 C   0  0  0  0  0  0
  -21.4014   -6.5638   23.8216 C   0  0  0  0  0  0
  -21.3659   -5.6784   24.9175 C   0  0  0  0  0  0
  -21.6045   -4.3048   24.7223 C   0  0  0  0  0  0
  -21.8817   -3.8146   23.4342 C   0  0  0  0  0  0
  -21.9192   -4.6963   22.3400 C   0  0  0  0  0  0
  -22.7800  -13.5218   21.1879 C   0  0  0  0  0  0
  -22.1662   -4.2150   21.0976 F   0  0  0  0  0  0
  -21.5631   -3.4531   25.7735 F   0  0  0  0  0  0
  -29.9416  -13.7186   20.3674 N   0  0  0  0  0  0
  -26.2874  -12.9444   20.3197 N   0  0  0  0  0  0
  -25.9324  -11.6577   20.5718 N   0  0  0  0  0  0
  -22.0426  -12.8214   22.0420 N   0  0  0  0  0  0
  -25.4119  -15.1948   20.4104 N   0  0  0  0  0  0
  -31.7563  -14.9993   20.1579 O   0  0  0  0  0  0
  -21.6641   -6.8881   21.4244 O   0  0  0  0  0  0
  -22.3490  -14.5515   20.6708 O   0  0  0  0  0  0
  -24.6465  -31.8416   23.1848 C   0  0  0  0  0  0
  -25.9215  -32.4689   23.8251 C   0  0  1  0  0  0
  -27.2132  -27.1115   20.1600 C   0  0  0  0  0  0
  -25.5936  -33.8492   24.2159 N   0  0  0  0  0  0
  -23.4499  -30.4614   21.5315 C   0  0  2  0  0  0
  -24.8976  -28.8835   20.1120 C   0  0  0  0  0  0
  -22.7583  -29.4545   22.4850 C   0  0  0  0  0  0
  -18.0292  -28.1419   22.8493 C   0  0  0  0  0  0
  -24.1473  -36.7253   23.2644 C   0  0  0  0  0  0
  -26.0077  -30.7111   21.3825 C   0  0  0  0  0  0
  -26.0776  -29.3179   20.7289 C   0  0  0  0  0  0
  -27.2370  -28.4504   20.7326 C   0  0  0  0  0  0
  -26.0039  -26.7836   19.5054 C   0  0  0  0  0  0
  -24.8750  -27.6309   19.4835 C   0  0  0  0  0  0
  -23.6761  -29.7891   20.1520 C   0  0  0  0  0  0
  -25.4111  -36.3025   24.0313 C   0  0  1  0  0  0
  -20.5920  -28.3738   23.1245 C   0  0  2  0  0  0
  -20.6787  -26.9439   22.5412 C   0  0  0  0  0  0
  -19.5751  -26.6395   21.5232 C   0  0  0  0  0  0
  -18.1926  -26.7955   22.1636 C   0  0  0  0  0  0
  -19.1556  -28.8901   23.2855 C   0  0  0  0  0  0
  -18.9471  -30.1500   23.8880 C   0  0  0  0  0  0
  -17.6471  -30.6617   24.0577 C   0  0  0  0  0  0
  -25.9075  -34.9405   23.5051 C   0  0  0  0  0  0
  -16.5361  -29.9121   23.6355 C   0  0  0  0  0  0
  -16.7279  -28.6536   23.0372 C   0  0  0  0  0  0
  -26.4524  -31.6562   25.0699 C   0  0  0  0  0  0
  -25.3698  -31.3767   26.1388 C   0  0  0  0  0  0
  -27.0388  -30.2955   24.6276 C   0  0  0  0  0  0
  -27.6032  -32.4334   25.7505 C   0  0  0  0  0  0
  -27.5559  -37.1785   24.8468 C   0  0  0  0  0  0
  -21.4267  -29.3055   22.3611 N   0  0  0  0  0  0
  -26.4266  -37.3745   23.9418 N   0  0  0  0  0  0
  -24.7216  -31.0266   22.0881 N   0  0  0  0  0  0
  -23.4216  -28.8097   23.3008 O   0  0  0  0  0  0
  -28.2575  -26.1085   20.2308 O   0  0  0  0  0  0
  -26.5677  -34.8909   22.4641 O   0  0  0  0  0  0
  -23.5578  -32.1287   23.7066 O   0  0  0  0  0  0
  -30.8240  -20.4885   20.2845 C   0  0  0  0  0  0
  -29.1037  -18.8225   20.4644 C   0  0  0  0  0  0
  -29.4391  -20.2783   20.3867 C   0  0  0  0  0  0
  -31.7227  -19.3974   20.2599 C   0  0  0  0  0  0
  -30.0774  -17.6919   20.4366 C   0  0  0  0  0  0
  -26.2948  -21.0269   20.5967 C   0  0  0  0  0  0
  -27.2399  -21.3344   19.4400 C   0  0  0  0  0  0
  -27.4085  -21.4159   21.5611 C   0  0  0  0  0  0
  -28.4189  -21.5966   20.4050 C   0  0  0  0  0  0
  -33.2095  -19.6640   20.1507 C   0  0  0  0  0  0
  -28.9625  -23.2101   20.3338 C   0  0  0  0  0  0
  -27.9482  -24.5708   20.1486 C   0  0  0  0  0  0
  -31.3684  -18.0877   20.3311 N   0  0  0  0  0  0
  -29.7676  -16.1824   20.5191 N   0  0  0  0  0  0
  -31.4704  -12.7617   19.1869 H   0  0  0  0  0  0
  -30.4370  -11.6609   20.0487 H   0  0  0  0  0  0
  -29.8540  -11.7241   17.5975 H   0  0  0  0  0  0
  -29.6079  -13.4503   17.6825 H   0  0  0  0  0  0
  -27.9674  -11.2675   19.0001 H   0  0  0  0  0  0
  -27.3962  -12.4159   17.8195 H   0  0  0  0  0  0
  -27.5838  -14.2438   19.3874 H   0  0  0  0  0  0
  -28.7608  -12.3372   21.4690 H   0  0  0  0  0  0
  -28.3587  -14.0183   21.7332 H   0  0  0  0  0  0
  -25.2766   -9.5689   22.4757 H   0  0  0  0  0  0
  -24.0004   -7.4640   22.7479 H   0  0  0  0  0  0
  -21.0854   -8.8772   19.8946 H   0  0  0  0  0  0
  -22.3713  -10.9666   19.6150 H   0  0  0  0  0  0
  -21.2007   -7.6147   23.9719 H   0  0  0  0  0  0
  -21.1484   -6.0514   25.9074 H   0  0  0  0  0  0
  -22.0597   -2.7611   23.2839 H   0  0  0  0  0  0
  -22.4032  -11.9889   22.4836 H   0  0  0  0  0  0
  -21.1028  -13.1235   22.2563 H   0  0  0  0  0  0
  -24.6395  -15.8432   20.5192 H   0  0  0  0  0  0
  -26.2447  -15.6340   20.0425 H   0  0  0  0  0  0
  -26.7289  -32.5284   23.0984 H   0  0  0  0  0  0
  -25.0023  -33.9602   25.0268 H   0  0  0  0  0  0
  -22.7526  -31.2873   21.3767 H   0  0  0  0  0  0
  -23.3736  -35.9584   23.3295 H   0  0  0  0  0  0
  -24.3564  -36.8894   22.2060 H   0  0  0  0  0  0
  -23.7215  -37.6439   23.6700 H   0  0  0  0  0  0
  -26.1567  -31.4584   20.6016 H   0  0  0  0  0  0
  -26.8835  -30.7719   22.0171 H   0  0  0  0  0  0
  -28.1358  -28.7822   21.2338 H   0  0  0  0  0  0
  -25.8901  -25.8268   19.0214 H   0  0  0  0  0  0
  -23.9733  -27.2930   18.9902 H   0  0  0  0  0  0
  -23.8125  -30.5612   19.3938 H   0  0  0  0  0  0
  -22.7903  -29.2308   19.8440 H   0  0  0  0  0  0
  -25.1293  -36.1843   25.0804 H   0  0  0  0  0  0
  -21.0011  -28.3325   24.1369 H   0  0  0  0  0  0
  -20.5700  -26.2349   23.3632 H   0  0  0  0  0  0
  -21.6650  -26.7445   22.1197 H   0  0  0  0  0  0
  -19.6900  -25.6299   21.1271 H   0  0  0  0  0  0
  -19.6691  -27.3209   20.6768 H   0  0  0  0  0  0
  -17.4200  -26.6719   21.4030 H   0  0  0  0  0  0
  -18.0307  -26.0105   22.9042 H   0  0  0  0  0  0
  -19.7941  -30.7330   24.2228 H   0  0  0  0  0  0
  -17.5023  -31.6293   24.5184 H   0  0  0  0  0  0
  -15.5362  -30.3028   23.7694 H   0  0  0  0  0  0
  -15.8665  -28.0863   22.7105 H   0  0  0  0  0  0
  -24.5887  -30.7097   25.7727 H   0  0  0  0  0  0
  -24.8877  -32.2960   26.4715 H   0  0  0  0  0  0
  -25.7973  -30.9009   27.0220 H   0  0  0  0  0  0
  -26.3005  -29.6676   24.1273 H   0  0  0  0  0  0
  -27.3999  -29.7245   25.4840 H   0  0  0  0  0  0
  -27.8911  -30.4193   23.9592 H   0  0  0  0  0  0
  -27.2605  -33.3662   26.1993 H   0  0  0  0  0  0
  -28.3905  -32.6842   25.0389 H   0  0  0  0  0  0
  -28.0634  -31.8510   26.5492 H   0  0  0  0  0  0
  -28.2576  -38.0082   24.7520 H   0  0  0  0  0  0
  -28.1042  -36.2611   24.6281 H   0  0  0  0  0  0
  -27.2292  -37.1429   25.8875 H   0  0  0  0  0  0
  -20.9483  -29.8753   21.6774 H   0  0  0  0  0  0
  -26.0112  -38.2800   24.1440 H   0  0  0  0  0  0
  -31.2117  -21.4966   20.2234 H   0  0  0  0  0  0
  -28.0561  -18.5678   20.5465 H   0  0  0  0  0  0
  -26.0154  -19.9744   20.6581 H   0  0  0  0  0  0
  -25.4225  -21.6798   20.6441 H   0  0  0  0  0  0
  -26.9269  -22.2156   18.8823 H   0  0  0  0  0  0
  -27.3949  -20.4954   18.7615 H   0  0  0  0  0  0
  -27.6745  -20.6307   22.2701 H   0  0  0  0  0  0
  -27.1877  -22.3418   22.0932 H   0  0  0  0  0  0
  -33.5832  -20.0989   21.0777 H   0  0  0  0  0  0
  -33.4145  -20.3638   19.3405 H   0  0  0  0  0  0
  -33.7708  -18.7502   19.9539 H   0  0  0  0  0  0
  -29.6918  -23.2752   19.5274 H   0  0  0  0  0  0
  -29.5472  -23.3899   21.2362 H   0  0  0  0  0  0
  -27.1179  -24.4212   20.8394 H   0  0  0  0  0  0
  -27.5162  -24.4360   19.1586 H   0  0  0  0  0  0
  -28.7896  -15.9862   20.6554 H   0  0  0  0  0  0
  1 25  1  0  0  0
  1 30  2  0  0  0
  1 84  1  0  0  0
  2  3  1  0  0  0
  2 25  1  0  0  0
  2 85  1  0  0  0
  2 86  1  0  0  0
  3  4  1  0  0  0
  3 87  1  0  0  0
  3 88  1  0  0  0
  4  5  1  0  0  0
  4 89  1  0  0  0
  4 90  1  0  0  0
  5  6  1  0  0  0
  5 26  1  0  0  0
  5 91  1  0  0  0
  6 25  1  0  0  0
  6 92  1  0  0  0
  6 93  1  0  0  0
  7  8  2  0  0  0
  7 26  1  0  0  0
  7 29  1  0  0  0
  8  9  1  0  0  0
  8 22  1  0  0  0
  9 10  1  0  0  0
  9 27  2  0  0  0
 10 11  2  0  0  0
 10 15  1  0  0  0
 11 12  1  0  0  0
 11 94  1  0  0  0
 12 13  2  0  0  0
 12 95  1  0  0  0
 13 14  1  0  0  0
 13 31  1  0  0  0
 14 15  2  0  0  0
 14 96  1  0  0  0
 15 97  1  0  0  0
 16 17  2  0  0  0
 16 21  1  0  0  0
 16 31  1  0  0  0
 17 18  1  0  0  0
 17 98  1  0  0  0
 18 19  2  0  0  0
 18 99  1  0  0  0
 19 20  1  0  0  0
 19 24  1  0  0  0
 20 21  2  0  0  0
 20100  1  0  0  0
 21 23  1  0  0  0
 22 28  1  0  0  0
 22 32  2  0  0  0
 26 27  1  0  0  0
 28101  1  0  0  0
 28102  1  0  0  0
 29103  1  0  0  0
 29104  1  0  0  0
 33 34  1  0  0  0
 33 66  1  0  0  0
 33 70  2  0  0  0
 34 36  1  0  0  0
 34 59  1  0  0  0
 34105  1  0  0  0
 35 44  2  0  0  0
 35 45  1  0  0  0
 35 68  1  0  0  0
 36 56  1  0  0  0
 36106  1  0  0  0
 37 39  1  0  0  0
 37 47  1  0  0  0
 37 66  1  0  0  0
 37107  1  0  0  0
 38 43  2  0  0  0
 38 46  1  0  0  0
 38 47  1  0  0  0
 39 64  1  0  0  0
 39 67  2  0  0  0
 40 52  1  0  0  0
 40 53  2  0  0  0
 40 58  1  0  0  0
 41108  1  0  0  0
 41109  1  0  0  0
 41110  1  0  0  0
 41 48  1  0  0  0
 42 43  1  0  0  0
 42 66  1  0  0  0
 42111  1  0  0  0
 42112  1  0  0  0
 43 44  1  0  0  0
 44113  1  0  0  0
 45 46  2  0  0  0
 45114  1  0  0  0
 46115  1  0  0  0
 47116  1  0  0  0
 47117  1  0  0  0
 48 56  1  0  0  0
 48 65  1  0  0  0
 48118  1  0  0  0
 49 50  1  0  0  0
 49 53  1  0  0  0
 49 64  1  0  0  0
 49119  1  0  0  0
 50 51  1  0  0  0
 50120  1  0  0  0
 50121  1  0  0  0
 51 52  1  0  0  0
 51122  1  0  0  0
 51123  1  0  0  0
 52124  1  0  0  0
 52125  1  0  0  0
 53 54  1  0  0  0
 54 55  2  0  0  0
 54126  1  0  0  0
 55 57  1  0  0  0
 55127  1  0  0  0
 56 69  2  0  0  0
 57 58  2  0  0  0
 57128  1  0  0  0
 58129  1  0  0  0
 59 60  1  0  0  0
 59 61  1  0  0  0
 59 62  1  0  0  0
 60130  1  0  0  0
 60131  1  0  0  0
 60132  1  0  0  0
 61133  1  0  0  0
 61134  1  0  0  0
 61135  1  0  0  0
 62136  1  0  0  0
 62137  1  0  0  0
 62138  1  0  0  0
 63 65  1  0  0  0
 63139  1  0  0  0
 63140  1  0  0  0
 63141  1  0  0  0
 64142  1  0  0  0
 65143  1  0  0  0
 68 82  1  0  0  0
 71 73  2  0  0  0
 71 74  1  0  0  0
 71144  1  0  0  0
 72 73  1  0  0  0
 72 75  2  0  0  0
 72145  1  0  0  0
 73 79  1  0  0  0
 74 80  1  0  0  0
 74 83  2  0  0  0
 75 83  1  0  0  0
 75 84  1  0  0  0
 76 77  1  0  0  0
 76 78  1  0  0  0
 76146  1  0  0  0
 76147  1  0  0  0
 77 79  1  0  0  0
 77148  1  0  0  0
 77149  1  0  0  0
 78 79  1  0  0  0
 78150  1  0  0  0
 78151  1  0  0  0
 79 81  1  0  0  0
 80152  1  0  0  0
 80153  1  0  0  0
 80154  1  0  0  0
 81 82  1  0  0  0
 81155  1  0  0  0
 81156  1  0  0  0
 82157  1  0  0  0
 82158  1  0  0  0
 84159  1  0  0  0
M  ISO  4   1 100  68 101  82 101  84 100
M  END
> <chiral flag>
0

> <version>
0

> <s_m_source_file>
/data/baiqing/PycharmProjects/Reinvent-master-3.2/result/LINK_invent/BTK/process_docking_weight1_custom_sum_contain_oxygen_bond_distance_aromatic_linkinvent_7_9_3/rearranged_h_0169.sdf

> <i_m_source_file_index>
82

> <r_mmod_Potential_Energy-OPLS-2005>
420.175964355469

> <r_mmod_Stretch_Energy-OPLS-2005>
294.139984130859

> <r_mmod_Bend_Energy-OPLS-2005>
274.014739990234

> <r_mmod_Torsional_Energy-OPLS-2005>
251.268035888672

> <r_mmod_Improper_Torsional_Energy-OPLS-2005>
4.47947263717651

> <r_mmod_Van_der_Waal_Energy-OPLS-2005>
130.757339477539

> <r_mmod_Electrostatic_Energy-OPLS-2005>
-515.234619140625

> <r_mmod_Solvation_Energy-OPLS-2005>
-233.450012207031

> <b_mmod_Minimization_Converged-OPLS-2005>
0

> <r_mmod_RMS_Derivative-OPLS-2005>
1.67744719982147

$$$$
82
                    3D
 Structure written by MMmdl.
167177  0  0  1  0            999 V2000
  -30.6621  -14.7042   20.4739 C   0  0  0  0  0  0
  -30.4187  -12.4358   19.4683 C   0  0  0  0  0  0
  -29.4990  -12.5061   18.2324 C   0  0  0  0  0  0
  -28.0257  -12.3392   18.6471 C   0  0  0  0  0  0
  -27.6379  -13.2357   19.8527 C   0  0  2  0  0  0
  -28.6852  -13.1800   20.9867 C   0  0  0  0  0  0
  -25.2499  -13.8212   20.5730 C   0  0  0  0  0  0
  -24.1790  -13.0459   20.9206 C   0  0  0  0  0  0
  -24.6377  -11.6930   20.8744 C   0  0  0  0  0  0
  -23.9050  -10.4311   21.0391 C   0  0  0  0  0  0
  -24.3607   -9.4231   21.9167 C   0  0  0  0  0  0
  -23.6292   -8.2263   22.0742 C   0  0  0  0  0  0
  -22.4270   -8.0287   21.3537 C   0  0  0  0  0  0
  -21.9904   -9.0251   20.4629 C   0  0  0  0  0  0
  -22.7221  -10.2140   20.3038 C   0  0  0  0  0  0
  -21.6873   -6.0740   22.5265 C   0  0  0  0  0  0
  -21.4022   -6.5642   23.8194 C   0  0  0  0  0  0
  -21.3651   -5.6794   24.9152 C   0  0  0  0  0  0
  -21.6036   -4.3055   24.7216 C   0  0  0  0  0  0
  -21.8826   -3.8153   23.4340 C   0  0  0  0  0  0
  -21.9205   -4.6969   22.3391 C   0  0  0  0  0  0
  -22.7804  -13.5224   21.1869 C   0  0  0  0  0  0
  -22.1674   -4.2148   21.0974 F   0  0  0  0  0  0
  -21.5621   -3.4537   25.7736 F   0  0  0  0  0  0
  -29.9857  -13.5072   20.3949 N   0  0  0  0  0  0
  -26.2921  -12.9416   20.3316 N   0  0  0  0  0  0
  -25.9314  -11.6553   20.5777 N   0  0  0  0  0  0
  -22.0466  -12.8193   22.0421 N   0  0  0  0  0  0
  -25.4232  -15.1934   20.4190 N   0  0  0  0  0  0
  -31.8595  -14.7442   20.1746 O   0  0  0  0  0  0
  -21.6642   -6.8878   21.4229 O   0  0  0  0  0  0
  -22.3486  -14.5548   20.6747 O   0  0  0  0  0  0
  -24.6352  -31.8569   23.2024 C   0  0  0  0  0  0
  -25.9179  -32.4757   23.8357 C   0  0  1  0  0  0
  -27.2115  -27.2619   20.1213 C   0  0  0  0  0  0
  -25.5972  -33.8560   24.2267 N   0  0  0  0  0  0
  -23.4287  -30.4877   21.5484 C   0  0  2  0  0  0
  -24.8732  -28.9486   20.1060 C   0  0  0  0  0  0
  -22.7527  -29.4634   22.4933 C   0  0  0  0  0  0
  -18.0305  -28.1398   22.8494 C   0  0  0  0  0  0
  -24.1468  -36.7288   23.2639 C   0  0  0  0  0  0
  -25.9795  -30.7706   21.3844 C   0  0  0  0  0  0
  -26.0496  -29.3968   20.7207 C   0  0  0  0  0  0
  -27.2205  -28.5659   20.7231 C   0  0  0  0  0  0
  -26.0122  -26.9081   19.4507 C   0  0  0  0  0  0
  -24.8617  -27.7088   19.4596 C   0  0  0  0  0  0
  -23.6437  -29.8340   20.1602 C   0  0  0  0  0  0
  -25.4096  -36.3067   24.0322 C   0  0  1  0  0  0
  -20.5916  -28.3701   23.1254 C   0  0  2  0  0  0
  -20.6794  -26.9409   22.5409 C   0  0  0  0  0  0
  -19.5750  -26.6385   21.5232 C   0  0  0  0  0  0
  -18.1921  -26.7940   22.1642 C   0  0  0  0  0  0
  -19.1567  -28.8878   23.2857 C   0  0  0  0  0  0
  -18.9474  -30.1483   23.8860 C   0  0  0  0  0  0
  -17.6466  -30.6584   24.0579 C   0  0  0  0  0  0
  -25.9036  -34.9436   23.5082 C   0  0  0  0  0  0
  -16.5358  -29.9076   23.6354 C   0  0  0  0  0  0
  -16.7301  -28.6515   23.0357 C   0  0  0  0  0  0
  -26.4485  -31.6601   25.0767 C   0  0  0  0  0  0
  -25.3687  -31.3802   26.1495 C   0  0  0  0  0  0
  -27.0361  -30.3019   24.6280 C   0  0  0  0  0  0
  -27.6004  -32.4389   25.7542 C   0  0  0  0  0  0
  -27.5570  -37.1791   24.8455 C   0  0  0  0  0  0
  -21.4250  -29.3043   22.3641 N   0  0  0  0  0  0
  -26.4262  -37.3774   23.9408 N   0  0  0  0  0  0
  -24.7011  -31.0549   22.1009 N   0  0  0  0  0  0
  -23.4237  -28.8165   23.3017 O   0  0  0  0  0  0
  -28.2704  -26.3122   20.2155 O   0  0  0  0  0  0
  -26.5601  -34.8903   22.4651 O   0  0  0  0  0  0
  -23.5517  -32.1374   23.7333 O   0  0  0  0  0  0
  -28.8123  -21.3364   21.4794 C   0  0  0  0  0  0
  -29.4458  -20.6375   20.4080 C   0  0  0  0  0  0
  -29.7649  -21.4871   19.3097 C   0  0  0  0  0  0
  -29.4050  -22.8579   19.2368 C   0  0  0  0  0  0
  -28.4488  -22.7329   21.4192 C   0  0  0  0  0  0
  -28.6847  -23.5428   20.2576 C   0  0  0  0  0  0
  -30.4999  -21.0579   18.0617 C   0  0  0  0  0  0
  -29.8320  -23.4573   17.9174 C   0  0  0  0  0  0
  -30.4898  -22.2955   17.1411 C   0  0  0  0  0  0
  -29.8542  -18.3131   21.7770 C   0  0  0  0  0  0
  -29.0274  -18.1158   19.5352 C   0  0  0  0  0  0
  -30.4693  -16.8526   21.6932 C   0  0  0  0  0  0
  -29.6578  -16.6722   19.3990 C   0  0  0  0  0  0
  -29.8455  -19.0857   20.4299 C   0  0  0  0  0  0
  -27.7512  -23.3411   22.6259 C   0  0  0  0  0  0
  -27.8749  -24.8850   19.9534 C   0  0  0  0  0  0
  -29.9685  -15.9036   20.6454 N   0  0  0  0  0  0
  -31.4605  -12.5433   19.1625 H   0  0  0  0  0  0
  -30.3488  -11.4619   19.9537 H   0  0  0  0  0  0
  -29.7774  -11.7366   17.5108 H   0  0  0  0  0  0
  -29.6309  -13.4642   17.7280 H   0  0  0  0  0  0
  -27.8700  -11.2884   18.8966 H   0  0  0  0  0  0
  -27.3724  -12.5481   17.7989 H   0  0  0  0  0  0
  -27.6277  -14.2563   19.4725 H   0  0  0  0  0  0
  -28.7124  -12.1927   21.4481 H   0  0  0  0  0  0
  -28.4293  -13.8888   21.7767 H   0  0  0  0  0  0
  -25.2746   -9.5727   22.4733 H   0  0  0  0  0  0
  -24.0010   -7.4662   22.7461 H   0  0  0  0  0  0
  -21.0839   -8.8754   19.8928 H   0  0  0  0  0  0
  -22.3656  -10.9674   19.6151 H   0  0  0  0  0  0
  -21.2012   -7.6147   23.9697 H   0  0  0  0  0  0
  -21.1459   -6.0520   25.9050 H   0  0  0  0  0  0
  -22.0617   -2.7616   23.2834 H   0  0  0  0  0  0
  -22.4109  -11.9845   22.4769 H   0  0  0  0  0  0
  -21.1078  -13.1183   22.2642 H   0  0  0  0  0  0
  -24.6658  -15.8573   20.5341 H   0  0  0  0  0  0
  -26.2951  -15.6300   20.1472 H   0  0  0  0  0  0
  -26.7283  -32.5385   23.1128 H   0  0  0  0  0  0
  -25.0171  -33.9692   25.0459 H   0  0  0  0  0  0
  -22.7265  -31.3122   21.4137 H   0  0  0  0  0  0
  -23.3721  -35.9635   23.3311 H   0  0  0  0  0  0
  -24.3547  -36.8909   22.2042 H   0  0  0  0  0  0
  -23.7216  -37.6490   23.6681 H   0  0  0  0  0  0
  -26.1252  -31.5313   20.6165 H   0  0  0  0  0  0
  -26.8554  -30.8122   22.0202 H   0  0  0  0  0  0
  -28.1113  -28.8976   21.2372 H   0  0  0  0  0  0
  -25.8994  -25.9768   18.9217 H   0  0  0  0  0  0
  -23.9677  -27.3585   18.9627 H   0  0  0  0  0  0
  -23.7623  -30.6161   19.4090 H   0  0  0  0  0  0
  -22.7582  -29.2708   19.8566 H   0  0  0  0  0  0
  -25.1264  -36.1907   25.0813 H   0  0  0  0  0  0
  -21.0011  -28.3305   24.1369 H   0  0  0  0  0  0
  -20.5708  -26.2302   23.3628 H   0  0  0  0  0  0
  -21.6643  -26.7447   22.1167 H   0  0  0  0  0  0
  -19.6880  -25.6294   21.1263 H   0  0  0  0  0  0
  -19.6672  -27.3213   20.6771 H   0  0  0  0  0  0
  -17.4190  -26.6748   21.4015 H   0  0  0  0  0  0
  -18.0254  -26.0075   22.9018 H   0  0  0  0  0  0
  -19.7953  -30.7332   24.2164 H   0  0  0  0  0  0
  -17.5021  -31.6246   24.5198 H   0  0  0  0  0  0
  -15.5344  -30.2961   23.7699 H   0  0  0  0  0  0
  -15.8709  -28.0837   22.7049 H   0  0  0  0  0  0
  -24.5899  -30.7066   25.7896 H   0  0  0  0  0  0
  -24.8805  -32.2978   26.4791 H   0  0  0  0  0  0
  -25.7971  -30.9135   27.0373 H   0  0  0  0  0  0
  -26.2979  -29.6743   24.1269 H   0  0  0  0  0  0
  -27.3998  -29.7285   25.4815 H   0  0  0  0  0  0
  -27.8874  -30.4289   23.9586 H   0  0  0  0  0  0
  -27.2596  -33.3755   26.1979 H   0  0  0  0  0  0
  -28.3879  -32.6844   25.0406 H   0  0  0  0  0  0
  -28.0607  -31.8617   26.5570 H   0  0  0  0  0  0
  -28.2574  -38.0101   24.7526 H   0  0  0  0  0  0
  -28.1060  -36.2619   24.6264 H   0  0  0  0  0  0
  -27.2287  -37.1427   25.8856 H   0  0  0  0  0  0
  -20.9433  -29.8805   21.6877 H   0  0  0  0  0  0
  -26.0139  -38.2842   24.1457 H   0  0  0  0  0  0
  -28.5770  -20.7807   22.3740 H   0  0  0  0  0  0
  -30.0075  -20.2175   17.5770 H   0  0  0  0  0  0
  -31.5201  -20.7600   18.3074 H   0  0  0  0  0  0
  -30.5414  -24.2690   18.0891 H   0  0  0  0  0  0
  -28.9821  -23.8574   17.3667 H   0  0  0  0  0  0
  -29.9087  -22.0800   16.2429 H   0  0  0  0  0  0
  -31.4960  -22.5521   16.8081 H   0  0  0  0  0  0
  -30.4263  -18.8772   22.5145 H   0  0  0  0  0  0
  -28.8395  -18.2591   22.1736 H   0  0  0  0  0  0
  -28.0109  -18.0378   19.9235 H   0  0  0  0  0  0
  -28.9186  -18.5336   18.5350 H   0  0  0  0  0  0
  -30.3531  -16.3695   22.6641 H   0  0  0  0  0  0
  -31.5466  -16.9634   21.5537 H   0  0  0  0  0  0
  -30.5870  -16.7751   18.8317 H   0  0  0  0  0  0
  -29.0025  -16.0667   18.7716 H   0  0  0  0  0  0
  -30.8719  -19.0723   20.0651 H   0  0  0  0  0  0
  -27.8241  -22.6946   23.4994 H   0  0  0  0  0  0
  -26.6929  -23.5102   22.4266 H   0  0  0  0  0  0
  -28.2030  -24.2976   22.8917 H   0  0  0  0  0  0
  -26.9182  -24.7192   20.4505 H   0  0  0  0  0  0
  -27.6604  -24.8243   18.8887 H   0  0  0  0  0  0
  1 25  1  0  0  0
  1 30  2  0  0  0
  1 87  1  0  0  0
  2  3  1  0  0  0
  2 25  1  0  0  0
  2 88  1  0  0  0
  2 89  1  0  0  0
  3  4  1  0  0  0
  3 90  1  0  0  0
  3 91  1  0  0  0
  4  5  1  0  0  0
  4 92  1  0  0  0
  4 93  1  0  0  0
  5  6  1  0  0  0
  5 26  1  0  0  0
  5 94  1  0  0  0
  6 25  1  0  0  0
  6 95  1  0  0  0
  6 96  1  0  0  0
  7  8  2  0  0  0
  7 26  1  0  0  0
  7 29  1  0  0  0
  8  9  1  0  0  0
  8 22  1  0  0  0
  9 10  1  0  0  0
  9 27  2  0  0  0
 10 11  2  0  0  0
 10 15  1  0  0  0
 11 12  1  0  0  0
 11 97  1  0  0  0
 12 13  2  0  0  0
 12 98  1  0  0  0
 13 14  1  0  0  0
 13 31  1  0  0  0
 14 15  2  0  0  0
 14 99  1  0  0  0
 15100  1  0  0  0
 16 17  2  0  0  0
 16 21  1  0  0  0
 16 31  1  0  0  0
 17 18  1  0  0  0
 17101  1  0  0  0
 18 19  2  0  0  0
 18102  1  0  0  0
 19 20  1  0  0  0
 19 24  1  0  0  0
 20 21  2  0  0  0
 20103  1  0  0  0
 21 23  1  0  0  0
 22 28  1  0  0  0
 22 32  2  0  0  0
 26 27  1  0  0  0
 28104  1  0  0  0
 28105  1  0  0  0
 29106  1  0  0  0
 29107  1  0  0  0
 33 34  1  0  0  0
 33 66  1  0  0  0
 33 70  2  0  0  0
 34 36  1  0  0  0
 34 59  1  0  0  0
 34108  1  0  0  0
 35 44  2  0  0  0
 35 45  1  0  0  0
 35 68  1  0  0  0
 36 56  1  0  0  0
 36109  1  0  0  0
 37 39  1  0  0  0
 37 47  1  0  0  0
 37 66  1  0  0  0
 37110  1  0  0  0
 38 43  2  0  0  0
 38 46  1  0  0  0
 38 47  1  0  0  0
 39 64  1  0  0  0
 39 67  2  0  0  0
 40 52  1  0  0  0
 40 53  2  0  0  0
 40 58  1  0  0  0
 41111  1  0  0  0
 41112  1  0  0  0
 41113  1  0  0  0
 41 48  1  0  0  0
 42 43  1  0  0  0
 42 66  1  0  0  0
 42114  1  0  0  0
 42115  1  0  0  0
 43 44  1  0  0  0
 44116  1  0  0  0
 45 46  2  0  0  0
 45117  1  0  0  0
 46118  1  0  0  0
 47119  1  0  0  0
 47120  1  0  0  0
 48 56  1  0  0  0
 48 65  1  0  0  0
 48121  1  0  0  0
 49 50  1  0  0  0
 49 53  1  0  0  0
 49 64  1  0  0  0
 49122  1  0  0  0
 50 51  1  0  0  0
 50123  1  0  0  0
 50124  1  0  0  0
 51 52  1  0  0  0
 51125  1  0  0  0
 51126  1  0  0  0
 52127  1  0  0  0
 52128  1  0  0  0
 53 54  1  0  0  0
 54 55  2  0  0  0
 54129  1  0  0  0
 55 57  1  0  0  0
 55130  1  0  0  0
 56 69  2  0  0  0
 57 58  2  0  0  0
 57131  1  0  0  0
 58132  1  0  0  0
 59 60  1  0  0  0
 59 61  1  0  0  0
 59 62  1  0  0  0
 60133  1  0  0  0
 60134  1  0  0  0
 60135  1  0  0  0
 61136  1  0  0  0
 61137  1  0  0  0
 61138  1  0  0  0
 62139  1  0  0  0
 62140  1  0  0  0
 62141  1  0  0  0
 63 65  1  0  0  0
 63142  1  0  0  0
 63143  1  0  0  0
 63144  1  0  0  0
 64145  1  0  0  0
 65146  1  0  0  0
 68 86  1  0  0  0
 71 72  2  0  0  0
 71 75  1  0  0  0
 71147  1  0  0  0
 72 73  1  0  0  0
 72 84  1  0  0  0
 73 74  2  0  0  0
 73 77  1  0  0  0
 74 76  1  0  0  0
 74 78  1  0  0  0
 75 76  2  0  0  0
 75 85  1  0  0  0
 76 86  1  0  0  0
 77 79  1  0  0  0
 77148  1  0  0  0
 77149  1  0  0  0
 78 79  1  0  0  0
 78150  1  0  0  0
 78151  1  0  0  0
 79152  1  0  0  0
 79153  1  0  0  0
 80 82  1  0  0  0
 80 84  1  0  0  0
 80154  1  0  0  0
 80155  1  0  0  0
 81 83  1  0  0  0
 81 84  1  0  0  0
 81156  1  0  0  0
 81157  1  0  0  0
 82 87  1  0  0  0
 82158  1  0  0  0
 82159  1  0  0  0
 83 87  1  0  0  0
 83160  1  0  0  0
 83161  1  0  0  0
 84162  1  0  0  0
 85163  1  0  0  0
 85164  1  0  0  0
 85165  1  0  0  0
 86166  1  0  0  0
 86167  1  0  0  0
M  ISO  4   1 100  68 101  86 101  87 100
M  END
> <chiral flag>
0

> <version>
0

> <s_m_source_file>
/data/baiqing/PycharmProjects/Reinvent-master-3.2/result/LINK_invent/BTK/process_docking_weight1_custom_sum_contain_oxygen_bond_distance_aromatic_linkinvent_7_9_3/rearranged_h_0169.sdf

> <i_m_source_file_index>
83

> <r_mmod_Potential_Energy-OPLS-2005>
479.761474609375

> <r_mmod_Stretch_Energy-OPLS-2005>
112.311096191406

> <r_mmod_Bend_Energy-OPLS-2005>
227.046905517578

> <r_mmod_Torsional_Energy-OPLS-2005>
368.661834716797

> <r_mmod_Improper_Torsional_Energy-OPLS-2005>
13.5218944549561

> <r_mmod_Van_der_Waal_Energy-OPLS-2005>
149.851058959961

> <r_mmod_Electrostatic_Energy-OPLS-2005>
-285.140411376953

> <r_mmod_Solvation_Energy-OPLS-2005>
-191.810760498047

> <b_mmod_Minimization_Converged-OPLS-2005>
0

> <r_mmod_RMS_Derivative-OPLS-2005>
3.29554390907288

$$$$
83
                    3D
 Structure written by MMmdl.
169179  0  0  1  0            999 V2000
  -30.7473  -14.4393   20.6450 C   0  0  0  0  0  0
  -30.4164  -12.3170   19.4174 C   0  0  0  0  0  0
  -29.4891  -12.5224   18.2044 C   0  0  0  0  0  0
  -28.0143  -12.3713   18.6208 C   0  0  0  0  0  0
  -27.6628  -13.2122   19.8767 C   0  0  2  0  0  0
  -28.7016  -12.9974   20.9997 C   0  0  0  0  0  0
  -25.2595  -13.8180   20.5695 C   0  0  0  0  0  0
  -24.1848  -13.0446   20.9195 C   0  0  0  0  0  0
  -24.6406  -11.6918   20.8738 C   0  0  0  0  0  0
  -23.9070  -10.4300   21.0405 C   0  0  0  0  0  0
  -24.3621   -9.4213   21.9181 C   0  0  0  0  0  0
  -23.6299   -8.2245   22.0750 C   0  0  0  0  0  0
  -22.4277   -8.0281   21.3544 C   0  0  0  0  0  0
  -21.9915   -9.0252   20.4642 C   0  0  0  0  0  0
  -22.7241  -10.2135   20.3055 C   0  0  0  0  0  0
  -21.6855   -6.0742   22.5287 C   0  0  0  0  0  0
  -21.4011   -6.5649   23.8219 C   0  0  0  0  0  0
  -21.3660   -5.6806   24.9183 C   0  0  0  0  0  0
  -21.6048   -4.3069   24.7236 C   0  0  0  0  0  0
  -21.8816   -3.8154   23.4361 C   0  0  0  0  0  0
  -21.9192   -4.6967   22.3413 C   0  0  0  0  0  0
  -22.7871  -13.5228   21.1859 C   0  0  0  0  0  0
  -22.1661   -4.2149   21.0990 F   0  0  0  0  0  0
  -21.5627   -3.4555   25.7748 F   0  0  0  0  0  0
  -30.0392  -13.2908   20.4560 N   0  0  0  0  0  0
  -26.3035  -12.9362   20.3382 N   0  0  0  0  0  0
  -25.9338  -11.6517   20.5777 N   0  0  0  0  0  0
  -22.0518  -12.8204   22.0411 N   0  0  0  0  0  0
  -25.4323  -15.1891   20.4082 N   0  0  0  0  0  0
  -31.7904  -14.6912   20.0355 O   0  0  0  0  0  0
  -21.6640   -6.8879   21.4245 O   0  0  0  0  0  0
  -22.3552  -14.5534   20.6713 O   0  0  0  0  0  0
  -24.6170  -31.8673   23.2099 C   0  0  0  0  0  0
  -25.9059  -32.4818   23.8393 C   0  0  1  0  0  0
  -27.2250  -27.4140   20.1001 C   0  0  0  0  0  0
  -25.5909  -33.8617   24.2321 N   0  0  0  0  0  0
  -23.4057  -30.4920   21.5511 C   0  0  2  0  0  0
  -24.8518  -28.9618   20.1106 C   0  0  0  0  0  0
  -22.7426  -29.4655   22.4981 C   0  0  0  0  0  0
  -18.0274  -28.1376   22.8488 C   0  0  0  0  0  0
  -24.1489  -36.7314   23.2636 C   0  0  0  0  0  0
  -25.9381  -30.8270   21.3674 C   0  0  0  0  0  0
  -26.0154  -29.4627   20.7095 C   0  0  0  0  0  0
  -27.2087  -28.6983   20.6982 C   0  0  0  0  0  0
  -26.0486  -26.9459   19.4740 C   0  0  0  0  0  0
  -24.8651  -27.7042   19.4864 C   0  0  0  0  0  0
  -23.6144  -29.8293   20.1641 C   0  0  0  0  0  0
  -25.4111  -36.3108   24.0333 C   0  0  1  0  0  0
  -20.5866  -28.3665   23.1312 C   0  0  2  0  0  0
  -20.6764  -26.9399   22.5415 C   0  0  0  0  0  0
  -19.5744  -26.6382   21.5211 C   0  0  0  0  0  0
  -18.1922  -26.7921   22.1621 C   0  0  0  0  0  0
  -19.1523  -28.8837   23.2897 C   0  0  0  0  0  0
  -18.9451  -30.1443   23.8906 C   0  0  0  0  0  0
  -17.6453  -30.6583   24.0561 C   0  0  0  0  0  0
  -25.9042  -34.9475   23.5123 C   0  0  0  0  0  0
  -16.5345  -29.9082   23.6327 C   0  0  0  0  0  0
  -16.7262  -28.6499   23.0347 C   0  0  0  0  0  0
  -26.4479  -31.6602   25.0728 C   0  0  0  0  0  0
  -25.3740  -31.3711   26.1471 C   0  0  0  0  0  0
  -27.0307  -30.3039   24.6119 C   0  0  0  0  0  0
  -27.6048  -32.4325   25.7495 C   0  0  0  0  0  0
  -27.5584  -37.1810   24.8462 C   0  0  0  0  0  0
  -21.4150  -29.3034   22.3721 N   0  0  0  0  0  0
  -26.4295  -37.3795   23.9408 N   0  0  0  0  0  0
  -24.6718  -31.0760   22.1008 N   0  0  0  0  0  0
  -23.4191  -28.8194   23.3025 O   0  0  0  0  0  0
  -28.3508  -26.6108   20.1342 O   0  0  0  0  0  0
  -26.5601  -34.8927   22.4683 O   0  0  0  0  0  0
  -23.5359  -32.1437   23.7483 O   0  0  0  0  0  0
  -28.8110  -19.6225   20.7816 C   0  0  0  0  0  0
  -28.6871  -21.0224   20.6436 C   0  0  0  0  0  0
  -29.7904  -18.8932   20.0670 C   0  0  0  0  0  0
  -29.4986  -21.7494   19.7472 C   0  0  0  0  0  0
  -30.6600  -19.6246   19.2008 C   0  0  0  0  0  0
  -30.4809  -21.0303   19.0096 C   0  0  0  0  0  0
  -29.7802  -17.3752   20.1114 C   0  0  0  0  0  0
  -30.3744  -16.3334   23.7562 C   0  0  0  0  0  0
  -30.1151  -17.4012   22.7088 C   0  0  0  0  0  0
  -30.2935  -24.3083   19.6002 C   0  0  0  0  0  0
  -30.8871  -15.1433   22.9500 C   0  0  0  0  0  0
  -29.2217  -23.2372   19.5338 C   0  0  2  0  0  0
  -29.6385  -16.6097   21.4769 C   0  0  2  0  0  0
  -29.2217  -24.2723   20.6586 C   0  0  2  0  0  0
  -31.7899  -18.9063   18.4579 C   0  0  0  0  0  0
  -31.3227  -21.7641   17.9669 C   0  0  0  0  0  0
  -28.1165  -25.3290   20.7662 C   0  0  0  0  0  0
  -30.3070  -15.2775   21.6113 N   0  0  0  0  0  0
  -29.7992  -16.7396   19.0536 O   0  0  0  0  0  0
  -31.4611  -12.4115   19.1161 H   0  0  0  0  0  0
  -30.3145  -11.3035   19.8092 H   0  0  0  0  0  0
  -29.7303  -11.8059   17.4177 H   0  0  0  0  0  0
  -29.6514  -13.5135   17.7778 H   0  0  0  0  0  0
  -27.8333  -11.3142   18.8200 H   0  0  0  0  0  0
  -27.3568  -12.6386   17.7926 H   0  0  0  0  0  0
  -27.7084  -14.2605   19.5807 H   0  0  0  0  0  0
  -28.6735  -11.9655   21.3527 H   0  0  0  0  0  0
  -28.4513  -13.6094   21.8669 H   0  0  0  0  0  0
  -25.2768   -9.5691   22.4751 H   0  0  0  0  0  0
  -24.0014   -7.4640   22.7470 H   0  0  0  0  0  0
  -21.0845   -8.8772   19.8945 H   0  0  0  0  0  0
  -22.3701  -10.9673   19.6162 H   0  0  0  0  0  0
  -21.2005   -7.6159   23.9721 H   0  0  0  0  0  0
  -21.1484   -6.0539   25.9083 H   0  0  0  0  0  0
  -22.0594   -2.7615   23.2866 H   0  0  0  0  0  0
  -22.4145  -11.9862   22.4786 H   0  0  0  0  0  0
  -21.1129  -13.1210   22.2610 H   0  0  0  0  0  0
  -24.6644  -15.8444   20.5051 H   0  0  0  0  0  0
  -26.2790  -15.6185   20.0582 H   0  0  0  0  0  0
  -26.7132  -32.5525   23.1156 H   0  0  0  0  0  0
  -25.0066  -33.9780   25.0470 H   0  0  0  0  0  0
  -22.6947  -31.3095   21.4137 H   0  0  0  0  0  0
  -23.3751  -35.9647   23.3300 H   0  0  0  0  0  0
  -24.3585  -36.8930   22.2051 H   0  0  0  0  0  0
  -23.7243  -37.6518   23.6654 H   0  0  0  0  0  0
  -26.0569  -31.5957   20.6025 H   0  0  0  0  0  0
  -26.8236  -30.8757   21.9892 H   0  0  0  0  0  0
  -28.1041  -29.0759   21.1722 H   0  0  0  0  0  0
  -26.0366  -25.9875   18.9747 H   0  0  0  0  0  0
  -23.9742  -27.3168   19.0116 H   0  0  0  0  0  0
  -23.7225  -30.6070   19.4070 H   0  0  0  0  0  0
  -22.7377  -29.2508   19.8671 H   0  0  0  0  0  0
  -25.1288  -36.1971   25.0826 H   0  0  0  0  0  0
  -20.9953  -28.3228   24.1435 H   0  0  0  0  0  0
  -20.5666  -26.2273   23.3602 H   0  0  0  0  0  0
  -21.6635  -26.7440   22.1212 H   0  0  0  0  0  0
  -19.6906  -25.6296   21.1235 H   0  0  0  0  0  0
  -19.6683  -27.3197   20.6745 H   0  0  0  0  0  0
  -17.4193  -26.6667   21.4022 H   0  0  0  0  0  0
  -18.0319  -26.0060   22.9013 H   0  0  0  0  0  0
  -19.7928  -30.7251   24.2282 H   0  0  0  0  0  0
  -17.5011  -31.6265   24.5157 H   0  0  0  0  0  0
  -15.5347  -30.2987   23.7646 H   0  0  0  0  0  0
  -15.8660  -28.0822   22.7058 H   0  0  0  0  0  0
  -24.5912  -30.7060   25.7806 H   0  0  0  0  0  0
  -24.8933  -32.2867   26.4926 H   0  0  0  0  0  0
  -25.8092  -30.8874   27.0225 H   0  0  0  0  0  0
  -26.2854  -29.6809   24.1159 H   0  0  0  0  0  0
  -27.4049  -29.7270   25.4586 H   0  0  0  0  0  0
  -27.8706  -30.4344   23.9290 H   0  0  0  0  0  0
  -27.2657  -33.3610   26.2104 H   0  0  0  0  0  0
  -28.3845  -32.6916   25.0320 H   0  0  0  0  0  0
  -28.0734  -31.8436   26.5390 H   0  0  0  0  0  0
  -28.2601  -38.0110   24.7520 H   0  0  0  0  0  0
  -28.1083  -36.2643   24.6276 H   0  0  0  0  0  0
  -27.2303  -37.1446   25.8865 H   0  0  0  0  0  0
  -20.9310  -29.8767   21.6953 H   0  0  0  0  0  0
  -26.0184  -38.2872   24.1412 H   0  0  0  0  0  0
  -28.1118  -19.1063   21.4245 H   0  0  0  0  0  0
  -27.9142  -21.5376   21.1977 H   0  0  0  0  0  0
  -29.4369  -16.0659   24.2466 H   0  0  0  0  0  0
  -31.0719  -16.6548   24.5304 H   0  0  0  0  0  0
  -31.0428  -17.9322   22.4877 H   0  0  0  0  0  0
  -29.3879  -18.1329   23.0611 H   0  0  0  0  0  0
  -30.2451  -25.1141   18.8708 H   0  0  0  0  0  0
  -31.2953  -24.0161   19.9078 H   0  0  0  0  0  0
  -31.9771  -15.1779   22.8827 H   0  0  0  0  0  0
  -30.6163  -14.1956   23.4186 H   0  0  0  0  0  0
  -28.4663  -23.3543   18.7588 H   0  0  0  0  0  0
  -28.5754  -16.4050   21.6087 H   0  0  0  0  0  0
  -29.5421  -23.8976   21.6288 H   0  0  0  0  0  0
  -32.1502  -18.0302   18.9978 H   0  0  0  0  0  0
  -32.6645  -19.5441   18.3323 H   0  0  0  0  0  0
  -31.4540  -18.5842   17.4715 H   0  0  0  0  0  0
  -30.8104  -22.6342   17.5590 H   0  0  0  0  0  0
  -31.5432  -21.1343   17.1055 H   0  0  0  0  0  0
  -32.2664  -22.0953   18.4003 H   0  0  0  0  0  0
  -27.9456  -25.5184   21.8272 H   0  0  0  0  0  0
  -27.2048  -24.8518   20.4092 H   0  0  0  0  0  0
  1 25  1  0  0  0
  1 30  2  0  0  0
  1 88  1  0  0  0
  2  3  1  0  0  0
  2 25  1  0  0  0
  2 90  1  0  0  0
  2 91  1  0  0  0
  3  4  1  0  0  0
  3 92  1  0  0  0
  3 93  1  0  0  0
  4  5  1  0  0  0
  4 94  1  0  0  0
  4 95  1  0  0  0
  5  6  1  0  0  0
  5 26  1  0  0  0
  5 96  1  0  0  0
  6 25  1  0  0  0
  6 97  1  0  0  0
  6 98  1  0  0  0
  7  8  2  0  0  0
  7 26  1  0  0  0
  7 29  1  0  0  0
  8  9  1  0  0  0
  8 22  1  0  0  0
  9 10  1  0  0  0
  9 27  2  0  0  0
 10 11  2  0  0  0
 10 15  1  0  0  0
 11 12  1  0  0  0
 11 99  1  0  0  0
 12 13  2  0  0  0
 12100  1  0  0  0
 13 14  1  0  0  0
 13 31  1  0  0  0
 14 15  2  0  0  0
 14101  1  0  0  0
 15102  1  0  0  0
 16 17  2  0  0  0
 16 21  1  0  0  0
 16 31  1  0  0  0
 17 18  1  0  0  0
 17103  1  0  0  0
 18 19  2  0  0  0
 18104  1  0  0  0
 19 20  1  0  0  0
 19 24  1  0  0  0
 20 21  2  0  0  0
 20105  1  0  0  0
 21 23  1  0  0  0
 22 28  1  0  0  0
 22 32  2  0  0  0
 26 27  1  0  0  0
 28106  1  0  0  0
 28107  1  0  0  0
 29108  1  0  0  0
 29109  1  0  0  0
 33 34  1  0  0  0
 33 66  1  0  0  0
 33 70  2  0  0  0
 34 36  1  0  0  0
 34 59  1  0  0  0
 34110  1  0  0  0
 35 44  2  0  0  0
 35 45  1  0  0  0
 35 68  1  0  0  0
 36 56  1  0  0  0
 36111  1  0  0  0
 37 39  1  0  0  0
 37 47  1  0  0  0
 37 66  1  0  0  0
 37112  1  0  0  0
 38 43  2  0  0  0
 38 46  1  0  0  0
 38 47  1  0  0  0
 39 64  1  0  0  0
 39 67  2  0  0  0
 40 52  1  0  0  0
 40 53  2  0  0  0
 40 58  1  0  0  0
 41113  1  0  0  0
 41114  1  0  0  0
 41115  1  0  0  0
 41 48  1  0  0  0
 42 43  1  0  0  0
 42 66  1  0  0  0
 42116  1  0  0  0
 42117  1  0  0  0
 43 44  1  0  0  0
 44118  1  0  0  0
 45 46  2  0  0  0
 45119  1  0  0  0
 46120  1  0  0  0
 47121  1  0  0  0
 47122  1  0  0  0
 48 56  1  0  0  0
 48 65  1  0  0  0
 48123  1  0  0  0
 49 50  1  0  0  0
 49 53  1  0  0  0
 49 64  1  0  0  0
 49124  1  0  0  0
 50 51  1  0  0  0
 50125  1  0  0  0
 50126  1  0  0  0
 51 52  1  0  0  0
 51127  1  0  0  0
 51128  1  0  0  0
 52129  1  0  0  0
 52130  1  0  0  0
 53 54  1  0  0  0
 54 55  2  0  0  0
 54131  1  0  0  0
 55 57  1  0  0  0
 55132  1  0  0  0
 56 69  2  0  0  0
 57 58  2  0  0  0
 57133  1  0  0  0
 58134  1  0  0  0
 59 60  1  0  0  0
 59 61  1  0  0  0
 59 62  1  0  0  0
 60135  1  0  0  0
 60136  1  0  0  0
 60137  1  0  0  0
 61138  1  0  0  0
 61139  1  0  0  0
 61140  1  0  0  0
 62141  1  0  0  0
 62142  1  0  0  0
 62143  1  0  0  0
 63 65  1  0  0  0
 63144  1  0  0  0
 63145  1  0  0  0
 63146  1  0  0  0
 64147  1  0  0  0
 65148  1  0  0  0
 68 87  1  0  0  0
 71 72  2  0  0  0
 71 73  1  0  0  0
 71149  1  0  0  0
 72 74  1  0  0  0
 72150  1  0  0  0
 73 75  2  0  0  0
 73 77  1  0  0  0
 74 76  2  0  0  0
 74 82  1  0  0  0
 75 76  1  0  0  0
 75 85  1  0  0  0
 76 86  1  0  0  0
 77 89  2  0  0  0
 77 83  1  0  0  0
 78 79  1  0  0  0
 78 81  1  0  0  0
 78151  1  0  0  0
 78152  1  0  0  0
 79 83  1  0  0  0
 79153  1  0  0  0
 79154  1  0  0  0
 80 82  1  0  0  0
 80 84  1  0  0  0
 80155  1  0  0  0
 80156  1  0  0  0
 81 88  1  0  0  0
 81157  1  0  0  0
 81158  1  0  0  0
 82 84  1  0  0  0
 82159  1  0  0  0
 83 88  1  0  0  0
 83160  1  0  0  0
 84 87  1  0  0  0
 84161  1  0  0  0
 85162  1  0  0  0
 85163  1  0  0  0
 85164  1  0  0  0
 86165  1  0  0  0
 86166  1  0  0  0
 86167  1  0  0  0
 87168  1  0  0  0
 87169  1  0  0  0
M  ISO  4   1 100  68 101  87 101  88 100
M  END
> <chiral flag>
0

> <version>
0

> <s_m_source_file>
/data/baiqing/PycharmProjects/Reinvent-master-3.2/result/LINK_invent/BTK/process_docking_weight1_custom_sum_contain_oxygen_bond_distance_aromatic_linkinvent_7_9_3/rearranged_h_0169.sdf

> <i_m_source_file_index>
84

> <r_mmod_Potential_Energy-OPLS-2005>
194.821868896484

> <r_mmod_Stretch_Energy-OPLS-2005>
51.9095191955566

> <r_mmod_Bend_Energy-OPLS-2005>
131.823684692383

> <r_mmod_Torsional_Energy-OPLS-2005>
372.258422851562

> <r_mmod_Improper_Torsional_Energy-OPLS-2005>
4.89193344116211

> <r_mmod_Van_der_Waal_Energy-OPLS-2005>
154.913375854492

> <r_mmod_Electrostatic_Energy-OPLS-2005>
-334.656127929688

> <r_mmod_Solvation_Energy-OPLS-2005>
-200.022003173828

> <b_mmod_Minimization_Converged-OPLS-2005>
0

> <r_mmod_RMS_Derivative-OPLS-2005>
0.844714403152466

$$$$
84
                    3D
 Structure written by MMmdl.
162172  0  0  1  0            999 V2000
  -30.5241  -15.1258   20.3876 C   0  0  0  0  0  0
  -30.4302  -12.7134   19.5090 C   0  0  0  0  0  0
  -29.5275  -12.5590   18.2652 C   0  0  0  0  0  0
  -28.0675  -12.3147   18.6855 C   0  0  0  0  0  0
  -27.6158  -13.2719   19.8219 C   0  0  2  0  0  0
  -28.6566  -13.4001   20.9538 C   0  0  0  0  0  0
  -25.2436  -13.8256   20.5770 C   0  0  0  0  0  0
  -24.1765  -13.0458   20.9247 C   0  0  0  0  0  0
  -24.6405  -11.6953   20.8763 C   0  0  0  0  0  0
  -23.9102  -10.4307   21.0391 C   0  0  0  0  0  0
  -24.3650   -9.4219   21.9172 C   0  0  0  0  0  0
  -23.6323   -8.2249   22.0742 C   0  0  0  0  0  0
  -22.4308   -8.0279   21.3531 C   0  0  0  0  0  0
  -21.9955   -9.0258   20.4624 C   0  0  0  0  0  0
  -22.7277  -10.2134   20.3035 C   0  0  0  0  0  0
  -21.6863   -6.0736   22.5276 C   0  0  0  0  0  0
  -21.4004   -6.5635   23.8210 C   0  0  0  0  0  0
  -21.3666   -5.6791   24.9175 C   0  0  0  0  0  0
  -21.6045   -4.3047   24.7218 C   0  0  0  0  0  0
  -21.8823   -3.8136   23.4340 C   0  0  0  0  0  0
  -21.9199   -4.6960   22.3402 C   0  0  0  0  0  0
  -22.7782  -13.5218   21.1873 C   0  0  0  0  0  0
  -22.1665   -4.2155   21.0973 F   0  0  0  0  0  0
  -21.5637   -3.4533   25.7729 F   0  0  0  0  0  0
  -29.9017  -13.8612   20.3246 N   0  0  0  0  0  0
  -26.2846  -12.9519   20.3230 N   0  0  0  0  0  0
  -25.9347  -11.6625   20.5728 N   0  0  0  0  0  0
  -22.0409  -12.8224   22.0422 N   0  0  0  0  0  0
  -25.4156  -15.1985   20.4257 N   0  0  0  0  0  0
  -31.7412  -15.0868   20.1650 O   0  0  0  0  0  0
  -21.6657   -6.8888   21.4238 O   0  0  0  0  0  0
  -22.3486  -14.5514   20.6690 O   0  0  0  0  0  0
  -24.6576  -31.8329   23.1788 C   0  0  0  0  0  0
  -25.9285  -32.4636   23.8231 C   0  0  1  0  0  0
  -27.2124  -27.0021   20.1685 C   0  0  0  0  0  0
  -25.5999  -33.8456   24.2151 N   0  0  0  0  0  0
  -23.4680  -30.4487   21.5275 C   0  0  2  0  0  0
  -24.9188  -28.8517   20.1154 C   0  0  0  0  0  0
  -22.7637  -29.4507   22.4817 C   0  0  0  0  0  0
  -18.0327  -28.1401   22.8473 C   0  0  0  0  0  0
  -24.1497  -36.7197   23.2648 C   0  0  0  0  0  0
  -26.0343  -30.6587   21.4026 C   0  0  0  0  0  0
  -26.1026  -29.2589   20.7438 C   0  0  0  0  0  0
  -27.2497  -28.3542   20.7474 C   0  0  0  0  0  0
  -26.0023  -26.7377   19.4876 C   0  0  0  0  0  0
  -24.8888  -27.6087   19.4686 C   0  0  0  0  0  0
  -23.7027  -29.7718   20.1518 C   0  0  0  0  0  0
  -25.4139  -36.2995   24.0311 C   0  0  1  0  0  0
  -20.5947  -28.3744   23.1211 C   0  0  2  0  0  0
  -20.6801  -26.9435   22.5406 C   0  0  0  0  0  0
  -19.5772  -26.6381   21.5216 C   0  0  0  0  0  0
  -18.1953  -26.7939   22.1625 C   0  0  0  0  0  0
  -19.1580  -28.8895   23.2825 C   0  0  0  0  0  0
  -18.9481  -30.1482   23.8868 C   0  0  0  0  0  0
  -17.6477  -30.6591   24.0556 C   0  0  0  0  0  0
  -25.9106  -34.9374   23.5043 C   0  0  0  0  0  0
  -16.5369  -29.9074   23.6347 C   0  0  0  0  0  0
  -16.7302  -28.6495   23.0376 C   0  0  0  0  0  0
  -26.4560  -31.6544   25.0727 C   0  0  0  0  0  0
  -25.3700  -31.3742   26.1380 C   0  0  0  0  0  0
  -27.0452  -30.2929   24.6408 C   0  0  0  0  0  0
  -27.6092  -32.4310   25.7512 C   0  0  0  0  0  0
  -27.5571  -37.1764   24.8467 C   0  0  0  0  0  0
  -21.4315  -29.3052   22.3563 N   0  0  0  0  0  0
  -26.4284  -37.3719   23.9416 N   0  0  0  0  0  0
  -24.7404  -31.0042   22.0899 N   0  0  0  0  0  0
  -23.4205  -28.8082   23.3036 O   0  0  0  0  0  0
  -28.2216  -25.9252   20.2044 O   0  0  0  0  0  0
  -26.5702  -34.8886   22.4626 O   0  0  0  0  0  0
  -23.5664  -32.1286   23.6923 O   0  0  0  0  0  0
  -28.5342  -21.4738   20.7201 C   0  0  0  0  0  0
  -28.7058  -22.8791   20.1608 C   0  0  0  0  0  0
  -29.3904  -20.4340   20.1942 C   0  0  0  0  0  0
  -29.7150  -22.6061   19.2630 C   0  0  0  0  0  0
  -32.4288  -20.1400   19.1969 C   0  0  0  0  0  0
  -32.5441  -21.4713   18.5106 C   0  0  0  0  0  0
  -29.0801  -17.4457   21.0818 C   0  0  0  0  0  0
  -30.1977  -17.6217   19.3552 C   0  0  0  0  0  0
  -29.7638  -18.7579   20.4086 C   0  0  0  0  0  0
  -31.2272  -20.7112   18.4679 C   0  0  0  0  0  0
  -27.5164  -21.1719   21.7920 C   0  0  0  0  0  0
  -30.3080  -23.5913   18.2973 C   0  0  0  0  0  0
  -27.8386  -24.3646   20.3714 C   0  0  0  0  0  0
  -30.1558  -21.2426   19.3181 N   0  0  0  0  0  0
  -29.8370  -16.4131   20.2253 N   0  0  0  0  0  0
  -31.4613  -12.8726   19.1933 H   0  0  0  0  0  0
  -30.4450  -11.7913   20.0938 H   0  0  0  0  0  0
  -29.8853  -11.7413   17.6390 H   0  0  0  0  0  0
  -29.5891  -13.4631   17.6576 H   0  0  0  0  0  0
  -27.9906  -11.2810   19.0239 H   0  0  0  0  0  0
  -27.4038  -12.3985   17.8228 H   0  0  0  0  0  0
  -27.5468  -14.2545   19.3540 H   0  0  0  0  0  0
  -28.7925  -12.4534   21.4769 H   0  0  0  0  0  0
  -28.3294  -14.1283   21.6981 H   0  0  0  0  0  0
  -25.2775   -9.5698   22.4781 H   0  0  0  0  0  0
  -24.0015   -7.4641   22.7473 H   0  0  0  0  0  0
  -21.0874   -8.8766   19.8949 H   0  0  0  0  0  0
  -22.3708  -10.9678   19.6148 H   0  0  0  0  0  0
  -21.1974   -7.6140   23.9727 H   0  0  0  0  0  0
  -21.1495   -6.0501   25.9085 H   0  0  0  0  0  0
  -22.0601   -2.7593   23.2839 H   0  0  0  0  0  0
  -22.4021  -11.9911   22.4858 H   0  0  0  0  0  0
  -21.0999  -13.1201   22.2547 H   0  0  0  0  0  0
  -24.6567  -15.8613   20.5427 H   0  0  0  0  0  0
  -26.2754  -15.6292   20.1093 H   0  0  0  0  0  0
  -26.7359  -32.5182   23.0948 H   0  0  0  0  0  0
  -25.0108  -33.9541   25.0280 H   0  0  0  0  0  0
  -22.7788  -31.2797   21.3659 H   0  0  0  0  0  0
  -23.3791  -35.9489   23.3282 H   0  0  0  0  0  0
  -24.3572  -36.8856   22.2063 H   0  0  0  0  0  0
  -23.7193  -37.6361   23.6708 H   0  0  0  0  0  0
  -26.2140  -31.4081   20.6309 H   0  0  0  0  0  0
  -26.8941  -30.7079   22.0583 H   0  0  0  0  0  0
  -28.1490  -28.6641   21.2618 H   0  0  0  0  0  0
  -25.8794  -25.8048   18.9599 H   0  0  0  0  0  0
  -23.9922  -27.2948   18.9529 H   0  0  0  0  0  0
  -23.8546  -30.5444   19.3978 H   0  0  0  0  0  0
  -22.8124  -29.2260   19.8353 H   0  0  0  0  0  0
  -25.1328  -36.1813   25.0798 H   0  0  0  0  0  0
  -21.0036  -28.3332   24.1330 H   0  0  0  0  0  0
  -20.5689  -26.2357   23.3629 H   0  0  0  0  0  0
  -21.6658  -26.7423   22.1196 H   0  0  0  0  0  0
  -19.6925  -25.6280   21.1271 H   0  0  0  0  0  0
  -19.6705  -27.3164   20.6723 H   0  0  0  0  0  0
  -17.4223  -26.6699   21.4024 H   0  0  0  0  0  0
  -18.0342  -26.0078   22.9019 H   0  0  0  0  0  0
  -19.7957  -30.7310   24.2221 H   0  0  0  0  0  0
  -17.5026  -31.6272   24.5148 H   0  0  0  0  0  0
  -15.5366  -30.2962   23.7688 H   0  0  0  0  0  0
  -15.8707  -28.0792   22.7123 H   0  0  0  0  0  0
  -24.5918  -30.7060   25.7664 H   0  0  0  0  0  0
  -24.8848  -32.2913   26.4735 H   0  0  0  0  0  0
  -25.7942  -30.8951   27.0210 H   0  0  0  0  0  0
  -26.3108  -29.6608   24.1411 H   0  0  0  0  0  0
  -27.4008  -29.7282   25.5032 H   0  0  0  0  0  0
  -27.9040  -30.4134   23.9804 H   0  0  0  0  0  0
  -27.2725  -33.3656   26.2000 H   0  0  0  0  0  0
  -28.3958  -32.6774   25.0370 H   0  0  0  0  0  0
  -28.0700  -31.8484   26.5492 H   0  0  0  0  0  0
  -28.2583  -38.0075   24.7550 H   0  0  0  0  0  0
  -28.1091  -36.2611   24.6275 H   0  0  0  0  0  0
  -27.2291  -37.1350   25.8870 H   0  0  0  0  0  0
  -20.9561  -29.8727   21.6688 H   0  0  0  0  0  0
  -26.0150  -38.2783   24.1436 H   0  0  0  0  0  0
  -32.4388  -20.1523   20.2842 H   0  0  0  0  0  0
  -32.9531  -19.3064   18.7335 H   0  0  0  0  0  0
  -33.1211  -21.5155   17.5895 H   0  0  0  0  0  0
  -32.6490  -22.3361   19.1625 H   0  0  0  0  0  0
  -28.0027  -17.4151   20.9216 H   0  0  0  0  0  0
  -29.2841  -17.3679   22.1504 H   0  0  0  0  0  0
  -31.2534  -17.6605   19.0907 H   0  0  0  0  0  0
  -29.6092  -17.6697   18.4386 H   0  0  0  0  0  0
  -30.6538  -18.8477   21.0311 H   0  0  0  0  0  0
  -30.8715  -20.2679   17.5388 H   0  0  0  0  0  0
  -26.6196  -21.7797   21.6702 H   0  0  0  0  0  0
  -27.9374  -21.3779   22.7778 H   0  0  0  0  0  0
  -27.2208  -20.1212   21.7620 H   0  0  0  0  0  0
  -29.5826  -24.3564   18.0178 H   0  0  0  0  0  0
  -30.6353  -23.1173   17.3711 H   0  0  0  0  0  0
  -31.1611  -24.1053   18.7394 H   0  0  0  0  0  0
  -27.4302  -24.3012   21.3800 H   0  0  0  0  0  0
  -26.9756  -24.1944   19.7324 H   0  0  0  0  0  0
  1 25  1  0  0  0
  1 30  2  0  0  0
  1 85  1  0  0  0
  2  3  1  0  0  0
  2 25  1  0  0  0
  2 86  1  0  0  0
  2 87  1  0  0  0
  3  4  1  0  0  0
  3 88  1  0  0  0
  3 89  1  0  0  0
  4  5  1  0  0  0
  4 90  1  0  0  0
  4 91  1  0  0  0
  5  6  1  0  0  0
  5 26  1  0  0  0
  5 92  1  0  0  0
  6 25  1  0  0  0
  6 93  1  0  0  0
  6 94  1  0  0  0
  7  8  2  0  0  0
  7 26  1  0  0  0
  7 29  1  0  0  0
  8  9  1  0  0  0
  8 22  1  0  0  0
  9 10  1  0  0  0
  9 27  2  0  0  0
 10 11  2  0  0  0
 10 15  1  0  0  0
 11 12  1  0  0  0
 11 95  1  0  0  0
 12 13  2  0  0  0
 12 96  1  0  0  0
 13 14  1  0  0  0
 13 31  1  0  0  0
 14 15  2  0  0  0
 14 97  1  0  0  0
 15 98  1  0  0  0
 16 17  2  0  0  0
 16 21  1  0  0  0
 16 31  1  0  0  0
 17 18  1  0  0  0
 17 99  1  0  0  0
 18 19  2  0  0  0
 18100  1  0  0  0
 19 20  1  0  0  0
 19 24  1  0  0  0
 20 21  2  0  0  0
 20101  1  0  0  0
 21 23  1  0  0  0
 22 28  1  0  0  0
 22 32  2  0  0  0
 26 27  1  0  0  0
 28102  1  0  0  0
 28103  1  0  0  0
 29104  1  0  0  0
 29105  1  0  0  0
 33 34  1  0  0  0
 33 66  1  0  0  0
 33 70  2  0  0  0
 34 36  1  0  0  0
 34 59  1  0  0  0
 34106  1  0  0  0
 35 44  2  0  0  0
 35 45  1  0  0  0
 35 68  1  0  0  0
 36 56  1  0  0  0
 36107  1  0  0  0
 37 39  1  0  0  0
 37 47  1  0  0  0
 37 66  1  0  0  0
 37108  1  0  0  0
 38 43  2  0  0  0
 38 46  1  0  0  0
 38 47  1  0  0  0
 39 64  1  0  0  0
 39 67  2  0  0  0
 40 52  1  0  0  0
 40 53  2  0  0  0
 40 58  1  0  0  0
 41109  1  0  0  0
 41110  1  0  0  0
 41111  1  0  0  0
 41 48  1  0  0  0
 42 43  1  0  0  0
 42 66  1  0  0  0
 42112  1  0  0  0
 42113  1  0  0  0
 43 44  1  0  0  0
 44114  1  0  0  0
 45 46  2  0  0  0
 45115  1  0  0  0
 46116  1  0  0  0
 47117  1  0  0  0
 47118  1  0  0  0
 48 56  1  0  0  0
 48 65  1  0  0  0
 48119  1  0  0  0
 49 50  1  0  0  0
 49 53  1  0  0  0
 49 64  1  0  0  0
 49120  1  0  0  0
 50 51  1  0  0  0
 50121  1  0  0  0
 50122  1  0  0  0
 51 52  1  0  0  0
 51123  1  0  0  0
 51124  1  0  0  0
 52125  1  0  0  0
 52126  1  0  0  0
 53 54  1  0  0  0
 54 55  2  0  0  0
 54127  1  0  0  0
 55 57  1  0  0  0
 55128  1  0  0  0
 56 69  2  0  0  0
 57 58  2  0  0  0
 57129  1  0  0  0
 58130  1  0  0  0
 59 60  1  0  0  0
 59 61  1  0  0  0
 59 62  1  0  0  0
 60131  1  0  0  0
 60132  1  0  0  0
 60133  1  0  0  0
 61134  1  0  0  0
 61135  1  0  0  0
 61136  1  0  0  0
 62137  1  0  0  0
 62138  1  0  0  0
 62139  1  0  0  0
 63 65  1  0  0  0
 63140  1  0  0  0
 63141  1  0  0  0
 63142  1  0  0  0
 64143  1  0  0  0
 65144  1  0  0  0
 68 83  1  0  0  0
 71 72  1  0  0  0
 71 73  2  0  0  0
 71 81  1  0  0  0
 72 74  2  0  0  0
 72 83  1  0  0  0
 73 84  1  0  0  0
 73 79  1  0  0  0
 74 82  1  0  0  0
 74 84  1  0  0  0
 75 76  1  0  0  0
 75 80  1  0  0  0
 75145  1  0  0  0
 75146  1  0  0  0
 76 80  1  0  0  0
 76147  1  0  0  0
 76148  1  0  0  0
 77 79  1  0  0  0
 77 85  1  0  0  0
 77149  1  0  0  0
 77150  1  0  0  0
 78 79  1  0  0  0
 78 85  1  0  0  0
 78151  1  0  0  0
 78152  1  0  0  0
 79153  1  0  0  0
 80 84  1  0  0  0
 80154  1  0  0  0
 81155  1  0  0  0
 81156  1  0  0  0
 81157  1  0  0  0
 82158  1  0  0  0
 82159  1  0  0  0
 82160  1  0  0  0
 83161  1  0  0  0
 83162  1  0  0  0
M  ISO  4   1 100  68 101  83 101  85 100
M  END
> <chiral flag>
0

> <version>
0

> <s_m_source_file>
/data/baiqing/PycharmProjects/Reinvent-master-3.2/result/LINK_invent/BTK/process_docking_weight1_custom_sum_contain_oxygen_bond_distance_aromatic_linkinvent_7_9_3/rearranged_h_0169.sdf

> <i_m_source_file_index>
85

> <r_mmod_Potential_Energy-OPLS-2005>
1046.60424804688

> <r_mmod_Stretch_Energy-OPLS-2005>
400.384521484375

> <r_mmod_Bend_Energy-OPLS-2005>
386.241149902344

> <r_mmod_Torsional_Energy-OPLS-2005>
341.377563476562

> <r_mmod_Improper_Torsional_Energy-OPLS-2005>
19.3964900970459

> <r_mmod_Van_der_Waal_Energy-OPLS-2005>
105.31201171875

> <r_mmod_Electrostatic_Energy-OPLS-2005>
-337.462341308594

> <r_mmod_Solvation_Energy-OPLS-2005>
-203.091186523438

> <b_mmod_Minimization_Converged-OPLS-2005>
0

> <r_mmod_RMS_Derivative-OPLS-2005>
2.736168384552

$$$$
85
                    3D
 Structure written by MMmdl.
157166  0  0  1  0            999 V2000
  -30.6840  -14.8266   20.4466 C   0  0  0  0  0  0
  -30.4059  -12.5225   19.4859 C   0  0  0  0  0  0
  -29.4979  -12.4975   18.2411 C   0  0  0  0  0  0
  -28.0353  -12.2906   18.6674 C   0  0  0  0  0  0
  -27.6210  -13.2332   19.8258 C   0  0  2  0  0  0
  -28.6686  -13.2882   20.9630 C   0  0  0  0  0  0
  -25.2431  -13.8179   20.5702 C   0  0  0  0  0  0
  -24.1752  -13.0418   20.9244 C   0  0  0  0  0  0
  -24.6360  -11.6905   20.8779 C   0  0  0  0  0  0
  -23.9051  -10.4281   21.0425 C   0  0  0  0  0  0
  -24.3610   -9.4196   21.9193 C   0  0  0  0  0  0
  -23.6288   -8.2230   22.0756 C   0  0  0  0  0  0
  -22.4270   -8.0272   21.3548 C   0  0  0  0  0  0
  -21.9904   -9.0245   20.4650 C   0  0  0  0  0  0
  -22.7229  -10.2125   20.3065 C   0  0  0  0  0  0
  -21.6851   -6.0728   22.5277 C   0  0  0  0  0  0
  -21.4014   -6.5634   23.8209 C   0  0  0  0  0  0
  -21.3660   -5.6790   24.9172 C   0  0  0  0  0  0
  -21.6043   -4.3051   24.7225 C   0  0  0  0  0  0
  -21.8819   -3.8142   23.4347 C   0  0  0  0  0  0
  -21.9192   -4.6957   22.3402 C   0  0  0  0  0  0
  -22.7777  -13.5200   21.1894 C   0  0  0  0  0  0
  -22.1661   -4.2143   21.0980 F   0  0  0  0  0  0
  -21.5631   -3.4536   25.7739 F   0  0  0  0  0  0
  -29.9513  -13.6502   20.3501 N   0  0  0  0  0  0
  -26.2837  -12.9390   20.3224 N   0  0  0  0  0  0
  -25.9284  -11.6538   20.5765 N   0  0  0  0  0  0
  -22.0432  -12.8191   22.0453 N   0  0  0  0  0  0
  -25.4061  -15.1900   20.4087 N   0  0  0  0  0  0
  -31.8888  -14.7340   20.1927 O   0  0  0  0  0  0
  -21.6636   -6.8869   21.4238 O   0  0  0  0  0  0
  -22.3463  -14.5503   20.6733 O   0  0  0  0  0  0
  -24.6357  -31.8513   23.1952 C   0  0  0  0  0  0
  -25.9164  -32.4731   23.8310 C   0  0  1  0  0  0
  -27.2149  -27.2158   20.1240 C   0  0  0  0  0  0
  -25.5941  -33.8535   24.2230 N   0  0  0  0  0  0
  -23.4339  -30.4747   21.5396 C   0  0  2  0  0  0
  -24.8797  -28.9184   20.1060 C   0  0  0  0  0  0
  -22.7525  -29.4583   22.4887 C   0  0  0  0  0  0
  -18.0297  -28.1389   22.8482 C   0  0  0  0  0  0
  -24.1490  -36.7272   23.2641 C   0  0  0  0  0  0
  -25.9846  -30.7496   21.3821 C   0  0  0  0  0  0
  -26.0540  -29.3699   20.7199 C   0  0  0  0  0  0
  -27.2197  -28.5303   20.7202 C   0  0  0  0  0  0
  -26.0062  -26.8401   19.4929 C   0  0  0  0  0  0
  -24.8638  -27.6635   19.4828 C   0  0  0  0  0  0
  -23.6536  -29.8110   20.1551 C   0  0  0  0  0  0
  -25.4119  -36.3055   24.0322 C   0  0  1  0  0  0
  -20.5905  -28.3704   23.1255 C   0  0  2  0  0  0
  -20.6782  -26.9415   22.5406 C   0  0  0  0  0  0
  -19.5757  -26.6381   21.5210 C   0  0  0  0  0  0
  -18.1938  -26.7929   22.1625 C   0  0  0  0  0  0
  -19.1553  -28.8863   23.2863 C   0  0  0  0  0  0
  -18.9472  -30.1461   23.8886 C   0  0  0  0  0  0
  -17.6470  -30.6586   24.0562 C   0  0  0  0  0  0
  -25.9064  -34.9426   23.5081 C   0  0  0  0  0  0
  -16.5361  -29.9083   23.6333 C   0  0  0  0  0  0
  -16.7283  -28.6501   23.0353 C   0  0  0  0  0  0
  -26.4513  -31.6574   25.0721 C   0  0  0  0  0  0
  -25.3722  -31.3742   26.1434 C   0  0  0  0  0  0
  -27.0367  -30.2980   24.6249 C   0  0  0  0  0  0
  -27.6055  -32.4328   25.7500 C   0  0  0  0  0  0
  -27.5577  -37.1793   24.8466 C   0  0  0  0  0  0
  -21.4226  -29.3042   22.3634 N   0  0  0  0  0  0
  -26.4289  -37.3758   23.9407 N   0  0  0  0  0  0
  -24.7042  -31.0442   22.0946 N   0  0  0  0  0  0
  -23.4207  -28.8122   23.3000 O   0  0  0  0  0  0
  -28.2981  -26.2937   20.2278 O   0  0  0  0  0  0
  -26.5642  -34.8910   22.4656 O   0  0  0  0  0  0
  -23.5497  -32.1354   23.7224 O   0  0  0  0  0  0
  -27.6810  -22.4479   19.7010 C   0  0  0  0  0  0
  -28.5880  -23.5001   20.0164 C   0  0  0  0  0  0
  -29.7742  -22.9622   20.5923 C   0  0  0  0  0  0
  -29.0820  -20.7028   20.4101 C   0  0  0  0  0  0
  -30.6368  -18.7150   21.0384 C   0  0  0  0  0  0
  -28.4483  -18.1560   20.1826 C   0  0  0  0  0  0
  -31.0735  -17.3231   20.4094 C   0  0  0  0  0  0
  -28.7757  -16.6873   20.7706 C   0  0  0  0  0  0
  -30.9244  -23.8724   20.9695 C   0  0  0  0  0  0
  -28.3882  -25.0022   19.4397 C   0  0  0  0  0  0
  -27.9193  -21.1044   19.8915 N   0  0  0  0  0  0
  -29.9967  -21.6117   20.7816 N   0  0  0  0  0  0
  -29.3670  -19.2736   20.5371 N   0  0  0  0  0  0
  -30.1529  -16.1413   20.5593 N   0  0  0  0  0  0
  -31.4467  -12.6110   19.1709 H   0  0  0  0  0  0
  -30.3472  -11.5766   20.0267 H   0  0  0  0  0  0
  -29.8061  -11.7019   17.5615 H   0  0  0  0  0  0
  -29.5974  -13.4329   17.6879 H   0  0  0  0  0  0
  -27.9299  -11.2514   18.9816 H   0  0  0  0  0  0
  -27.3684  -12.4195   17.8140 H   0  0  0  0  0  0
  -27.5712  -14.2120   19.3560 H   0  0  0  0  0  0
  -28.7396  -12.3289   21.4773 H   0  0  0  0  0  0
  -28.3832  -14.0223   21.7175 H   0  0  0  0  0  0
  -25.2756   -9.5673   22.4767 H   0  0  0  0  0  0
  -24.0000   -7.4616   22.7470 H   0  0  0  0  0  0
  -21.0837   -8.8760   19.8953 H   0  0  0  0  0  0
  -22.3688  -10.9664   19.6175 H   0  0  0  0  0  0
  -21.2006   -7.6142   23.9708 H   0  0  0  0  0  0
  -21.1485   -6.0522   25.9073 H   0  0  0  0  0  0
  -22.0599   -2.7605   23.2849 H   0  0  0  0  0  0
  -22.4063  -11.9857   22.4840 H   0  0  0  0  0  0
  -21.1049  -13.1208   22.2667 H   0  0  0  0  0  0
  -24.6329  -15.8370   20.5191 H   0  0  0  0  0  0
  -26.2430  -15.6302   20.0528 H   0  0  0  0  0  0
  -26.7227  -32.5358   23.1042 H   0  0  0  0  0  0
  -25.0071  -33.9662   25.0366 H   0  0  0  0  0  0
  -22.7324  -31.2988   21.3931 H   0  0  0  0  0  0
  -23.3752  -35.9604   23.3302 H   0  0  0  0  0  0
  -24.3575  -36.8900   22.2055 H   0  0  0  0  0  0
  -23.7246  -37.6472   23.6672 H   0  0  0  0  0  0
  -26.1324  -31.5101   20.6141 H   0  0  0  0  0  0
  -26.8587  -30.7950   22.0202 H   0  0  0  0  0  0
  -28.1151  -28.8690   21.2222 H   0  0  0  0  0  0
  -25.8763  -25.8706   19.0419 H   0  0  0  0  0  0
  -23.9598  -27.3063   19.0088 H   0  0  0  0  0  0
  -23.7827  -30.5885   19.4014 H   0  0  0  0  0  0
  -22.7698  -29.2495   19.8470 H   0  0  0  0  0  0
  -25.1304  -36.1894   25.0815 H   0  0  0  0  0  0
  -21.0002  -28.3288   24.1375 H   0  0  0  0  0  0
  -20.5676  -26.2316   23.3616 H   0  0  0  0  0  0
  -21.6650  -26.7427   22.1205 H   0  0  0  0  0  0
  -19.6917  -25.6289   21.1246 H   0  0  0  0  0  0
  -19.6693  -27.3187   20.6735 H   0  0  0  0  0  0
  -17.4206  -26.6671   21.4031 H   0  0  0  0  0  0
  -18.0343  -26.0075   22.9027 H   0  0  0  0  0  0
  -19.7947  -30.7279   24.2253 H   0  0  0  0  0  0
  -17.5023  -31.6264   24.5167 H   0  0  0  0  0  0
  -15.5361  -30.2979   23.7661 H   0  0  0  0  0  0
  -15.8685  -28.0814   22.7075 H   0  0  0  0  0  0
  -24.5891  -30.7100   25.7757 H   0  0  0  0  0  0
  -24.8922  -32.2920   26.4841 H   0  0  0  0  0  0
  -25.8025  -30.8924   27.0222 H   0  0  0  0  0  0
  -26.2963  -29.6717   24.1258 H   0  0  0  0  0  0
  -27.4008  -29.7260   25.4793 H   0  0  0  0  0  0
  -27.8861  -30.4234   23.9530 H   0  0  0  0  0  0
  -27.2649  -33.3632   26.2055 H   0  0  0  0  0  0
  -28.3875  -32.6885   25.0337 H   0  0  0  0  0  0
  -28.0714  -31.8471   26.5435 H   0  0  0  0  0  0
  -28.2595  -38.0088   24.7503 H   0  0  0  0  0  0
  -28.1072  -36.2618   24.6304 H   0  0  0  0  0  0
  -27.2292  -37.1456   25.8868 H   0  0  0  0  0  0
  -20.9418  -29.8765   21.6834 H   0  0  0  0  0  0
  -26.0163  -38.2831   24.1406 H   0  0  0  0  0  0
  -26.7515  -22.6796   19.2025 H   0  0  0  0  0  0
  -31.4332  -19.4390   20.8592 H   0  0  0  0  0  0
  -30.5611  -18.6200   22.1226 H   0  0  0  0  0  0
  -27.4402  -18.4391   20.4896 H   0  0  0  0  0  0
  -28.4170  -18.1013   19.0936 H   0  0  0  0  0  0
  -32.0433  -17.0862   20.8506 H   0  0  0  0  0  0
  -31.2645  -17.4585   19.3436 H   0  0  0  0  0  0
  -28.0529  -16.0020   20.3488 H   0  0  0  0  0  0
  -28.5881  -16.6834   21.8451 H   0  0  0  0  0  0
  -30.5549  -24.7898   21.4277 H   0  0  0  0  0  0
  -31.5013  -24.1394   20.0845 H   0  0  0  0  0  0
  -31.5948  -23.3912   21.6819 H   0  0  0  0  0  0
  -27.6313  -24.9438   18.6631 H   0  0  0  0  0  0
  -29.2898  -25.1572   18.8463 H   0  0  0  0  0  0
  1 25  1  0  0  0
  1 30  2  0  0  0
  1 84  1  0  0  0
  2  3  1  0  0  0
  2 25  1  0  0  0
  2 85  1  0  0  0
  2 86  1  0  0  0
  3  4  1  0  0  0
  3 87  1  0  0  0
  3 88  1  0  0  0
  4  5  1  0  0  0
  4 89  1  0  0  0
  4 90  1  0  0  0
  5  6  1  0  0  0
  5 26  1  0  0  0
  5 91  1  0  0  0
  6 25  1  0  0  0
  6 92  1  0  0  0
  6 93  1  0  0  0
  7  8  2  0  0  0
  7 26  1  0  0  0
  7 29  1  0  0  0
  8  9  1  0  0  0
  8 22  1  0  0  0
  9 10  1  0  0  0
  9 27  2  0  0  0
 10 11  2  0  0  0
 10 15  1  0  0  0
 11 12  1  0  0  0
 11 94  1  0  0  0
 12 13  2  0  0  0
 12 95  1  0  0  0
 13 14  1  0  0  0
 13 31  1  0  0  0
 14 15  2  0  0  0
 14 96  1  0  0  0
 15 97  1  0  0  0
 16 17  2  0  0  0
 16 21  1  0  0  0
 16 31  1  0  0  0
 17 18  1  0  0  0
 17 98  1  0  0  0
 18 19  2  0  0  0
 18 99  1  0  0  0
 19 20  1  0  0  0
 19 24  1  0  0  0
 20 21  2  0  0  0
 20100  1  0  0  0
 21 23  1  0  0  0
 22 28  1  0  0  0
 22 32  2  0  0  0
 26 27  1  0  0  0
 28101  1  0  0  0
 28102  1  0  0  0
 29103  1  0  0  0
 29104  1  0  0  0
 33 34  1  0  0  0
 33 66  1  0  0  0
 33 70  2  0  0  0
 34 36  1  0  0  0
 34 59  1  0  0  0
 34105  1  0  0  0
 35 44  2  0  0  0
 35 45  1  0  0  0
 35 68  1  0  0  0
 36 56  1  0  0  0
 36106  1  0  0  0
 37 39  1  0  0  0
 37 47  1  0  0  0
 37 66  1  0  0  0
 37107  1  0  0  0
 38 43  2  0  0  0
 38 46  1  0  0  0
 38 47  1  0  0  0
 39 64  1  0  0  0
 39 67  2  0  0  0
 40 52  1  0  0  0
 40 53  2  0  0  0
 40 58  1  0  0  0
 41108  1  0  0  0
 41109  1  0  0  0
 41110  1  0  0  0
 41 48  1  0  0  0
 42 43  1  0  0  0
 42 66  1  0  0  0
 42111  1  0  0  0
 42112  1  0  0  0
 43 44  1  0  0  0
 44113  1  0  0  0
 45 46  2  0  0  0
 45114  1  0  0  0
 46115  1  0  0  0
 47116  1  0  0  0
 47117  1  0  0  0
 48 56  1  0  0  0
 48 65  1  0  0  0
 48118  1  0  0  0
 49 50  1  0  0  0
 49 53  1  0  0  0
 49 64  1  0  0  0
 49119  1  0  0  0
 50 51  1  0  0  0
 50120  1  0  0  0
 50121  1  0  0  0
 51 52  1  0  0  0
 51122  1  0  0  0
 51123  1  0  0  0
 52124  1  0  0  0
 52125  1  0  0  0
 53 54  1  0  0  0
 54 55  2  0  0  0
 54126  1  0  0  0
 55 57  1  0  0  0
 55127  1  0  0  0
 56 69  2  0  0  0
 57 58  2  0  0  0
 57128  1  0  0  0
 58129  1  0  0  0
 59 60  1  0  0  0
 59 61  1  0  0  0
 59 62  1  0  0  0
 60130  1  0  0  0
 60131  1  0  0  0
 60132  1  0  0  0
 61133  1  0  0  0
 61134  1  0  0  0
 61135  1  0  0  0
 62136  1  0  0  0
 62137  1  0  0  0
 62138  1  0  0  0
 63 65  1  0  0  0
 63139  1  0  0  0
 63140  1  0  0  0
 63141  1  0  0  0
 64142  1  0  0  0
 65143  1  0  0  0
 68 80  1  0  0  0
 71 72  2  0  0  0
 71 81  1  0  0  0
 71144  1  0  0  0
 72 73  1  0  0  0
 72 80  1  0  0  0
 73 79  1  0  0  0
 73 82  2  0  0  0
 74 81  2  0  0  0
 74 82  1  0  0  0
 74 83  1  0  0  0
 75 77  1  0  0  0
 75 83  1  0  0  0
 75145  1  0  0  0
 75146  1  0  0  0
 76 78  1  0  0  0
 76 83  1  0  0  0
 76147  1  0  0  0
 76148  1  0  0  0
 77 84  1  0  0  0
 77149  1  0  0  0
 77150  1  0  0  0
 78 84  1  0  0  0
 78151  1  0  0  0
 78152  1  0  0  0
 79153  1  0  0  0
 79154  1  0  0  0
 79155  1  0  0  0
 80156  1  0  0  0
 80157  1  0  0  0
M  ISO  4   1 100  68 101  80 101  84 100
M  END
> <chiral flag>
0

> <version>
0

> <s_m_source_file>
/data/baiqing/PycharmProjects/Reinvent-master-3.2/result/LINK_invent/BTK/process_docking_weight1_custom_sum_contain_oxygen_bond_distance_aromatic_linkinvent_7_9_3/rearranged_h_0169.sdf

> <i_m_source_file_index>
86

> <r_mmod_Potential_Energy-OPLS-2005>
-25.0718612670898

> <r_mmod_Stretch_Energy-OPLS-2005>
144.948043823242

> <r_mmod_Bend_Energy-OPLS-2005>
248.788650512695

> <r_mmod_Torsional_Energy-OPLS-2005>
326.020538330078

> <r_mmod_Improper_Torsional_Energy-OPLS-2005>
8.63849258422852

> <r_mmod_Van_der_Waal_Energy-OPLS-2005>
163.976959228516

> <r_mmod_Electrostatic_Energy-OPLS-2005>
-801.492858886719

> <r_mmod_Solvation_Energy-OPLS-2005>
-245.148208618164

> <b_mmod_Minimization_Converged-OPLS-2005>
0

> <r_mmod_RMS_Derivative-OPLS-2005>
0.396834969520569

$$$$
86
                    3D
 Structure written by MMmdl.
186196  0  0  1  0            999 V2000
  -30.6945  -14.6777   20.4779 C   0  0  0  0  0  0
  -30.4217  -12.4298   19.4393 C   0  0  0  0  0  0
  -29.4837  -12.4847   18.2162 C   0  0  0  0  0  0
  -28.0209  -12.2698   18.6508 C   0  0  0  0  0  0
  -27.6303  -13.1651   19.8491 C   0  0  2  0  0  0
  -28.7011  -13.1149   20.9734 C   0  0  0  0  0  0
  -25.2499  -13.8005   20.5704 C   0  0  0  0  0  0
  -24.1751  -13.0330   20.9255 C   0  0  0  0  0  0
  -24.6299  -11.6804   20.8845 C   0  0  0  0  0  0
  -23.8975  -10.4222   21.0478 C   0  0  0  0  0  0
  -24.3553   -9.4139   21.9233 C   0  0  0  0  0  0
  -23.6241   -8.2170   22.0773 C   0  0  0  0  0  0
  -22.4236   -8.0229   21.3543 C   0  0  0  0  0  0
  -21.9867   -9.0205   20.4651 C   0  0  0  0  0  0
  -22.7180  -10.2092   20.3083 C   0  0  0  0  0  0
  -21.6822   -6.0711   22.5286 C   0  0  0  0  0  0
  -21.3987   -6.5624   23.8217 C   0  0  0  0  0  0
  -21.3653   -5.6785   24.9184 C   0  0  0  0  0  0
  -21.6044   -4.3050   24.7236 C   0  0  0  0  0  0
  -21.8818   -3.8134   23.4358 C   0  0  0  0  0  0
  -21.9179   -4.6944   22.3410 C   0  0  0  0  0  0
  -22.7791  -13.5184   21.1877 C   0  0  0  0  0  0
  -22.1659   -4.2129   21.0989 F   0  0  0  0  0  0
  -21.5636   -3.4538   25.7751 F   0  0  0  0  0  0
  -29.9876  -13.4960   20.3711 N   0  0  0  0  0  0
  -26.2866  -12.9068   20.3379 N   0  0  0  0  0  0
  -25.9205  -11.6294   20.5898 N   0  0  0  0  0  0
  -22.0418  -12.8196   22.0441 N   0  0  0  0  0  0
  -25.4125  -15.1718   20.4016 N   0  0  0  0  0  0
  -31.9007  -14.6522   20.2318 O   0  0  0  0  0  0
  -21.6594   -6.8840   21.4243 O   0  0  0  0  0  0
  -22.3504  -14.5491   20.6713 O   0  0  0  0  0  0
  -24.6201  -31.8628   23.2063 C   0  0  0  0  0  0
  -25.9073  -32.4797   23.8375 C   0  0  1  0  0  0
  -27.2319  -27.3702   20.1121 C   0  0  0  0  0  0
  -25.5899  -33.8591   24.2309 N   0  0  0  0  0  0
  -23.4115  -30.4886   21.5448 C   0  0  2  0  0  0
  -24.8585  -28.9458   20.1120 C   0  0  0  0  0  0
  -22.7438  -29.4648   22.4929 C   0  0  0  0  0  0
  -18.0283  -28.1402   22.8477 C   0  0  0  0  0  0
  -24.1481  -36.7306   23.2635 C   0  0  0  0  0  0
  -25.9449  -30.8131   21.3646 C   0  0  0  0  0  0
  -26.0215  -29.4409   20.7133 C   0  0  0  0  0  0
  -27.2083  -28.6613   20.7078 C   0  0  0  0  0  0
  -26.0496  -26.9150   19.4832 C   0  0  0  0  0  0
  -24.8706  -27.6865   19.4904 C   0  0  0  0  0  0
  -23.6253  -29.8217   20.1599 C   0  0  0  0  0  0
  -25.4100  -36.3088   24.0336 C   0  0  1  0  0  0
  -20.5875  -28.3699   23.1287 C   0  0  2  0  0  0
  -20.6771  -26.9427   22.5407 C   0  0  0  0  0  0
  -19.5752  -26.6396   21.5205 C   0  0  0  0  0  0
  -18.1931  -26.7945   22.1622 C   0  0  0  0  0  0
  -19.1531  -28.8862   23.2887 C   0  0  0  0  0  0
  -18.9457  -30.1462   23.8913 C   0  0  0  0  0  0
  -17.6458  -30.6599   24.0571 C   0  0  0  0  0  0
  -25.9026  -34.9454   23.5122 C   0  0  0  0  0  0
  -16.5350  -29.9109   23.6317 C   0  0  0  0  0  0
  -16.7270  -28.6528   23.0332 C   0  0  0  0  0  0
  -26.4492  -31.6578   25.0712 C   0  0  0  0  0  0
  -25.3737  -31.3673   26.1438 C   0  0  0  0  0  0
  -27.0347  -30.3026   24.6101 C   0  0  0  0  0  0
  -27.6062  -32.4282   25.7497 C   0  0  0  0  0  0
  -27.5575  -37.1806   24.8461 C   0  0  0  0  0  0
  -21.4153  -29.3064   22.3684 N   0  0  0  0  0  0
  -26.4282  -37.3782   23.9413 N   0  0  0  0  0  0
  -24.6778  -31.0690   22.0980 N   0  0  0  0  0  0
  -23.4188  -28.8162   23.2971 O   0  0  0  0  0  0
  -28.3866  -26.5917   20.1722 O   0  0  0  0  0  0
  -26.5595  -34.8910   22.4684 O   0  0  0  0  0  0
  -23.5377  -32.1394   23.7426 O   0  0  0  0  0  0
  -29.2881  -20.4571   21.4340 C   0  0  0  0  0  0
  -29.7058  -19.8485   20.2328 C   0  0  0  0  0  0
  -29.1640  -21.8615   21.5766 C   0  0  0  0  0  0
  -30.0482  -20.7225   19.1531 C   0  0  0  0  0  0
  -29.4764  -22.7560   20.5053 C   0  0  0  0  0  0
  -29.9406  -22.1567   19.2869 C   0  0  0  0  0  0
  -28.3453  -17.6732   20.5608 C   0  0  0  0  0  0
  -28.6284  -16.1785   20.4417 C   0  0  0  0  0  0
  -29.5662  -23.0514   16.9884 C   0  0  0  0  0  0
  -31.7469  -23.1903   17.9719 C   0  0  0  0  0  0
  -29.6381  -18.2847   20.0791 C   0  0  2  0  0  0
  -30.6034  -23.3969   15.8989 C   0  0  2  0  0  0
  -31.7602  -24.0175   16.6862 C   0  0  2  0  0  0
  -30.6611  -17.3064   20.7511 C   0  0  2  0  0  0
  -28.6873  -22.3643   22.9316 C   0  0  0  0  0  0
  -30.5247  -20.0765   17.8494 C   0  0  0  0  0  0
  -32.0749  -17.5052   20.1766 C   0  0  0  0  0  0
  -30.7750  -25.0032   20.6792 C   0  0  0  0  0  0
  -28.3205  -25.1483   19.9330 C   0  0  0  0  0  0
  -29.3979  -24.3233   20.7312 C   0  0  1  0  0  0
  -30.3217  -23.0196   18.2410 N   0  0  0  0  0  0
  -30.0601  -15.9116   20.6558 N   0  0  0  0  0  0
  -30.0942  -24.3121   14.8918 N   0  0  0  0  0  0
  -33.0194  -23.9763   15.9380 N   0  3  0  0  0  0
  -31.4584  -12.5413   19.1166 H   0  0  0  0  0  0
  -30.3700  -11.4528   19.9227 H   0  0  0  0  0  0
  -29.7689  -11.7290   17.4838 H   0  0  0  0  0  0
  -29.5844  -13.4498   17.7164 H   0  0  0  0  0  0
  -27.9040  -11.2206   18.9264 H   0  0  0  0  0  0
  -27.3458  -12.4475   17.8117 H   0  0  0  0  0  0
  -27.5755  -14.1382   19.3965 H   0  0  0  0  0  0
  -28.7623  -12.1051   21.3801 H   0  0  0  0  0  0
  -28.4542  -13.7403   21.8298 H   0  0  0  0  0  0
  -25.2703   -9.5617   22.4807 H   0  0  0  0  0  0
  -23.9953   -7.4549   22.7489 H   0  0  0  0  0  0
  -21.0802   -8.8719   19.8942 H   0  0  0  0  0  0
  -22.3656  -10.9637   19.6189 H   0  0  0  0  0  0
  -21.1970   -7.6136   23.9709 H   0  0  0  0  0  0
  -21.1483   -6.0524   25.9086 H   0  0  0  0  0  0
  -22.0606   -2.7592   23.2866 H   0  0  0  0  0  0
  -22.4007  -11.9838   22.4810 H   0  0  0  0  0  0
  -21.1042  -13.1233   22.2650 H   0  0  0  0  0  0
  -24.6393  -15.8177   20.5179 H   0  0  0  0  0  0
  -26.2577  -15.6223   20.0783 H   0  0  0  0  0  0
  -26.7137  -32.5502   23.1128 H   0  0  0  0  0  0
  -25.0046  -33.9734   25.0455 H   0  0  0  0  0  0
  -22.7039  -31.3075   21.4024 H   0  0  0  0  0  0
  -23.3742  -35.9639   23.3275 H   0  0  0  0  0  0
  -24.3577  -36.8946   22.2054 H   0  0  0  0  0  0
  -23.7229  -37.6499   23.6668 H   0  0  0  0  0  0
  -26.0518  -31.5746   20.5905 H   0  0  0  0  0  0
  -26.8351  -30.8766   21.9791 H   0  0  0  0  0  0
  -28.1020  -29.0362   21.1870 H   0  0  0  0  0  0
  -26.0159  -25.9594   18.9819 H   0  0  0  0  0  0
  -23.9769  -27.3077   19.0135 H   0  0  0  0  0  0
  -23.7450  -30.5968   19.4029 H   0  0  0  0  0  0
  -22.7471  -29.2494   19.8559 H   0  0  0  0  0  0
  -25.1277  -36.1946   25.0833 H   0  0  0  0  0  0
  -20.9979  -28.3278   24.1403 H   0  0  0  0  0  0
  -20.5659  -26.2316   23.3607 H   0  0  0  0  0  0
  -21.6646  -26.7455   22.1212 H   0  0  0  0  0  0
  -19.6915  -25.6302   21.1247 H   0  0  0  0  0  0
  -19.6686  -27.3193   20.6724 H   0  0  0  0  0  0
  -17.4195  -26.6668   21.4038 H   0  0  0  0  0  0
  -18.0348  -26.0103   22.9035 H   0  0  0  0  0  0
  -19.7930  -30.7273   24.2299 H   0  0  0  0  0  0
  -17.5014  -31.6275   24.5180 H   0  0  0  0  0  0
  -15.5351  -30.3023   23.7629 H   0  0  0  0  0  0
  -15.8669  -28.0860   22.7032 H   0  0  0  0  0  0
  -24.5939  -30.6997   25.7755 H   0  0  0  0  0  0
  -24.8894  -32.2822   26.4862 H   0  0  0  0  0  0
  -25.8078  -30.8854   27.0208 H   0  0  0  0  0  0
  -26.2918  -29.6763   24.1155 H   0  0  0  0  0  0
  -27.4130  -29.7279   25.4566 H   0  0  0  0  0  0
  -27.8733  -30.4356   23.9262 H   0  0  0  0  0  0
  -27.2706  -33.3590   26.2078 H   0  0  0  0  0  0
  -28.3901  -32.6810   25.0345 H   0  0  0  0  0  0
  -28.0698  -31.8384   26.5415 H   0  0  0  0  0  0
  -28.2575  -38.0123   24.7535 H   0  0  0  0  0  0
  -28.1093  -36.2654   24.6262 H   0  0  0  0  0  0
  -27.2291  -37.1420   25.8863 H   0  0  0  0  0  0
  -20.9311  -29.8818   21.6932 H   0  0  0  0  0  0
  -26.0163  -38.2852   24.1438 H   0  0  0  0  0  0
  -29.0242  -19.8244   22.2697 H   0  0  0  0  0  0
  -28.1448  -17.9185   21.6032 H   0  0  0  0  0  0
  -27.4838  -17.9909   19.9719 H   0  0  0  0  0  0
  -28.4226  -15.9346   19.4020 H   0  0  0  0  0  0
  -27.9684  -15.6451   21.1183 H   0  0  0  0  0  0
  -29.0609  -22.1078   16.7769 H   0  0  0  0  0  0
  -28.7937  -23.8170   17.0493 H   0  0  0  0  0  0
  -32.2729  -23.6935   18.7815 H   0  0  0  0  0  0
  -32.2430  -22.2300   17.8351 H   0  0  0  0  0  0
  -29.6699  -18.0519   19.0176 H   0  0  0  0  0  0
  -30.9335  -22.4745   15.4180 H   0  0  0  0  0  0
  -31.5322  -25.0555   16.9387 H   0  0  0  0  0  0
  -30.7066  -17.5448   21.8158 H   0  0  0  0  0  0
  -28.5022  -21.5446   23.6272 H   0  0  0  0  0  0
  -27.7548  -22.9208   22.8284 H   0  0  0  0  0  0
  -29.4387  -23.0076   23.3905 H   0  0  0  0  0  0
  -29.7007  -19.5515   17.3663 H   0  0  0  0  0  0
  -31.3208  -19.3616   18.0546 H   0  0  0  0  0  0
  -30.9230  -20.7593   17.1082 H   0  0  0  0  0  0
  -32.1293  -17.1920   19.1334 H   0  0  0  0  0  0
  -32.8261  -16.9536   20.7409 H   0  0  0  0  0  0
  -32.3613  -18.5566   20.2205 H   0  0  0  0  0  0
  -31.5362  -24.3909   21.1632 H   0  0  0  0  0  0
  -30.7509  -25.9634   21.1941 H   0  0  0  0  0  0
  -31.0822  -25.2160   19.6586 H   0  0  0  0  0  0
  -27.3471  -24.7498   20.2215 H   0  0  0  0  0  0
  -28.4272  -24.9902   18.8631 H   0  0  0  0  0  0
  -29.0956  -24.4867   21.7601 H   0  0  0  0  0  0
  -29.6634  -25.1068   15.3546 H   0  0  0  0  0  0
  -29.3243  -23.8664   14.4022 H   0  0  0  0  0  0
  -33.2804  -23.0339   15.7150 H   0  0  0  0  0  0
  -33.7577  -24.4180   16.4545 H   0  0  0  0  0  0
  -32.8766  -24.4789   15.0797 H   0  0  0  0  0  0
  1 25  1  0  0  0
  1 30  2  0  0  0
  1 92  1  0  0  0
  2  3  1  0  0  0
  2 25  1  0  0  0
  2 95  1  0  0  0
  2 96  1  0  0  0
  3  4  1  0  0  0
  3 97  1  0  0  0
  3 98  1  0  0  0
  4  5  1  0  0  0
  4 99  1  0  0  0
  4100  1  0  0  0
  5  6  1  0  0  0
  5 26  1  0  0  0
  5101  1  0  0  0
  6 25  1  0  0  0
  6102  1  0  0  0
  6103  1  0  0  0
  7  8  2  0  0  0
  7 26  1  0  0  0
  7 29  1  0  0  0
  8  9  1  0  0  0
  8 22  1  0  0  0
  9 10  1  0  0  0
  9 27  2  0  0  0
 10 11  2  0  0  0
 10 15  1  0  0  0
 11 12  1  0  0  0
 11104  1  0  0  0
 12 13  2  0  0  0
 12105  1  0  0  0
 13 14  1  0  0  0
 13 31  1  0  0  0
 14 15  2  0  0  0
 14106  1  0  0  0
 15107  1  0  0  0
 16 17  2  0  0  0
 16 21  1  0  0  0
 16 31  1  0  0  0
 17 18  1  0  0  0
 17108  1  0  0  0
 18 19  2  0  0  0
 18109  1  0  0  0
 19 20  1  0  0  0
 19 24  1  0  0  0
 20 21  2  0  0  0
 20110  1  0  0  0
 21 23  1  0  0  0
 22 28  1  0  0  0
 22 32  2  0  0  0
 26 27  1  0  0  0
 28111  1  0  0  0
 28112  1  0  0  0
 29113  1  0  0  0
 29114  1  0  0  0
 33 34  1  0  0  0
 33 66  1  0  0  0
 33 70  2  0  0  0
 34 36  1  0  0  0
 34 59  1  0  0  0
 34115  1  0  0  0
 35 44  2  0  0  0
 35 45  1  0  0  0
 35 68  1  0  0  0
 36 56  1  0  0  0
 36116  1  0  0  0
 37 39  1  0  0  0
 37 47  1  0  0  0
 37 66  1  0  0  0
 37117  1  0  0  0
 38 43  2  0  0  0
 38 46  1  0  0  0
 38 47  1  0  0  0
 39 64  1  0  0  0
 39 67  2  0  0  0
 40 52  1  0  0  0
 40 53  2  0  0  0
 40 58  1  0  0  0
 41118  1  0  0  0
 41119  1  0  0  0
 41120  1  0  0  0
 41 48  1  0  0  0
 42 43  1  0  0  0
 42 66  1  0  0  0
 42121  1  0  0  0
 42122  1  0  0  0
 43 44  1  0  0  0
 44123  1  0  0  0
 45 46  2  0  0  0
 45124  1  0  0  0
 46125  1  0  0  0
 47126  1  0  0  0
 47127  1  0  0  0
 48 56  1  0  0  0
 48 65  1  0  0  0
 48128  1  0  0  0
 49 50  1  0  0  0
 49 53  1  0  0  0
 49 64  1  0  0  0
 49129  1  0  0  0
 50 51  1  0  0  0
 50130  1  0  0  0
 50131  1  0  0  0
 51 52  1  0  0  0
 51132  1  0  0  0
 51133  1  0  0  0
 52134  1  0  0  0
 52135  1  0  0  0
 53 54  1  0  0  0
 54 55  2  0  0  0
 54136  1  0  0  0
 55 57  1  0  0  0
 55137  1  0  0  0
 56 69  2  0  0  0
 57 58  2  0  0  0
 57138  1  0  0  0
 58139  1  0  0  0
 59 60  1  0  0  0
 59 61  1  0  0  0
 59 62  1  0  0  0
 60140  1  0  0  0
 60141  1  0  0  0
 60142  1  0  0  0
 61143  1  0  0  0
 61144  1  0  0  0
 61145  1  0  0  0
 62146  1  0  0  0
 62147  1  0  0  0
 62148  1  0  0  0
 63 65  1  0  0  0
 63149  1  0  0  0
 63150  1  0  0  0
 63151  1  0  0  0
 64152  1  0  0  0
 65153  1  0  0  0
 68 89  1  0  0  0
 71 72  2  0  0  0
 71 73  1  0  0  0
 71154  1  0  0  0
 72 74  1  0  0  0
 72 81  1  0  0  0
 73 75  2  0  0  0
 73 85  1  0  0  0
 74 76  2  0  0  0
 74 86  1  0  0  0
 75 76  1  0  0  0
 75 90  1  0  0  0
 76 91  1  0  0  0
 77 78  1  0  0  0
 77 81  1  0  0  0
 77155  1  0  0  0
 77156  1  0  0  0
 78 92  1  0  0  0
 78157  1  0  0  0
 78158  1  0  0  0
 79 82  1  0  0  0
 79 91  1  0  0  0
 79159  1  0  0  0
 79160  1  0  0  0
 80 83  1  0  0  0
 80 91  1  0  0  0
 80161  1  0  0  0
 80162  1  0  0  0
 81 84  1  0  0  0
 81163  1  0  0  0
 82 83  1  0  0  0
 82 93  1  0  0  0
 82164  1  0  0  0
 83 94  1  0  0  0
 83165  1  0  0  0
 84 87  1  0  0  0
 84 92  1  0  0  0
 84166  1  0  0  0
 85167  1  0  0  0
 85168  1  0  0  0
 85169  1  0  0  0
 86170  1  0  0  0
 86171  1  0  0  0
 86172  1  0  0  0
 87173  1  0  0  0
 87174  1  0  0  0
 87175  1  0  0  0
 88176  1  0  0  0
 88177  1  0  0  0
 88178  1  0  0  0
 88 90  1  0  0  0
 89 90  1  0  0  0
 89179  1  0  0  0
 89180  1  0  0  0
 90181  1  0  0  0
 93182  1  0  0  0
 93183  1  0  0  0
 94184  1  0  0  0
 94185  1  0  0  0
 94186  1  0  0  0
M  CHG  1  94   1
M  ISO  4   1 100  68 101  89 101  92 100
M  END
> <chiral flag>
0

> <version>
0

> <s_m_source_file>
/data/baiqing/PycharmProjects/Reinvent-master-3.2/result/LINK_invent/BTK/process_docking_weight1_custom_sum_contain_oxygen_bond_distance_aromatic_linkinvent_7_9_3/rearranged_h_0169.sdf

> <i_m_source_file_index>
87

> <r_mmod_Potential_Energy-OPLS-2005>
117.086128234863

> <r_mmod_Stretch_Energy-OPLS-2005>
87.0940017700195

> <r_mmod_Bend_Energy-OPLS-2005>
243.955947875977

> <r_mmod_Torsional_Energy-OPLS-2005>
386.856506347656

> <r_mmod_Improper_Torsional_Energy-OPLS-2005>
8.74487495422363

> <r_mmod_Van_der_Waal_Energy-OPLS-2005>
173.459732055664

> <r_mmod_Electrostatic_Energy-OPLS-2005>
-365.415100097656

> <r_mmod_Solvation_Energy-OPLS-2005>
-470.144744873047

> <b_mmod_Minimization_Converged-OPLS-2005>
0

> <r_mmod_RMS_Derivative-OPLS-2005>
1.81532979011536

$$$$
87
                    3D
 Structure written by MMmdl.
168177  0  0  1  0            999 V2000
  -30.6920  -14.5690   20.5132 C   0  0  0  0  0  0
  -30.4153  -12.3540   19.4474 C   0  0  0  0  0  0
  -29.4946  -12.4889   18.2176 C   0  0  0  0  0  0
  -28.0175  -12.3451   18.6311 C   0  0  0  0  0  0
  -27.6479  -13.2214   19.8586 C   0  0  2  0  0  0
  -28.6905  -13.0849   20.9875 C   0  0  0  0  0  0
  -25.2536  -13.8200   20.5694 C   0  0  0  0  0  0
  -24.1809  -13.0453   20.9191 C   0  0  0  0  0  0
  -24.6388  -11.6926   20.8747 C   0  0  0  0  0  0
  -23.9065  -10.4302   21.0408 C   0  0  0  0  0  0
  -24.3621   -9.4216   21.9181 C   0  0  0  0  0  0
  -23.6300   -8.2249   22.0753 C   0  0  0  0  0  0
  -22.4280   -8.0285   21.3545 C   0  0  0  0  0  0
  -21.9916   -9.0256   20.4646 C   0  0  0  0  0  0
  -22.7243  -10.2136   20.3056 C   0  0  0  0  0  0
  -21.6851   -6.0741   22.5282 C   0  0  0  0  0  0
  -21.4013   -6.5645   23.8215 C   0  0  0  0  0  0
  -21.3658   -5.6796   24.9177 C   0  0  0  0  0  0
  -21.6042   -4.3059   24.7228 C   0  0  0  0  0  0
  -21.8820   -3.8153   23.4349 C   0  0  0  0  0  0
  -21.9191   -4.6969   22.3406 C   0  0  0  0  0  0
  -22.7827  -13.5229   21.1856 C   0  0  0  0  0  0
  -22.1658   -4.2158   21.0981 F   0  0  0  0  0  0
  -21.5628   -3.4539   25.7739 F   0  0  0  0  0  0
  -30.0054  -13.3916   20.4130 N   0  0  0  0  0  0
  -26.2963  -12.9388   20.3319 N   0  0  0  0  0  0
  -25.9316  -11.6537   20.5771 N   0  0  0  0  0  0
  -22.0483  -12.8218   22.0421 N   0  0  0  0  0  0
  -25.4264  -15.1920   20.4121 N   0  0  0  0  0  0
  -31.8777  -14.6351   20.1705 O   0  0  0  0  0  0
  -21.6639   -6.8884   21.4244 O   0  0  0  0  0  0
  -22.3502  -14.5532   20.6706 O   0  0  0  0  0  0
  -24.6203  -31.8640   23.2053 C   0  0  0  0  0  0
  -25.9075  -32.4801   23.8368 C   0  0  1  0  0  0
  -27.2247  -27.3776   20.1073 C   0  0  0  0  0  0
  -25.5923  -33.8597   24.2305 N   0  0  0  0  0  0
  -23.4127  -30.4852   21.5477 C   0  0  2  0  0  0
  -24.8586  -28.9416   20.1184 C   0  0  0  0  0  0
  -22.7451  -29.4633   22.4976 C   0  0  0  0  0  0
  -18.0285  -28.1375   22.8480 C   0  0  0  0  0  0
  -24.1492  -36.7300   23.2644 C   0  0  0  0  0  0
  -25.9470  -30.8089   21.3704 C   0  0  0  0  0  0
  -26.0232  -29.4369   20.7220 C   0  0  0  0  0  0
  -27.2125  -28.6611   20.7171 C   0  0  0  0  0  0
  -26.0459  -26.9097   19.4968 C   0  0  0  0  0  0
  -24.8664  -27.6770   19.5048 C   0  0  0  0  0  0
  -23.6252  -29.8173   20.1632 C   0  0  0  0  0  0
  -25.4116  -36.3102   24.0339 C   0  0  1  0  0  0
  -20.5877  -28.3674   23.1297 C   0  0  2  0  0  0
  -20.6778  -26.9402   22.5410 C   0  0  0  0  0  0
  -19.5755  -26.6379   21.5209 C   0  0  0  0  0  0
  -18.1931  -26.7917   22.1613 C   0  0  0  0  0  0
  -19.1534  -28.8841   23.2878 C   0  0  0  0  0  0
  -18.9461  -30.1442   23.8894 C   0  0  0  0  0  0
  -17.6464  -30.6578   24.0559 C   0  0  0  0  0  0
  -25.9047  -34.9465   23.5121 C   0  0  0  0  0  0
  -16.5356  -29.9079   23.6323 C   0  0  0  0  0  0
  -16.7273  -28.6496   23.0340 C   0  0  0  0  0  0
  -26.4479  -31.6594   25.0717 C   0  0  0  0  0  0
  -25.3725  -31.3705   26.1452 C   0  0  0  0  0  0
  -27.0327  -30.3039   24.6115 C   0  0  0  0  0  0
  -27.6047  -32.4319   25.7485 C   0  0  0  0  0  0
  -27.5581  -37.1810   24.8468 C   0  0  0  0  0  0
  -21.4173  -29.3034   22.3706 N   0  0  0  0  0  0
  -26.4303  -37.3787   23.9407 N   0  0  0  0  0  0
  -24.6784  -31.0690   22.0983 N   0  0  0  0  0  0
  -23.4187  -28.8179   23.3045 O   0  0  0  0  0  0
  -28.3478  -26.5694   20.0429 O   0  0  0  0  0  0
  -26.5607  -34.8932   22.4680 O   0  0  0  0  0  0
  -23.5379  -32.1427   23.7406 O   0  0  0  0  0  0
  -28.5021  -23.3969   22.2846 C   0  0  0  0  0  0
  -28.3892  -21.9735   22.2247 C   0  0  0  0  0  0
  -28.5298  -24.1680   21.0861 C   0  0  0  0  0  0
  -28.3385  -21.3290   20.9612 C   0  0  0  0  0  0
  -28.5481  -23.4214   19.8762 C   0  0  0  0  0  0
  -29.2964  -17.9676   19.5238 C   0  0  0  0  0  0
  -28.6934  -17.5418   21.8644 C   0  0  0  0  0  0
  -30.3105  -16.7944   19.6137 C   0  0  0  0  0  0
  -29.7141  -16.3592   21.9059 C   0  0  0  0  0  0
  -29.0638  -18.6864   20.8732 C   0  0  0  0  0  0
  -28.5689  -24.1028   23.6395 C   0  0  0  0  0  0
  -28.2861  -21.1683   23.5174 C   0  0  0  0  0  0
  -28.6856  -24.0839   18.5189 C   0  0  0  0  0  0
  -28.6150  -25.7323   21.1914 C   0  0  0  0  0  0
  -27.9674  -19.8234   20.7744 C   0  0  0  0  0  0
  -28.4522  -22.0625   19.8271 N   0  0  0  0  0  0
  -29.9595  -15.7311   20.5906 N   0  0  0  0  0  0
  -31.4595  -12.4453   19.1439 H   0  0  0  0  0  0
  -30.3225  -11.3632   19.8950 H   0  0  0  0  0  0
  -29.7477  -11.7350   17.4716 H   0  0  0  0  0  0
  -29.6515  -13.4580   17.7408 H   0  0  0  0  0  0
  -27.8444  -11.2937   18.8633 H   0  0  0  0  0  0
  -27.3637  -12.5790   17.7897 H   0  0  0  0  0  0
  -27.6664  -14.2567   19.5160 H   0  0  0  0  0  0
  -28.6869  -12.0745   21.3984 H   0  0  0  0  0  0
  -28.4450  -13.7489   21.8147 H   0  0  0  0  0  0
  -25.2768   -9.5691   22.4756 H   0  0  0  0  0  0
  -24.0012   -7.4640   22.7473 H   0  0  0  0  0  0
  -21.0850   -8.8776   19.8951 H   0  0  0  0  0  0
  -22.3703  -10.9676   19.6165 H   0  0  0  0  0  0
  -21.2006   -7.6152   23.9724 H   0  0  0  0  0  0
  -21.1473   -6.0522   25.9079 H   0  0  0  0  0  0
  -22.0598   -2.7616   23.2845 H   0  0  0  0  0  0
  -22.4103  -11.9873   22.4797 H   0  0  0  0  0  0
  -21.1106  -13.1240   22.2646 H   0  0  0  0  0  0
  -24.6662  -15.8524   20.5281 H   0  0  0  0  0  0
  -26.2922  -15.6286   20.1229 H   0  0  0  0  0  0
  -26.7152  -32.5499   23.1132 H   0  0  0  0  0  0
  -25.0098  -33.9748   25.0470 H   0  0  0  0  0  0
  -22.7049  -31.3038   21.4045 H   0  0  0  0  0  0
  -23.3760  -35.9627   23.3317 H   0  0  0  0  0  0
  -24.3597  -36.8901   22.2059 H   0  0  0  0  0  0
  -23.7234  -37.6503   23.6650 H   0  0  0  0  0  0
  -26.0706  -31.5697   20.5987 H   0  0  0  0  0  0
  -26.8304  -30.8617   21.9942 H   0  0  0  0  0  0
  -28.1134  -29.0377   21.1808 H   0  0  0  0  0  0
  -26.0365  -25.9408   19.0189 H   0  0  0  0  0  0
  -23.9729  -27.2879   19.0356 H   0  0  0  0  0  0
  -23.7421  -30.5917   19.4035 H   0  0  0  0  0  0
  -22.7467  -29.2430   19.8631 H   0  0  0  0  0  0
  -25.1293  -36.1975   25.0833 H   0  0  0  0  0  0
  -20.9961  -28.3242   24.1423 H   0  0  0  0  0  0
  -20.5700  -26.2278   23.3604 H   0  0  0  0  0  0
  -21.6643  -26.7452   22.1197 H   0  0  0  0  0  0
  -19.6926  -25.6293   21.1234 H   0  0  0  0  0  0
  -19.6697  -27.3196   20.6740 H   0  0  0  0  0  0
  -17.4204  -26.6667   21.4012 H   0  0  0  0  0  0
  -18.0323  -26.0058   22.9010 H   0  0  0  0  0  0
  -19.7942  -30.7239   24.2279 H   0  0  0  0  0  0
  -17.5028  -31.6264   24.5154 H   0  0  0  0  0  0
  -15.5359  -30.2979   23.7655 H   0  0  0  0  0  0
  -15.8672  -28.0822   22.7052 H   0  0  0  0  0  0
  -24.5895  -30.7064   25.7773 H   0  0  0  0  0  0
  -24.8920  -32.2860   26.4908 H   0  0  0  0  0  0
  -25.8056  -30.8855   27.0208 H   0  0  0  0  0  0
  -26.2880  -29.6794   24.1163 H   0  0  0  0  0  0
  -27.4096  -29.7286   25.4580 H   0  0  0  0  0  0
  -27.8716  -30.4372   23.9281 H   0  0  0  0  0  0
  -27.2663  -33.3618   26.2070 H   0  0  0  0  0  0
  -28.3847  -32.6880   25.0301 H   0  0  0  0  0  0
  -28.0723  -31.8437   26.5392 H   0  0  0  0  0  0
  -28.2601  -38.0107   24.7523 H   0  0  0  0  0  0
  -28.1077  -36.2638   24.6289 H   0  0  0  0  0  0
  -27.2301  -37.1454   25.8872 H   0  0  0  0  0  0
  -20.9359  -29.8750   21.6911 H   0  0  0  0  0  0
  -26.0193  -38.2870   24.1398 H   0  0  0  0  0  0
  -28.3482  -17.5856   19.1418 H   0  0  0  0  0  0
  -29.6473  -18.6904   18.7860 H   0  0  0  0  0  0
  -28.5909  -17.9454   22.8714 H   0  0  0  0  0  0
  -27.7107  -17.1435   21.6062 H   0  0  0  0  0  0
  -31.2949  -17.1970   19.8611 H   0  0  0  0  0  0
  -30.4079  -16.3504   18.6203 H   0  0  0  0  0  0
  -29.3680  -15.6128   22.6212 H   0  0  0  0  0  0
  -30.6670  -16.7208   22.2976 H   0  0  0  0  0  0
  -29.9996  -19.1393   21.2030 H   0  0  0  0  0  0
  -28.9357  -23.4675   24.4433 H   0  0  0  0  0  0
  -27.5793  -24.4635   23.9222 H   0  0  0  0  0  0
  -29.2490  -24.9536   23.6193 H   0  0  0  0  0  0
  -29.2075  -21.2571   24.0931 H   0  0  0  0  0  0
  -28.1203  -20.1064   23.3653 H   0  0  0  0  0  0
  -27.4607  -21.5345   24.1288 H   0  0  0  0  0  0
  -29.5143  -24.7914   18.5175 H   0  0  0  0  0  0
  -27.7721  -24.6151   18.2576 H   0  0  0  0  0  0
  -28.8788  -23.3526   17.7321 H   0  0  0  0  0  0
  -29.6321  -25.9700   21.5046 H   0  0  0  0  0  0
  -27.9712  -26.0608   22.0088 H   0  0  0  0  0  0
  -27.4779  -19.7414   19.8035 H   0  0  0  0  0  0
  -27.1537  -19.5980   21.4637 H   0  0  0  0  0  0
  1 25  1  0  0  0
  1 30  2  0  0  0
  1 87  1  0  0  0
  2  3  1  0  0  0
  2 25  1  0  0  0
  2 88  1  0  0  0
  2 89  1  0  0  0
  3  4  1  0  0  0
  3 90  1  0  0  0
  3 91  1  0  0  0
  4  5  1  0  0  0
  4 92  1  0  0  0
  4 93  1  0  0  0
  5  6  1  0  0  0
  5 26  1  0  0  0
  5 94  1  0  0  0
  6 25  1  0  0  0
  6 95  1  0  0  0
  6 96  1  0  0  0
  7  8  2  0  0  0
  7 26  1  0  0  0
  7 29  1  0  0  0
  8  9  1  0  0  0
  8 22  1  0  0  0
  9 10  1  0  0  0
  9 27  2  0  0  0
 10 11  2  0  0  0
 10 15  1  0  0  0
 11 12  1  0  0  0
 11 97  1  0  0  0
 12 13  2  0  0  0
 12 98  1  0  0  0
 13 14  1  0  0  0
 13 31  1  0  0  0
 14 15  2  0  0  0
 14 99  1  0  0  0
 15100  1  0  0  0
 16 17  2  0  0  0
 16 21  1  0  0  0
 16 31  1  0  0  0
 17 18  1  0  0  0
 17101  1  0  0  0
 18 19  2  0  0  0
 18102  1  0  0  0
 19 20  1  0  0  0
 19 24  1  0  0  0
 20 21  2  0  0  0
 20103  1  0  0  0
 21 23  1  0  0  0
 22 28  1  0  0  0
 22 32  2  0  0  0
 26 27  1  0  0  0
 28104  1  0  0  0
 28105  1  0  0  0
 29106  1  0  0  0
 29107  1  0  0  0
 33 34  1  0  0  0
 33 66  1  0  0  0
 33 70  2  0  0  0
 34 36  1  0  0  0
 34 59  1  0  0  0
 34108  1  0  0  0
 35 44  2  0  0  0
 35 45  1  0  0  0
 35 68  1  0  0  0
 36 56  1  0  0  0
 36109  1  0  0  0
 37 39  1  0  0  0
 37 47  1  0  0  0
 37 66  1  0  0  0
 37110  1  0  0  0
 38 43  2  0  0  0
 38 46  1  0  0  0
 38 47  1  0  0  0
 39 64  1  0  0  0
 39 67  2  0  0  0
 40 52  1  0  0  0
 40 53  2  0  0  0
 40 58  1  0  0  0
 41111  1  0  0  0
 41112  1  0  0  0
 41113  1  0  0  0
 41 48  1  0  0  0
 42 43  1  0  0  0
 42 66  1  0  0  0
 42114  1  0  0  0
 42115  1  0  0  0
 43 44  1  0  0  0
 44116  1  0  0  0
 45 46  2  0  0  0
 45117  1  0  0  0
 46118  1  0  0  0
 47119  1  0  0  0
 47120  1  0  0  0
 48 56  1  0  0  0
 48 65  1  0  0  0
 48121  1  0  0  0
 49 50  1  0  0  0
 49 53  1  0  0  0
 49 64  1  0  0  0
 49122  1  0  0  0
 50 51  1  0  0  0
 50123  1  0  0  0
 50124  1  0  0  0
 51 52  1  0  0  0
 51125  1  0  0  0
 51126  1  0  0  0
 52127  1  0  0  0
 52128  1  0  0  0
 53 54  1  0  0  0
 54 55  2  0  0  0
 54129  1  0  0  0
 55 57  1  0  0  0
 55130  1  0  0  0
 56 69  2  0  0  0
 57 58  2  0  0  0
 57131  1  0  0  0
 58132  1  0  0  0
 59 60  1  0  0  0
 59 61  1  0  0  0
 59 62  1  0  0  0
 60133  1  0  0  0
 60134  1  0  0  0
 60135  1  0  0  0
 61136  1  0  0  0
 61137  1  0  0  0
 61138  1  0  0  0
 62139  1  0  0  0
 62140  1  0  0  0
 62141  1  0  0  0
 63 65  1  0  0  0
 63142  1  0  0  0
 63143  1  0  0  0
 63144  1  0  0  0
 64145  1  0  0  0
 65146  1  0  0  0
 68 84  1  0  0  0
 71 72  2  0  0  0
 71 73  1  0  0  0
 71 81  1  0  0  0
 72 74  1  0  0  0
 72 82  1  0  0  0
 73 75  2  0  0  0
 73 84  1  0  0  0
 74 85  1  0  0  0
 74 86  2  0  0  0
 75 83  1  0  0  0
 75 86  1  0  0  0
 76 78  1  0  0  0
 76 80  1  0  0  0
 76147  1  0  0  0
 76148  1  0  0  0
 77 79  1  0  0  0
 77 80  1  0  0  0
 77149  1  0  0  0
 77150  1  0  0  0
 78 87  1  0  0  0
 78151  1  0  0  0
 78152  1  0  0  0
 79 87  1  0  0  0
 79153  1  0  0  0
 79154  1  0  0  0
 80 85  1  0  0  0
 80155  1  0  0  0
 81156  1  0  0  0
 81157  1  0  0  0
 81158  1  0  0  0
 82159  1  0  0  0
 82160  1  0  0  0
 82161  1  0  0  0
 83162  1  0  0  0
 83163  1  0  0  0
 83164  1  0  0  0
 84165  1  0  0  0
 84166  1  0  0  0
 85167  1  0  0  0
 85168  1  0  0  0
M  ISO  4   1 100  68 101  84 101  87 100
M  END
> <chiral flag>
0

> <version>
0

> <s_m_source_file>
/data/baiqing/PycharmProjects/Reinvent-master-3.2/result/LINK_invent/BTK/process_docking_weight1_custom_sum_contain_oxygen_bond_distance_aromatic_linkinvent_7_9_3/rearranged_h_0169.sdf

> <i_m_source_file_index>
88

> <r_mmod_Potential_Energy-OPLS-2005>
146.162246704102

> <r_mmod_Stretch_Energy-OPLS-2005>
62.122989654541

> <r_mmod_Bend_Energy-OPLS-2005>
137.621643066406

> <r_mmod_Torsional_Energy-OPLS-2005>
353.140991210938

> <r_mmod_Improper_Torsional_Energy-OPLS-2005>
16.6588230133057

> <r_mmod_Van_der_Waal_Energy-OPLS-2005>
155.879959106445

> <r_mmod_Electrostatic_Energy-OPLS-2005>
-405.15625

> <r_mmod_Solvation_Energy-OPLS-2005>
-204.809448242188

> <b_mmod_Minimization_Converged-OPLS-2005>
0

> <r_mmod_RMS_Derivative-OPLS-2005>
1.12931561470032

$$$$
88
                    3D
 Structure written by MMmdl.
162172  0  0  1  0            999 V2000
  -30.4475  -15.1839   20.4392 C   0  0  0  0  0  0
  -30.4497  -12.7598   19.5079 C   0  0  0  0  0  0
  -29.5323  -12.5720   18.2724 C   0  0  0  0  0  0
  -28.0766  -12.3057   18.6974 C   0  0  0  0  0  0
  -27.6216  -13.2593   19.8282 C   0  0  2  0  0  0
  -28.6606  -13.3487   20.9617 C   0  0  0  0  0  0
  -25.2459  -13.8215   20.5721 C   0  0  0  0  0  0
  -24.1782  -13.0427   20.9217 C   0  0  0  0  0  0
  -24.6413  -11.6915   20.8744 C   0  0  0  0  0  0
  -23.9093  -10.4285   21.0401 C   0  0  0  0  0  0
  -24.3635   -9.4199   21.9188 C   0  0  0  0  0  0
  -23.6296   -8.2242   22.0766 C   0  0  0  0  0  0
  -22.4282   -8.0283   21.3545 C   0  0  0  0  0  0
  -21.9921   -9.0259   20.4653 C   0  0  0  0  0  0
  -22.7262  -10.2125   20.3054 C   0  0  0  0  0  0
  -21.6853   -6.0736   22.5281 C   0  0  0  0  0  0
  -21.4016   -6.5641   23.8213 C   0  0  0  0  0  0
  -21.3658   -5.6796   24.9176 C   0  0  0  0  0  0
  -21.6041   -4.3058   24.7226 C   0  0  0  0  0  0
  -21.8819   -3.8148   23.4348 C   0  0  0  0  0  0
  -21.9192   -4.6965   22.3404 C   0  0  0  0  0  0
  -22.7806  -13.5206   21.1871 C   0  0  0  0  0  0
  -22.1663   -4.2147   21.0982 F   0  0  0  0  0  0
  -21.5619   -3.4544   25.7737 F   0  0  0  0  0  0
  -29.9004  -13.8741   20.3594 N   0  0  0  0  0  0
  -26.2870  -12.9457   20.3209 N   0  0  0  0  0  0
  -25.9341  -11.6579   20.5703 N   0  0  0  0  0  0
  -22.0458  -12.8194   22.0424 N   0  0  0  0  0  0
  -25.4152  -15.1949   20.4204 N   0  0  0  0  0  0
  -31.6413  -15.2457   20.1082 O   0  0  0  0  0  0
  -21.6642   -6.8882   21.4244 O   0  0  0  0  0  0
  -22.3484  -14.5508   20.6715 O   0  0  0  0  0  0
  -24.6603  -31.8279   23.1744 C   0  0  0  0  0  0
  -25.9303  -32.4610   23.8182 C   0  0  1  0  0  0
  -27.2167  -26.9750   20.1671 C   0  0  0  0  0  0
  -25.5992  -33.8422   24.2098 N   0  0  0  0  0  0
  -23.4715  -30.4433   21.5237 C   0  0  2  0  0  0
  -24.9252  -28.8446   20.1070 C   0  0  0  0  0  0
  -22.7660  -29.4457   22.4792 C   0  0  0  0  0  0
  -18.0324  -28.1415   22.8464 C   0  0  0  0  0  0
  -24.1485  -36.7209   23.2647 C   0  0  0  0  0  0
  -26.0398  -30.6483   21.3982 C   0  0  0  0  0  0
  -26.1090  -29.2447   20.7405 C   0  0  0  0  0  0
  -27.2515  -28.3301   20.7495 C   0  0  0  0  0  0
  -26.0051  -26.7239   19.4799 C   0  0  0  0  0  0
  -24.8963  -27.6030   19.4579 C   0  0  0  0  0  0
  -23.7085  -29.7659   20.1466 C   0  0  0  0  0  0
  -25.4125  -36.2970   24.0301 C   0  0  1  0  0  0
  -20.5949  -28.3745   23.1201 C   0  0  2  0  0  0
  -20.6799  -26.9431   22.5397 C   0  0  0  0  0  0
  -19.5772  -26.6383   21.5212 C   0  0  0  0  0  0
  -18.1952  -26.7949   22.1618 C   0  0  0  0  0  0
  -19.1589  -28.8903   23.2817 C   0  0  0  0  0  0
  -18.9504  -30.1497   23.8844 C   0  0  0  0  0  0
  -17.6497  -30.6602   24.0562 C   0  0  0  0  0  0
  -25.9097  -34.9357   23.5012 C   0  0  0  0  0  0
  -16.5384  -29.9090   23.6356 C   0  0  0  0  0  0
  -16.7309  -28.6519   23.0354 C   0  0  0  0  0  0
  -26.4570  -31.6544   25.0695 C   0  0  0  0  0  0
  -25.3700  -31.3765   26.1349 C   0  0  0  0  0  0
  -27.0480  -30.2931   24.6383 C   0  0  0  0  0  0
  -27.6057  -32.4368   25.7495 C   0  0  0  0  0  0
  -27.5557  -37.1761   24.8475 C   0  0  0  0  0  0
  -21.4333  -29.3049   22.3566 N   0  0  0  0  0  0
  -26.4264  -37.3707   23.9421 N   0  0  0  0  0  0
  -24.7451  -30.9977   22.0861 N   0  0  0  0  0  0
  -23.4242  -28.8008   23.2994 O   0  0  0  0  0  0
  -28.2050  -25.8700   20.2541 O   0  0  0  0  0  0
  -26.5686  -34.8883   22.4597 O   0  0  0  0  0  0
  -23.5687  -32.1235   23.6862 O   0  0  0  0  0  0
  -28.4756  -20.1835   19.4961 C   0  0  0  0  0  0
  -29.3333  -19.6732   20.5396 C   0  0  0  0  0  0
  -28.0953  -21.5978   19.2936 C   0  0  0  0  0  0
  -28.5241  -22.7318   20.1092 C   0  0  0  0  0  0
  -29.7403  -20.8765   21.2852 C   0  0  0  0  0  0
  -29.4430  -21.2887   24.5698 C   0  0  0  0  0  0
  -30.8932  -21.0052   24.8901 C   0  0  0  0  0  0
  -30.0448  -17.6502   22.4504 C   0  0  0  0  0  0
  -29.3647  -16.2902   22.2379 C   0  0  0  0  0  0
  -29.5107  -18.0270   21.0924 C   0  0  2  0  0  0
  -30.5111  -21.5468   23.5329 C   0  0  0  0  0  0
  -27.1147  -21.8695   18.1634 C   0  0  0  0  0  0
  -27.8105  -24.3191   19.9822 C   0  0  0  0  0  0
  -29.3711  -22.2421   21.0945 N   0  0  0  0  0  0
  -29.6453  -16.3809   20.7770 N   0  0  0  0  0  0
  -30.6047  -20.6791   22.3667 N   0  0  0  0  0  0
  -31.4655  -12.9746   19.1737 H   0  0  0  0  0  0
  -30.5230  -11.8335   20.0799 H   0  0  0  0  0  0
  -29.8969  -11.7550   17.6477 H   0  0  0  0  0  0
  -29.5702  -13.4696   17.6543 H   0  0  0  0  0  0
  -28.0178  -11.2737   19.0458 H   0  0  0  0  0  0
  -27.4072  -12.3791   17.8397 H   0  0  0  0  0  0
  -27.5606  -14.2466   19.3689 H   0  0  0  0  0  0
  -28.8196  -12.3751   21.4276 H   0  0  0  0  0  0
  -28.2924  -13.9975   21.7529 H   0  0  0  0  0  0
  -25.2771   -9.5669   22.4775 H   0  0  0  0  0  0
  -23.9990   -7.4636   22.7492 H   0  0  0  0  0  0
  -21.0850   -8.8790   19.8962 H   0  0  0  0  0  0
  -22.3729  -10.9672   19.6166 H   0  0  0  0  0  0
  -21.2018   -7.6151   23.9712 H   0  0  0  0  0  0
  -21.1476   -6.0529   25.9074 H   0  0  0  0  0  0
  -22.0597   -2.7610   23.2852 H   0  0  0  0  0  0
  -22.4069  -11.9849   22.4808 H   0  0  0  0  0  0
  -21.1069  -13.1219   22.2628 H   0  0  0  0  0  0
  -24.6511  -15.8504   20.5419 H   0  0  0  0  0  0
  -26.2752  -15.6384   20.1233 H   0  0  0  0  0  0
  -26.7372  -32.5162   23.0894 H   0  0  0  0  0  0
  -25.0141  -33.9519   25.0248 H   0  0  0  0  0  0
  -22.7829  -31.2751   21.3583 H   0  0  0  0  0  0
  -23.3758  -35.9528   23.3284 H   0  0  0  0  0  0
  -24.3559  -36.8875   22.2065 H   0  0  0  0  0  0
  -23.7232  -37.6386   23.6720 H   0  0  0  0  0  0
  -26.2143  -31.3910   20.6185 H   0  0  0  0  0  0
  -26.9044  -30.7031   22.0483 H   0  0  0  0  0  0
  -28.1460  -28.6319   21.2767 H   0  0  0  0  0  0
  -25.8623  -25.7811   18.9748 H   0  0  0  0  0  0
  -23.9971  -27.2922   18.9440 H   0  0  0  0  0  0
  -23.8605  -30.5386   19.3917 H   0  0  0  0  0  0
  -22.8188  -29.2186   19.8287 H   0  0  0  0  0  0
  -25.1318  -36.1753   25.0789 H   0  0  0  0  0  0
  -21.0046  -28.3325   24.1318 H   0  0  0  0  0  0
  -20.5704  -26.2346   23.3622 H   0  0  0  0  0  0
  -21.6656  -26.7413   22.1181 H   0  0  0  0  0  0
  -19.6925  -25.6284   21.1258 H   0  0  0  0  0  0
  -19.6714  -27.3178   20.6733 H   0  0  0  0  0  0
  -17.4225  -26.6713   21.4012 H   0  0  0  0  0  0
  -18.0335  -26.0094   22.9020 H   0  0  0  0  0  0
  -19.7977  -30.7336   24.2175 H   0  0  0  0  0  0
  -17.5048  -31.6274   24.5178 H   0  0  0  0  0  0
  -15.5386  -30.2977   23.7721 H   0  0  0  0  0  0
  -15.8701  -28.0836   22.7083 H   0  0  0  0  0  0
  -24.5918  -30.7082   25.7647 H   0  0  0  0  0  0
  -24.8848  -32.2952   26.4661 H   0  0  0  0  0  0
  -25.7936  -30.9007   27.0202 H   0  0  0  0  0  0
  -26.3144  -29.6616   24.1364 H   0  0  0  0  0  0
  -27.4036  -29.7281   25.5009 H   0  0  0  0  0  0
  -27.9059  -30.4167   23.9771 H   0  0  0  0  0  0
  -27.2630  -33.3738   26.1902 H   0  0  0  0  0  0
  -28.3942  -32.6832   25.0368 H   0  0  0  0  0  0
  -28.0635  -31.8607   26.5549 H   0  0  0  0  0  0
  -28.2558  -38.0070   24.7517 H   0  0  0  0  0  0
  -28.1067  -36.2599   24.6306 H   0  0  0  0  0  0
  -27.2274  -37.1395   25.8876 H   0  0  0  0  0  0
  -20.9592  -29.8767   21.6713 H   0  0  0  0  0  0
  -26.0107  -38.2755   24.1459 H   0  0  0  0  0  0
  -28.0183  -19.4452   18.8533 H   0  0  0  0  0  0
  -28.9827  -22.1541   25.0438 H   0  0  0  0  0  0
  -28.7868  -20.4309   24.4300 H   0  0  0  0  0  0
  -31.1912  -19.9609   24.9675 H   0  0  0  0  0  0
  -31.3908  -21.6811   25.5836 H   0  0  0  0  0  0
  -31.1347  -17.6094   22.4966 H   0  0  0  0  0  0
  -29.6196  -18.2072   23.2866 H   0  0  0  0  0  0
  -28.3002  -16.2827   22.4853 H   0  0  0  0  0  0
  -29.8718  -15.5061   22.8077 H   0  0  0  0  0  0
  -28.4276  -18.1087   21.2369 H   0  0  0  0  0  0
  -30.7839  -22.5773   23.3089 H   0  0  0  0  0  0
  -26.7503  -20.9480   17.7084 H   0  0  0  0  0  0
  -27.5933  -22.4571   17.3789 H   0  0  0  0  0  0
  -26.2444  -22.4185   18.5248 H   0  0  0  0  0  0
  -26.8584  -24.1943   20.4987 H   0  0  0  0  0  0
  -27.5521  -24.3610   18.9261 H   0  0  0  0  0  0
  -30.9226  -19.7305   22.5231 H   0  0  0  0  0  0
  1 25  1  0  0  0
  1 30  2  0  0  0
  1 85  1  0  0  0
  2  3  1  0  0  0
  2 25  1  0  0  0
  2 87  1  0  0  0
  2 88  1  0  0  0
  3  4  1  0  0  0
  3 89  1  0  0  0
  3 90  1  0  0  0
  4  5  1  0  0  0
  4 91  1  0  0  0
  4 92  1  0  0  0
  5  6  1  0  0  0
  5 26  1  0  0  0
  5 93  1  0  0  0
  6 25  1  0  0  0
  6 94  1  0  0  0
  6 95  1  0  0  0
  7  8  2  0  0  0
  7 26  1  0  0  0
  7 29  1  0  0  0
  8  9  1  0  0  0
  8 22  1  0  0  0
  9 10  1  0  0  0
  9 27  2  0  0  0
 10 11  2  0  0  0
 10 15  1  0  0  0
 11 12  1  0  0  0
 11 96  1  0  0  0
 12 13  2  0  0  0
 12 97  1  0  0  0
 13 14  1  0  0  0
 13 31  1  0  0  0
 14 15  2  0  0  0
 14 98  1  0  0  0
 15 99  1  0  0  0
 16 17  2  0  0  0
 16 21  1  0  0  0
 16 31  1  0  0  0
 17 18  1  0  0  0
 17100  1  0  0  0
 18 19  2  0  0  0
 18101  1  0  0  0
 19 20  1  0  0  0
 19 24  1  0  0  0
 20 21  2  0  0  0
 20102  1  0  0  0
 21 23  1  0  0  0
 22 28  1  0  0  0
 22 32  2  0  0  0
 26 27  1  0  0  0
 28103  1  0  0  0
 28104  1  0  0  0
 29105  1  0  0  0
 29106  1  0  0  0
 33 34  1  0  0  0
 33 66  1  0  0  0
 33 70  2  0  0  0
 34 36  1  0  0  0
 34 59  1  0  0  0
 34107  1  0  0  0
 35 44  2  0  0  0
 35 45  1  0  0  0
 35 68  1  0  0  0
 36 56  1  0  0  0
 36108  1  0  0  0
 37 39  1  0  0  0
 37 47  1  0  0  0
 37 66  1  0  0  0
 37109  1  0  0  0
 38 43  2  0  0  0
 38 46  1  0  0  0
 38 47  1  0  0  0
 39 64  1  0  0  0
 39 67  2  0  0  0
 40 52  1  0  0  0
 40 53  2  0  0  0
 40 58  1  0  0  0
 41110  1  0  0  0
 41111  1  0  0  0
 41112  1  0  0  0
 41 48  1  0  0  0
 42 43  1  0  0  0
 42 66  1  0  0  0
 42113  1  0  0  0
 42114  1  0  0  0
 43 44  1  0  0  0
 44115  1  0  0  0
 45 46  2  0  0  0
 45116  1  0  0  0
 46117  1  0  0  0
 47118  1  0  0  0
 47119  1  0  0  0
 48 56  1  0  0  0
 48 65  1  0  0  0
 48120  1  0  0  0
 49 50  1  0  0  0
 49 53  1  0  0  0
 49 64  1  0  0  0
 49121  1  0  0  0
 50 51  1  0  0  0
 50122  1  0  0  0
 50123  1  0  0  0
 51 52  1  0  0  0
 51124  1  0  0  0
 51125  1  0  0  0
 52126  1  0  0  0
 52127  1  0  0  0
 53 54  1  0  0  0
 54 55  2  0  0  0
 54128  1  0  0  0
 55 57  1  0  0  0
 55129  1  0  0  0
 56 69  2  0  0  0
 57 58  2  0  0  0
 57130  1  0  0  0
 58131  1  0  0  0
 59 60  1  0  0  0
 59 61  1  0  0  0
 59 62  1  0  0  0
 60132  1  0  0  0
 60133  1  0  0  0
 60134  1  0  0  0
 61135  1  0  0  0
 61136  1  0  0  0
 61137  1  0  0  0
 62138  1  0  0  0
 62139  1  0  0  0
 62140  1  0  0  0
 63 65  1  0  0  0
 63141  1  0  0  0
 63142  1  0  0  0
 63143  1  0  0  0
 64144  1  0  0  0
 65145  1  0  0  0
 68 83  1  0  0  0
 71 72  2  0  0  0
 71 73  1  0  0  0
 71146  1  0  0  0
 72 75  1  0  0  0
 72 80  1  0  0  0
 73 74  2  0  0  0
 73 82  1  0  0  0
 74 83  1  0  0  0
 74 84  1  0  0  0
 75 84  2  0  0  0
 75 86  1  0  0  0
 76 77  1  0  0  0
 76 81  1  0  0  0
 76147  1  0  0  0
 76148  1  0  0  0
 77 81  1  0  0  0
 77149  1  0  0  0
 77150  1  0  0  0
 78 79  1  0  0  0
 78 80  1  0  0  0
 78151  1  0  0  0
 78152  1  0  0  0
 79 85  1  0  0  0
 79153  1  0  0  0
 79154  1  0  0  0
 80 85  1  0  0  0
 80155  1  0  0  0
 81 86  1  0  0  0
 81156  1  0  0  0
 82157  1  0  0  0
 82158  1  0  0  0
 82159  1  0  0  0
 83160  1  0  0  0
 83161  1  0  0  0
 86162  1  0  0  0
M  ISO  4   1 100  68 101  83 101  85 100
M  END
> <chiral flag>
0

> <version>
0

> <s_m_source_file>
/data/baiqing/PycharmProjects/Reinvent-master-3.2/result/LINK_invent/BTK/process_docking_weight1_custom_sum_contain_oxygen_bond_distance_aromatic_linkinvent_7_9_3/rearranged_h_0169.sdf

> <i_m_source_file_index>
89

> <r_mmod_Potential_Energy-OPLS-2005>
1277.70471191406

> <r_mmod_Stretch_Energy-OPLS-2005>
486.508392333984

> <r_mmod_Bend_Energy-OPLS-2005>
613.435241699219

> <r_mmod_Torsional_Energy-OPLS-2005>
290.552337646484

> <r_mmod_Improper_Torsional_Energy-OPLS-2005>
16.825403213501

> <r_mmod_Van_der_Waal_Energy-OPLS-2005>
150.093322753906

> <r_mmod_Electrostatic_Energy-OPLS-2005>
-421.316284179688

> <r_mmod_Solvation_Energy-OPLS-2005>
-242.265853881836

> <b_mmod_Minimization_Converged-OPLS-2005>
0

> <r_mmod_RMS_Derivative-OPLS-2005>
1.57523357868195

$$$$
89
                    3D
 Structure written by MMmdl.
171180  0  0  1  0            999 V2000
  -30.6132  -14.8632   20.4925 C   0  0  0  0  0  0
  -30.4392  -12.5434   19.4943 C   0  0  0  0  0  0
  -29.5230  -12.5317   18.2496 C   0  0  0  0  0  0
  -28.0521  -12.3271   18.6577 C   0  0  0  0  0  0
  -27.6375  -13.2415   19.8390 C   0  0  2  0  0  0
  -28.6764  -13.2175   20.9774 C   0  0  0  0  0  0
  -25.2508  -13.8207   20.5695 C   0  0  0  0  0  0
  -24.1807  -13.0444   20.9202 C   0  0  0  0  0  0
  -24.6409  -11.6924   20.8726 C   0  0  0  0  0  0
  -23.9088  -10.4299   21.0399 C   0  0  0  0  0  0
  -24.3631   -9.4211   21.9179 C   0  0  0  0  0  0
  -23.6299   -8.2248   22.0752 C   0  0  0  0  0  0
  -22.4278   -8.0290   21.3546 C   0  0  0  0  0  0
  -21.9921   -9.0263   20.4644 C   0  0  0  0  0  0
  -22.7259  -10.2138   20.3050 C   0  0  0  0  0  0
  -21.6852   -6.0742   22.5284 C   0  0  0  0  0  0
  -21.4012   -6.5642   23.8219 C   0  0  0  0  0  0
  -21.3656   -5.6791   24.9179 C   0  0  0  0  0  0
  -21.6046   -4.3056   24.7223 C   0  0  0  0  0  0
  -21.8815   -3.8150   23.4343 C   0  0  0  0  0  0
  -21.9191   -4.6970   22.3404 C   0  0  0  0  0  0
  -22.7827  -13.5223   21.1861 C   0  0  0  0  0  0
  -22.1661   -4.2156   21.0980 F   0  0  0  0  0  0
  -21.5625   -3.4539   25.7735 F   0  0  0  0  0  0
  -29.9726  -13.6265   20.4082 N   0  0  0  0  0  0
  -26.2924  -12.9426   20.3211 N   0  0  0  0  0  0
  -25.9337  -11.6563   20.5699 N   0  0  0  0  0  0
  -22.0463  -12.8217   22.0413 N   0  0  0  0  0  0
  -25.4205  -15.1937   20.4171 N   0  0  0  0  0  0
  -31.7654  -14.9377   20.0531 O   0  0  0  0  0  0
  -21.6641   -6.8886   21.4245 O   0  0  0  0  0  0
  -22.3512  -14.5526   20.6704 O   0  0  0  0  0  0
  -24.6420  -31.8485   23.1924 C   0  0  0  0  0  0
  -25.9197  -32.4728   23.8290 C   0  0  1  0  0  0
  -27.2161  -27.1617   20.1267 C   0  0  0  0  0  0
  -25.5974  -33.8536   24.2216 N   0  0  0  0  0  0
  -23.4453  -30.4701   21.5392 C   0  0  2  0  0  0
  -24.8926  -28.9109   20.1068 C   0  0  0  0  0  0
  -22.7575  -29.4560   22.4874 C   0  0  0  0  0  0
  -18.0317  -28.1400   22.8498 C   0  0  0  0  0  0
  -24.1492  -36.7253   23.2639 C   0  0  0  0  0  0
  -26.0006  -30.7258   21.3916 C   0  0  0  0  0  0
  -26.0719  -29.3417   20.7290 C   0  0  0  0  0  0
  -27.2322  -28.4817   20.7297 C   0  0  0  0  0  0
  -26.0102  -26.8434   19.4537 C   0  0  0  0  0  0
  -24.8742  -27.6727   19.4560 C   0  0  0  0  0  0
  -23.6696  -29.8090   20.1552 C   0  0  0  0  0  0
  -25.4130  -36.3055   24.0317 C   0  0  1  0  0  0
  -20.5930  -28.3714   23.1249 C   0  0  2  0  0  0
  -20.6811  -26.9420   22.5404 C   0  0  0  0  0  0
  -19.5773  -26.6380   21.5227 C   0  0  0  0  0  0
  -18.1954  -26.7944   22.1632 C   0  0  0  0  0  0
  -19.1576  -28.8878   23.2867 C   0  0  0  0  0  0
  -18.9491  -30.1476   23.8885 C   0  0  0  0  0  0
  -17.6489  -30.6601   24.0567 C   0  0  0  0  0  0
  -25.9079  -34.9436   23.5072 C   0  0  0  0  0  0
  -16.5374  -29.9102   23.6343 C   0  0  0  0  0  0
  -16.7302  -28.6519   23.0366 C   0  0  0  0  0  0
  -26.4522  -31.6586   25.0718 C   0  0  0  0  0  0
  -25.3702  -31.3794   26.1407 C   0  0  0  0  0  0
  -27.0372  -30.2994   24.6265 C   0  0  0  0  0  0
  -27.6067  -32.4334   25.7503 C   0  0  0  0  0  0
  -27.5583  -37.1794   24.8472 C   0  0  0  0  0  0
  -21.4269  -29.3051   22.3628 N   0  0  0  0  0  0
  -26.4297  -37.3767   23.9412 N   0  0  0  0  0  0
  -24.7163  -31.0348   22.0962 N   0  0  0  0  0  0
  -23.4232  -28.8085   23.2995 O   0  0  0  0  0  0
  -28.2542  -26.1613   20.2021 O   0  0  0  0  0  0
  -26.5642  -34.8927   22.4634 O   0  0  0  0  0  0
  -23.5537  -32.1343   23.7147 O   0  0  0  0  0  0
  -29.8323  -21.1784   19.3149 C   0  0  0  0  0  0
  -29.5750  -22.6159   19.2580 C   0  0  0  0  0  0
  -29.1837  -20.3131   20.2632 C   0  0  0  0  0  0
  -28.6670  -23.2731   20.1601 C   0  0  0  0  0  0
  -28.3783  -21.0782   21.1740 C   0  0  0  0  0  0
  -30.9380  -18.0966   21.9203 C   0  0  0  0  0  0
  -29.7097  -16.0796   22.3683 C   0  0  0  0  0  0
  -30.8312  -16.9609   22.9312 C   0  0  2  0  0  0
  -30.2813  -17.5603   20.6339 C   0  0  2  0  0  0
  -30.7652  -20.5459   18.2902 C   0  0  0  0  0  0
  -30.2384  -23.4429   18.1596 C   0  0  0  0  0  0
  -27.6239  -20.3948   22.2990 C   0  0  0  0  0  0
  -31.6578  -18.2437   24.9014 C   0  0  0  0  0  0
  -29.1341  -18.6632   20.1664 C   0  0  0  0  0  0
  -27.8789  -24.6949   19.8865 C   0  0  0  0  0  0
  -28.1418  -22.4411   21.1133 N   0  0  0  0  0  0
  -29.9401  -16.0421   20.9176 N   0  0  0  0  0  0
  -30.5958  -17.3914   24.3289 N   0  3  0  0  0  0
  -31.4766  -12.6788   19.1846 H   0  0  0  0  0  0
  -30.4132  -11.5772   20.0014 H   0  0  0  0  0  0
  -29.8333  -11.7477   17.5575 H   0  0  0  0  0  0
  -29.6269  -13.4751   17.7110 H   0  0  0  0  0  0
  -27.9316  -11.2807   18.9407 H   0  0  0  0  0  0
  -27.3955  -12.4878   17.8021 H   0  0  0  0  0  0
  -27.6187  -14.2562   19.4400 H   0  0  0  0  0  0
  -28.7445  -12.2225   21.4203 H   0  0  0  0  0  0
  -28.3434  -13.8772   21.7745 H   0  0  0  0  0  0
  -25.2775   -9.5684   22.4756 H   0  0  0  0  0  0
  -24.0006   -7.4638   22.7471 H   0  0  0  0  0  0
  -21.0852   -8.8787   19.8948 H   0  0  0  0  0  0
  -22.3722  -10.9675   19.6155 H   0  0  0  0  0  0
  -21.2001   -7.6149   23.9724 H   0  0  0  0  0  0
  -21.1478   -6.0520   25.9082 H   0  0  0  0  0  0
  -22.0592   -2.7613   23.2842 H   0  0  0  0  0  0
  -22.4071  -11.9891   22.4831 H   0  0  0  0  0  0
  -21.1068  -13.1233   22.2575 H   0  0  0  0  0  0
  -24.6547  -15.8477   20.5354 H   0  0  0  0  0  0
  -26.2775  -15.6366   20.1106 H   0  0  0  0  0  0
  -26.7249  -32.5325   23.1004 H   0  0  0  0  0  0
  -25.0152  -33.9668   25.0386 H   0  0  0  0  0  0
  -22.7472  -31.2962   21.3909 H   0  0  0  0  0  0
  -23.3777  -35.9562   23.3304 H   0  0  0  0  0  0
  -24.3570  -36.8873   22.2050 H   0  0  0  0  0  0
  -23.7221  -37.6446   23.6660 H   0  0  0  0  0  0
  -26.1574  -31.4827   20.6215 H   0  0  0  0  0  0
  -26.8704  -30.7707   22.0343 H   0  0  0  0  0  0
  -28.1254  -28.8044   21.2463 H   0  0  0  0  0  0
  -25.8875  -25.9110   18.9256 H   0  0  0  0  0  0
  -23.9768  -27.3428   18.9498 H   0  0  0  0  0  0
  -23.8084  -30.5887   19.4049 H   0  0  0  0  0  0
  -22.7835  -29.2541   19.8420 H   0  0  0  0  0  0
  -25.1319  -36.1893   25.0810 H   0  0  0  0  0  0
  -21.0025  -28.3285   24.1368 H   0  0  0  0  0  0
  -20.5734  -26.2318   23.3615 H   0  0  0  0  0  0
  -21.6670  -26.7448   22.1181 H   0  0  0  0  0  0
  -19.6939  -25.6293   21.1261 H   0  0  0  0  0  0
  -19.6723  -27.3189   20.6754 H   0  0  0  0  0  0
  -17.4233  -26.6703   21.4021 H   0  0  0  0  0  0
  -18.0341  -26.0092   22.9029 H   0  0  0  0  0  0
  -19.7966  -30.7304   24.2240 H   0  0  0  0  0  0
  -17.5047  -31.6286   24.5159 H   0  0  0  0  0  0
  -15.5379  -30.2999   23.7686 H   0  0  0  0  0  0
  -15.8698  -28.0834   22.7082 H   0  0  0  0  0  0
  -24.5893  -30.7132   25.7727 H   0  0  0  0  0  0
  -24.8873  -32.2986   26.4738 H   0  0  0  0  0  0
  -25.7965  -30.9034   27.0243 H   0  0  0  0  0  0
  -26.2976  -29.6745   24.1248 H   0  0  0  0  0  0
  -27.3990  -29.7267   25.4810 H   0  0  0  0  0  0
  -27.8887  -30.4267   23.9579 H   0  0  0  0  0  0
  -27.2686  -33.3661   26.2032 H   0  0  0  0  0  0
  -28.3907  -32.6842   25.0346 H   0  0  0  0  0  0
  -28.0696  -31.8481   26.5458 H   0  0  0  0  0  0
  -28.2602  -38.0090   24.7521 H   0  0  0  0  0  0
  -28.1075  -36.2622   24.6299 H   0  0  0  0  0  0
  -27.2298  -37.1439   25.8874 H   0  0  0  0  0  0
  -20.9467  -29.8789   21.6839 H   0  0  0  0  0  0
  -26.0170  -38.2833   24.1430 H   0  0  0  0  0  0
  -31.9764  -18.3868   21.7535 H   0  0  0  0  0  0
  -30.4213  -18.9853   22.2817 H   0  0  0  0  0  0
  -28.7238  -16.5062   22.5569 H   0  0  0  0  0  0
  -29.7425  -15.1048   22.8577 H   0  0  0  0  0  0
  -31.7612  -16.3889   22.9083 H   0  0  0  0  0  0
  -31.0526  -17.5594   19.8615 H   0  0  0  0  0  0
  -31.6773  -21.1289   18.1710 H   0  0  0  0  0  0
  -30.2790  -20.4683   17.3178 H   0  0  0  0  0  0
  -31.0805  -19.5475   18.5867 H   0  0  0  0  0  0
  -30.0245  -23.0304   17.1726 H   0  0  0  0  0  0
  -31.3211  -23.4547   18.2936 H   0  0  0  0  0  0
  -29.9110  -24.4815   18.1597 H   0  0  0  0  0  0
  -26.6204  -20.1212   21.9717 H   0  0  0  0  0  0
  -27.5317  -21.0545   23.1627 H   0  0  0  0  0  0
  -28.1345  -19.4967   22.6420 H   0  0  0  0  0  0
  -31.4399  -18.4623   25.9471 H   0  0  0  0  0  0
  -31.7325  -19.1952   24.3743 H   0  0  0  0  0  0
  -32.6288  -17.7495   24.8562 H   0  0  0  0  0  0
  -28.9038  -18.4421   19.1236 H   0  0  0  0  0  0
  -28.2191  -18.3642   20.6750 H   0  0  0  0  0  0
  -26.9189  -24.5339   20.3792 H   0  0  0  0  0  0
  -27.6563  -24.6652   18.8202 H   0  0  0  0  0  0
  -30.5192  -16.5722   24.9110 H   0  0  0  0  0  0
  -29.7213  -17.8852   24.3974 H   0  0  0  0  0  0
  1 25  1  0  0  0
  1 30  2  0  0  0
  1 87  1  0  0  0
  2  3  1  0  0  0
  2 25  1  0  0  0
  2 89  1  0  0  0
  2 90  1  0  0  0
  3  4  1  0  0  0
  3 91  1  0  0  0
  3 92  1  0  0  0
  4  5  1  0  0  0
  4 93  1  0  0  0
  4 94  1  0  0  0
  5  6  1  0  0  0
  5 26  1  0  0  0
  5 95  1  0  0  0
  6 25  1  0  0  0
  6 96  1  0  0  0
  6 97  1  0  0  0
  7  8  2  0  0  0
  7 26  1  0  0  0
  7 29  1  0  0  0
  8  9  1  0  0  0
  8 22  1  0  0  0
  9 10  1  0  0  0
  9 27  2  0  0  0
 10 11  2  0  0  0
 10 15  1  0  0  0
 11 12  1  0  0  0
 11 98  1  0  0  0
 12 13  2  0  0  0
 12 99  1  0  0  0
 13 14  1  0  0  0
 13 31  1  0  0  0
 14 15  2  0  0  0
 14100  1  0  0  0
 15101  1  0  0  0
 16 17  2  0  0  0
 16 21  1  0  0  0
 16 31  1  0  0  0
 17 18  1  0  0  0
 17102  1  0  0  0
 18 19  2  0  0  0
 18103  1  0  0  0
 19 20  1  0  0  0
 19 24  1  0  0  0
 20 21  2  0  0  0
 20104  1  0  0  0
 21 23  1  0  0  0
 22 28  1  0  0  0
 22 32  2  0  0  0
 26 27  1  0  0  0
 28105  1  0  0  0
 28106  1  0  0  0
 29107  1  0  0  0
 29108  1  0  0  0
 33 34  1  0  0  0
 33 66  1  0  0  0
 33 70  2  0  0  0
 34 36  1  0  0  0
 34 59  1  0  0  0
 34109  1  0  0  0
 35 44  2  0  0  0
 35 45  1  0  0  0
 35 68  1  0  0  0
 36 56  1  0  0  0
 36110  1  0  0  0
 37 39  1  0  0  0
 37 47  1  0  0  0
 37 66  1  0  0  0
 37111  1  0  0  0
 38 43  2  0  0  0
 38 46  1  0  0  0
 38 47  1  0  0  0
 39 64  1  0  0  0
 39 67  2  0  0  0
 40 52  1  0  0  0
 40 53  2  0  0  0
 40 58  1  0  0  0
 41112  1  0  0  0
 41113  1  0  0  0
 41114  1  0  0  0
 41 48  1  0  0  0
 42 43  1  0  0  0
 42 66  1  0  0  0
 42115  1  0  0  0
 42116  1  0  0  0
 43 44  1  0  0  0
 44117  1  0  0  0
 45 46  2  0  0  0
 45118  1  0  0  0
 46119  1  0  0  0
 47120  1  0  0  0
 47121  1  0  0  0
 48 56  1  0  0  0
 48 65  1  0  0  0
 48122  1  0  0  0
 49 50  1  0  0  0
 49 53  1  0  0  0
 49 64  1  0  0  0
 49123  1  0  0  0
 50 51  1  0  0  0
 50124  1  0  0  0
 50125  1  0  0  0
 51 52  1  0  0  0
 51126  1  0  0  0
 51127  1  0  0  0
 52128  1  0  0  0
 52129  1  0  0  0
 53 54  1  0  0  0
 54 55  2  0  0  0
 54130  1  0  0  0
 55 57  1  0  0  0
 55131  1  0  0  0
 56 69  2  0  0  0
 57 58  2  0  0  0
 57132  1  0  0  0
 58133  1  0  0  0
 59 60  1  0  0  0
 59 61  1  0  0  0
 59 62  1  0  0  0
 60134  1  0  0  0
 60135  1  0  0  0
 60136  1  0  0  0
 61137  1  0  0  0
 61138  1  0  0  0
 61139  1  0  0  0
 62140  1  0  0  0
 62141  1  0  0  0
 62142  1  0  0  0
 63 65  1  0  0  0
 63143  1  0  0  0
 63144  1  0  0  0
 63145  1  0  0  0
 64146  1  0  0  0
 65147  1  0  0  0
 68 85  1  0  0  0
 71 72  2  0  0  0
 71 73  1  0  0  0
 71 80  1  0  0  0
 72 74  1  0  0  0
 72 81  1  0  0  0
 73 75  2  0  0  0
 73 84  1  0  0  0
 74 85  1  0  0  0
 74 86  2  0  0  0
 75 82  1  0  0  0
 75 86  1  0  0  0
 76 78  1  0  0  0
 76 79  1  0  0  0
 76148  1  0  0  0
 76149  1  0  0  0
 77 78  1  0  0  0
 77 87  1  0  0  0
 77150  1  0  0  0
 77151  1  0  0  0
 78 88  1  0  0  0
 78152  1  0  0  0
 79 84  1  0  0  0
 79 87  1  0  0  0
 79153  1  0  0  0
 80154  1  0  0  0
 80155  1  0  0  0
 80156  1  0  0  0
 81157  1  0  0  0
 81158  1  0  0  0
 81159  1  0  0  0
 82160  1  0  0  0
 82161  1  0  0  0
 82162  1  0  0  0
 83 88  1  0  0  0
 83163  1  0  0  0
 83164  1  0  0  0
 83165  1  0  0  0
 84166  1  0  0  0
 84167  1  0  0  0
 85168  1  0  0  0
 85169  1  0  0  0
 88170  1  0  0  0
 88171  1  0  0  0
M  CHG  1  88   1
M  ISO  4   1 100  68 101  85 101  87 100
M  END
> <chiral flag>
0

> <version>
0

> <s_m_source_file>
/data/baiqing/PycharmProjects/Reinvent-master-3.2/result/LINK_invent/BTK/process_docking_weight1_custom_sum_contain_oxygen_bond_distance_aromatic_linkinvent_7_9_3/rearranged_h_0169.sdf

> <i_m_source_file_index>
90

> <r_mmod_Potential_Energy-OPLS-2005>
316.558197021484

> <r_mmod_Stretch_Energy-OPLS-2005>
221.543746948242

> <r_mmod_Bend_Energy-OPLS-2005>
289.734344482422

> <r_mmod_Torsional_Energy-OPLS-2005>
356.058990478516

> <r_mmod_Improper_Torsional_Energy-OPLS-2005>
13.1472730636597

> <r_mmod_Van_der_Waal_Energy-OPLS-2005>
145.604156494141

> <r_mmod_Electrostatic_Energy-OPLS-2005>
-377.500732421875

> <r_mmod_Solvation_Energy-OPLS-2005>
-484.268524169922

> <b_mmod_Minimization_Converged-OPLS-2005>
0

> <r_mmod_RMS_Derivative-OPLS-2005>
1.66896045207977

$$$$
90
                    3D
 Structure written by MMmdl.
163173  0  0  1  0            999 V2000
  -30.6844  -14.6529   20.5073 C   0  0  0  0  0  0
  -30.4236  -12.4111   19.4535 C   0  0  0  0  0  0
  -29.4976  -12.4826   18.2215 C   0  0  0  0  0  0
  -28.0286  -12.3004   18.6438 C   0  0  0  0  0  0
  -27.6385  -13.2048   19.8383 C   0  0  2  0  0  0
  -28.6857  -13.1485   20.9750 C   0  0  0  0  0  0
  -25.2512  -13.8155   20.5659 C   0  0  0  0  0  0
  -24.1786  -13.0429   20.9195 C   0  0  0  0  0  0
  -24.6362  -11.6903   20.8761 C   0  0  0  0  0  0
  -23.9049  -10.4288   21.0423 C   0  0  0  0  0  0
  -24.3616   -9.4212   21.9194 C   0  0  0  0  0  0
  -23.6290   -8.2250   22.0770 C   0  0  0  0  0  0
  -22.4269   -8.0289   21.3558 C   0  0  0  0  0  0
  -21.9900   -9.0260   20.4659 C   0  0  0  0  0  0
  -22.7230  -10.2134   20.3066 C   0  0  0  0  0  0
  -21.6858   -6.0743   22.5287 C   0  0  0  0  0  0
  -21.4022   -6.5647   23.8221 C   0  0  0  0  0  0
  -21.3649   -5.6796   24.9179 C   0  0  0  0  0  0
  -21.6040   -4.3060   24.7233 C   0  0  0  0  0  0
  -21.8829   -3.8159   23.4354 C   0  0  0  0  0  0
  -21.9197   -4.6973   22.3409 C   0  0  0  0  0  0
  -22.7814  -13.5227   21.1850 C   0  0  0  0  0  0
  -22.1654   -4.2157   21.0985 F   0  0  0  0  0  0
  -21.5621   -3.4545   25.7746 F   0  0  0  0  0  0
  -29.9980  -13.4683   20.3962 N   0  0  0  0  0  0
  -26.2911  -12.9308   20.3241 N   0  0  0  0  0  0
  -25.9279  -11.6487   20.5762 N   0  0  0  0  0  0
  -22.0455  -12.8224   22.0410 N   0  0  0  0  0  0
  -25.4202  -15.1874   20.4060 N   0  0  0  0  0  0
  -31.8678  -14.7223   20.1643 O   0  0  0  0  0  0
  -21.6641   -6.8883   21.4245 O   0  0  0  0  0  0
  -22.3495  -14.5525   20.6690 O   0  0  0  0  0  0
  -24.6258  -31.8642   23.2075 C   0  0  0  0  0  0
  -25.9119  -32.4806   23.8389 C   0  0  1  0  0  0
  -27.2177  -27.3372   20.0976 C   0  0  0  0  0  0
  -25.5946  -33.8608   24.2312 N   0  0  0  0  0  0
  -23.4159  -30.4924   21.5520 C   0  0  2  0  0  0
  -24.8571  -28.9560   20.1125 C   0  0  0  0  0  0
  -22.7466  -29.4653   22.4957 C   0  0  0  0  0  0
  -18.0287  -28.1384   22.8492 C   0  0  0  0  0  0
  -24.1487  -36.7289   23.2636 C   0  0  0  0  0  0
  -25.9587  -30.7976   21.3776 C   0  0  0  0  0  0
  -26.0290  -29.4292   20.7151 C   0  0  0  0  0  0
  -27.2098  -28.6311   20.7016 C   0  0  0  0  0  0
  -26.0146  -26.9184   19.4760 C   0  0  0  0  0  0
  -24.8506  -27.7035   19.4878 C   0  0  0  0  0  0
  -23.6275  -29.8369   20.1639 C   0  0  0  0  0  0
  -25.4118  -36.3099   24.0329 C   0  0  1  0  0  0
  -20.5887  -28.3692   23.1284 C   0  0  2  0  0  0
  -20.6789  -26.9421   22.5404 C   0  0  0  0  0  0
  -19.5759  -26.6387   21.5216 C   0  0  0  0  0  0
  -18.1935  -26.7932   22.1623 C   0  0  0  0  0  0
  -19.1538  -28.8856   23.2884 C   0  0  0  0  0  0
  -18.9459  -30.1460   23.8899 C   0  0  0  0  0  0
  -17.6458  -30.6591   24.0563 C   0  0  0  0  0  0
  -25.9058  -34.9469   23.5114 C   0  0  0  0  0  0
  -16.5351  -29.9086   23.6336 C   0  0  0  0  0  0
  -16.7273  -28.6501   23.0362 C   0  0  0  0  0  0
  -26.4499  -31.6617   25.0754 C   0  0  0  0  0  0
  -25.3731  -31.3754   26.1476 C   0  0  0  0  0  0
  -27.0356  -30.3048   24.6212 C   0  0  0  0  0  0
  -27.6069  -32.4359   25.7513 C   0  0  0  0  0  0
  -27.5585  -37.1799   24.8464 C   0  0  0  0  0  0
  -21.4185  -29.3044   22.3677 N   0  0  0  0  0  0
  -26.4295  -37.3794   23.9411 N   0  0  0  0  0  0
  -24.6858  -31.0670   22.1024 N   0  0  0  0  0  0
  -23.4201  -28.8188   23.3024 O   0  0  0  0  0  0
  -28.3481  -26.5026   20.1554 O   0  0  0  0  0  0
  -26.5612  -34.8924   22.4669 O   0  0  0  0  0  0
  -23.5427  -32.1436   23.7416 O   0  0  0  0  0  0
  -30.5387  -24.2877   20.6930 C   0  0  0  0  0  0
  -29.2118  -24.0170   20.2720 C   0  0  0  0  0  0
  -30.9241  -22.0194   21.0859 C   0  0  0  0  0  0
  -29.6099  -21.6919   20.6444 C   0  0  0  0  0  0
  -29.0343  -16.5262   20.1191 C   0  0  0  0  0  0
  -30.6669  -16.8735   21.7172 C   0  0  0  0  0  0
  -28.8425  -17.9749   20.5894 C   0  0  1  0  0  0
  -29.8689  -18.1910   21.6502 C   0  0  2  0  0  0
  -29.8001  -19.1683   20.4656 C   0  0  2  0  0  0
  -31.1327  -25.6829   20.6826 C   0  0  0  0  0  0
  -31.9149  -21.0005   21.6127 C   0  0  0  0  0  0
  -28.4465  -25.1348   18.1379 C   0  0  0  0  0  0
  -28.2614  -25.1089   19.6665 C   0  0  2  0  0  0
  -31.3734  -23.3012   21.1055 N   0  0  0  0  0  0
  -28.7696  -22.7097   20.2567 N   0  0  0  0  0  0
  -30.0246  -15.7893   20.9340 N   0  0  0  0  0  0
  -29.0362  -20.4103   20.6073 O   0  0  0  0  0  0
  -31.4640  -12.5200   19.1406 H   0  0  0  0  0  0
  -30.3576  -11.4329   19.9314 H   0  0  0  0  0  0
  -29.7712  -11.7126   17.4986 H   0  0  0  0  0  0
  -29.6234  -13.4402   17.7138 H   0  0  0  0  0  0
  -27.8885  -11.2514   18.9085 H   0  0  0  0  0  0
  -27.3662  -12.4905   17.7980 H   0  0  0  0  0  0
  -27.6205  -14.2024   19.4150 H   0  0  0  0  0  0
  -28.7050  -12.1578   21.4306 H   0  0  0  0  0  0
  -28.4241  -13.8442   21.7737 H   0  0  0  0  0  0
  -25.2768   -9.5695   22.4756 H   0  0  0  0  0  0
  -24.0014   -7.4642   22.7490 H   0  0  0  0  0  0
  -21.0838   -8.8781   19.8950 H   0  0  0  0  0  0
  -22.3703  -10.9675   19.6173 H   0  0  0  0  0  0
  -21.2016   -7.6158   23.9727 H   0  0  0  0  0  0
  -21.1443   -6.0524   25.9078 H   0  0  0  0  0  0
  -22.0613   -2.7621   23.2859 H   0  0  0  0  0  0
  -22.4070  -11.9887   22.4804 H   0  0  0  0  0  0
  -21.1078  -13.1275   22.2621 H   0  0  0  0  0  0
  -24.6584  -15.8457   20.5343 H   0  0  0  0  0  0
  -26.2732  -15.6289   20.0920 H   0  0  0  0  0  0
  -26.7186  -32.5471   23.1140 H   0  0  0  0  0  0
  -25.0137  -33.9772   25.0484 H   0  0  0  0  0  0
  -22.7094  -31.3137   21.4166 H   0  0  0  0  0  0
  -23.3767  -35.9600   23.3297 H   0  0  0  0  0  0
  -24.3575  -36.8915   22.2049 H   0  0  0  0  0  0
  -23.7221  -37.6480   23.6662 H   0  0  0  0  0  0
  -26.0952  -31.5636   20.6130 H   0  0  0  0  0  0
  -26.8382  -30.8391   22.0093 H   0  0  0  0  0  0
  -28.1089  -28.9934   21.1802 H   0  0  0  0  0  0
  -25.9199  -25.9709   18.9710 H   0  0  0  0  0  0
  -23.9516  -27.3349   19.0133 H   0  0  0  0  0  0
  -23.7498  -30.6204   19.4149 H   0  0  0  0  0  0
  -22.7445  -29.2724   19.8580 H   0  0  0  0  0  0
  -25.1298  -36.1956   25.0822 H   0  0  0  0  0  0
  -20.9988  -28.3268   24.1401 H   0  0  0  0  0  0
  -20.5729  -26.2296   23.3597 H   0  0  0  0  0  0
  -21.6652  -26.7478   22.1170 H   0  0  0  0  0  0
  -19.6925  -25.6300   21.1244 H   0  0  0  0  0  0
  -19.6698  -27.3201   20.6748 H   0  0  0  0  0  0
  -17.4215  -26.6694   21.4014 H   0  0  0  0  0  0
  -18.0323  -26.0066   22.9009 H   0  0  0  0  0  0
  -19.7931  -30.7278   24.2270 H   0  0  0  0  0  0
  -17.5011  -31.6275   24.5156 H   0  0  0  0  0  0
  -15.5354  -30.2990   23.7658 H   0  0  0  0  0  0
  -15.8671  -28.0821   22.7084 H   0  0  0  0  0  0
  -24.5879  -30.7143   25.7785 H   0  0  0  0  0  0
  -24.8944  -32.2921   26.4930 H   0  0  0  0  0  0
  -25.8030  -30.8890   27.0241 H   0  0  0  0  0  0
  -26.2937  -29.6791   24.1230 H   0  0  0  0  0  0
  -27.4056  -29.7315   25.4723 H   0  0  0  0  0  0
  -27.8805  -30.4348   23.9446 H   0  0  0  0  0  0
  -27.2692  -33.3665   26.2088 H   0  0  0  0  0  0
  -28.3867  -32.6918   25.0329 H   0  0  0  0  0  0
  -28.0752  -31.8494   26.5427 H   0  0  0  0  0  0
  -28.2599  -38.0102   24.7544 H   0  0  0  0  0  0
  -28.1091  -36.2639   24.6264 H   0  0  0  0  0  0
  -27.2302  -37.1420   25.8865 H   0  0  0  0  0  0
  -20.9362  -29.8748   21.6869 H   0  0  0  0  0  0
  -26.0181  -38.2864   24.1428 H   0  0  0  0  0  0
  -29.2987  -16.5129   19.0601 H   0  0  0  0  0  0
  -28.0706  -16.0462   20.2305 H   0  0  0  0  0  0
  -31.6827  -17.0574   21.3653 H   0  0  0  0  0  0
  -30.7448  -16.5559   22.7583 H   0  0  0  0  0  0
  -27.8132  -18.2245   20.8446 H   0  0  0  0  0  0
  -29.5145  -18.5665   22.6087 H   0  0  0  0  0  0
  -30.5426  -19.1565   19.6704 H   0  0  0  0  0  0
  -31.0141  -26.1462   19.7036 H   0  0  0  0  0  0
  -32.1989  -25.6666   20.9123 H   0  0  0  0  0  0
  -30.6412  -26.3126   21.4239 H   0  0  0  0  0  0
  -31.4533  -20.3714   22.3730 H   0  0  0  0  0  0
  -32.7753  -21.4873   22.0741 H   0  0  0  0  0  0
  -32.2871  -20.3747   20.8034 H   0  0  0  0  0  0
  -28.2856  -24.1467   17.7067 H   0  0  0  0  0  0
  -29.4567  -25.4491   17.8763 H   0  0  0  0  0  0
  -27.7601  -25.8217   17.6461 H   0  0  0  0  0  0
  -27.2757  -24.7141   19.9100 H   0  0  0  0  0  0
  1 25  1  0  0  0
  1 30  2  0  0  0
  1 86  1  0  0  0
  2  3  1  0  0  0
  2 25  1  0  0  0
  2 88  1  0  0  0
  2 89  1  0  0  0
  3  4  1  0  0  0
  3 90  1  0  0  0
  3 91  1  0  0  0
  4  5  1  0  0  0
  4 92  1  0  0  0
  4 93  1  0  0  0
  5  6  1  0  0  0
  5 26  1  0  0  0
  5 94  1  0  0  0
  6 25  1  0  0  0
  6 95  1  0  0  0
  6 96  1  0  0  0
  7  8  2  0  0  0
  7 26  1  0  0  0
  7 29  1  0  0  0
  8  9  1  0  0  0
  8 22  1  0  0  0
  9 10  1  0  0  0
  9 27  2  0  0  0
 10 11  2  0  0  0
 10 15  1  0  0  0
 11 12  1  0  0  0
 11 97  1  0  0  0
 12 13  2  0  0  0
 12 98  1  0  0  0
 13 14  1  0  0  0
 13 31  1  0  0  0
 14 15  2  0  0  0
 14 99  1  0  0  0
 15100  1  0  0  0
 16 17  2  0  0  0
 16 21  1  0  0  0
 16 31  1  0  0  0
 17 18  1  0  0  0
 17101  1  0  0  0
 18 19  2  0  0  0
 18102  1  0  0  0
 19 20  1  0  0  0
 19 24  1  0  0  0
 20 21  2  0  0  0
 20103  1  0  0  0
 21 23  1  0  0  0
 22 28  1  0  0  0
 22 32  2  0  0  0
 26 27  1  0  0  0
 28104  1  0  0  0
 28105  1  0  0  0
 29106  1  0  0  0
 29107  1  0  0  0
 33 34  1  0  0  0
 33 66  1  0  0  0
 33 70  2  0  0  0
 34 36  1  0  0  0
 34 59  1  0  0  0
 34108  1  0  0  0
 35 44  2  0  0  0
 35 45  1  0  0  0
 35 68  1  0  0  0
 36 56  1  0  0  0
 36109  1  0  0  0
 37 39  1  0  0  0
 37 47  1  0  0  0
 37 66  1  0  0  0
 37110  1  0  0  0
 38 43  2  0  0  0
 38 46  1  0  0  0
 38 47  1  0  0  0
 39 64  1  0  0  0
 39 67  2  0  0  0
 40 52  1  0  0  0
 40 53  2  0  0  0
 40 58  1  0  0  0
 41111  1  0  0  0
 41112  1  0  0  0
 41113  1  0  0  0
 41 48  1  0  0  0
 42 43  1  0  0  0
 42 66  1  0  0  0
 42114  1  0  0  0
 42115  1  0  0  0
 43 44  1  0  0  0
 44116  1  0  0  0
 45 46  2  0  0  0
 45117  1  0  0  0
 46118  1  0  0  0
 47119  1  0  0  0
 47120  1  0  0  0
 48 56  1  0  0  0
 48 65  1  0  0  0
 48121  1  0  0  0
 49 50  1  0  0  0
 49 53  1  0  0  0
 49 64  1  0  0  0
 49122  1  0  0  0
 50 51  1  0  0  0
 50123  1  0  0  0
 50124  1  0  0  0
 51 52  1  0  0  0
 51125  1  0  0  0
 51126  1  0  0  0
 52127  1  0  0  0
 52128  1  0  0  0
 53 54  1  0  0  0
 54 55  2  0  0  0
 54129  1  0  0  0
 55 57  1  0  0  0
 55130  1  0  0  0
 56 69  2  0  0  0
 57 58  2  0  0  0
 57131  1  0  0  0
 58132  1  0  0  0
 59 60  1  0  0  0
 59 61  1  0  0  0
 59 62  1  0  0  0
 60133  1  0  0  0
 60134  1  0  0  0
 60135  1  0  0  0
 61136  1  0  0  0
 61137  1  0  0  0
 61138  1  0  0  0
 62139  1  0  0  0
 62140  1  0  0  0
 62141  1  0  0  0
 63 65  1  0  0  0
 63142  1  0  0  0
 63143  1  0  0  0
 63144  1  0  0  0
 64145  1  0  0  0
 65146  1  0  0  0
 68 83  1  0  0  0
 71 72  2  0  0  0
 71 80  1  0  0  0
 71 84  1  0  0  0
 72 83  1  0  0  0
 72 85  1  0  0  0
 73 74  1  0  0  0
 73 81  1  0  0  0
 73 84  2  0  0  0
 74 85  2  0  0  0
 74 87  1  0  0  0
 75 86  1  0  0  0
 75147  1  0  0  0
 75148  1  0  0  0
 75 77  1  0  0  0
 76 86  1  0  0  0
 76149  1  0  0  0
 76150  1  0  0  0
 76 78  1  0  0  0
 77 78  1  0  0  0
 77 79  1  0  0  0
 77151  1  0  0  0
 78 79  1  0  0  0
 78152  1  0  0  0
 79 87  1  0  0  0
 79153  1  0  0  0
 80154  1  0  0  0
 80155  1  0  0  0
 80156  1  0  0  0
 81157  1  0  0  0
 81158  1  0  0  0
 81159  1  0  0  0
 82160  1  0  0  0
 82161  1  0  0  0
 82162  1  0  0  0
 82 83  1  0  0  0
 83163  1  0  0  0
M  ISO  4   1 100  68 101  83 101  86 100
M  END
> <chiral flag>
0

> <version>
0

> <s_m_source_file>
/data/baiqing/PycharmProjects/Reinvent-master-3.2/result/LINK_invent/BTK/process_docking_weight1_custom_sum_contain_oxygen_bond_distance_aromatic_linkinvent_7_9_3/rearranged_h_0169.sdf

> <i_m_source_file_index>
91

> <r_mmod_Potential_Energy-OPLS-2005>
385.413970947266

> <r_mmod_Stretch_Energy-OPLS-2005>
76.355110168457

> <r_mmod_Bend_Energy-OPLS-2005>
208.818572998047

> <r_mmod_Torsional_Energy-OPLS-2005>
369.957489013672

> <r_mmod_Improper_Torsional_Energy-OPLS-2005>
5.85867118835449

> <r_mmod_Van_der_Waal_Energy-OPLS-2005>
148.95539855957

> <r_mmod_Electrostatic_Energy-OPLS-2005>
-263.323577880859

> <r_mmod_Solvation_Energy-OPLS-2005>
-213.055572509766

> <b_mmod_Minimization_Converged-OPLS-2005>
0

> <r_mmod_RMS_Derivative-OPLS-2005>
1.6996853351593

$$$$
91
                    3D
 Structure written by MMmdl.
162171  0  0  1  0            999 V2000
  -30.5105  -15.0094   20.4192 C   0  0  0  0  0  0
  -30.4503  -12.6292   19.5100 C   0  0  0  0  0  0
  -29.5408  -12.5120   18.2641 C   0  0  0  0  0  0
  -28.0735  -12.2855   18.6814 C   0  0  0  0  0  0
  -27.6337  -13.2286   19.8300 C   0  0  2  0  0  0
  -28.6686  -13.2448   20.9630 C   0  0  0  0  0  0
  -25.2573  -13.8136   20.5744 C   0  0  0  0  0  0
  -24.1823  -13.0402   20.9192 C   0  0  0  0  0  0
  -24.6403  -11.6878   20.8732 C   0  0  0  0  0  0
  -23.9077  -10.4256   21.0421 C   0  0  0  0  0  0
  -24.3625   -9.4172   21.9193 C   0  0  0  0  0  0
  -23.6314   -8.2198   22.0749 C   0  0  0  0  0  0
  -22.4290   -8.0259   21.3528 C   0  0  0  0  0  0
  -21.9941   -9.0228   20.4631 C   0  0  0  0  0  0
  -22.7254  -10.2116   20.3062 C   0  0  0  0  0  0
  -21.6852   -6.0735   22.5267 C   0  0  0  0  0  0
  -21.4004   -6.5633   23.8204 C   0  0  0  0  0  0
  -21.3678   -5.6782   24.9168 C   0  0  0  0  0  0
  -21.6069   -4.3049   24.7212 C   0  0  0  0  0  0
  -21.8807   -3.8146   23.4332 C   0  0  0  0  0  0
  -21.9173   -4.6956   22.3387 C   0  0  0  0  0  0
  -22.7864  -13.5242   21.1822 C   0  0  0  0  0  0
  -22.1635   -4.2136   21.0966 F   0  0  0  0  0  0
  -21.5661   -3.4537   25.7737 F   0  0  0  0  0  0
  -29.9256  -13.7327   20.3735 N   0  0  0  0  0  0
  -26.2927  -12.9305   20.3192 N   0  0  0  0  0  0
  -25.9331  -11.6450   20.5674 N   0  0  0  0  0  0
  -22.0526  -12.8253   22.0390 N   0  0  0  0  0  0
  -25.4350  -15.1860   20.4338 N   0  0  0  0  0  0
  -31.7127  -15.0422   20.1156 O   0  0  0  0  0  0
  -21.6631   -6.8877   21.4239 O   0  0  0  0  0  0
  -22.3554  -14.5531   20.6651 O   0  0  0  0  0  0
  -24.6496  -31.8415   23.1889 C   0  0  0  0  0  0
  -25.9227  -32.4693   23.8306 C   0  0  1  0  0  0
  -27.1921  -27.0882   20.1554 C   0  0  0  0  0  0
  -25.5945  -33.8502   24.2204 N   0  0  0  0  0  0
  -23.4549  -30.4619   21.5367 C   0  0  2  0  0  0
  -24.9011  -28.8879   20.1095 C   0  0  0  0  0  0
  -22.7600  -29.4529   22.4865 C   0  0  0  0  0  0
  -18.0300  -28.1412   22.8467 C   0  0  0  0  0  0
  -24.1476  -36.7269   23.2643 C   0  0  0  0  0  0
  -26.0147  -30.7033   21.3919 C   0  0  0  0  0  0
  -26.0818  -29.3094   20.7321 C   0  0  0  0  0  0
  -27.2356  -28.4304   20.7299 C   0  0  0  0  0  0
  -25.9960  -26.7919   19.4713 C   0  0  0  0  0  0
  -24.8738  -27.6460   19.4565 C   0  0  0  0  0  0
  -23.6827  -29.7970   20.1555 C   0  0  0  0  0  0
  -25.4109  -36.3047   24.0320 C   0  0  1  0  0  0
  -20.5919  -28.3726   23.1238 C   0  0  2  0  0  0
  -20.6786  -26.9428   22.5416 C   0  0  0  0  0  0
  -19.5765  -26.6380   21.5222 C   0  0  0  0  0  0
  -18.1940  -26.7948   22.1619 C   0  0  0  0  0  0
  -19.1557  -28.8888   23.2835 C   0  0  0  0  0  0
  -18.9467  -30.1482   23.8872 C   0  0  0  0  0  0
  -17.6465  -30.6597   24.0563 C   0  0  0  0  0  0
  -25.9061  -34.9410   23.5069 C   0  0  0  0  0  0
  -16.5358  -29.9096   23.6337 C   0  0  0  0  0  0
  -16.7281  -28.6517   23.0345 C   0  0  0  0  0  0
  -26.4516  -31.6591   25.0775 C   0  0  0  0  0  0
  -25.3669  -31.3811   26.1458 C   0  0  0  0  0  0
  -27.0375  -30.2974   24.6398 C   0  0  0  0  0  0
  -27.6038  -32.4361   25.7565 C   0  0  0  0  0  0
  -27.5576  -37.1794   24.8452 C   0  0  0  0  0  0
  -21.4286  -29.3042   22.3615 N   0  0  0  0  0  0
  -26.4273  -37.3761   23.9415 N   0  0  0  0  0  0
  -24.7270  -31.0234   22.0940 N   0  0  0  0  0  0
  -23.4222  -28.8059   23.3020 O   0  0  0  0  0  0
  -28.2061  -26.0521   20.1905 O   0  0  0  0  0  0
  -26.5645  -34.8907   22.4654 O   0  0  0  0  0  0
  -23.5597  -32.1296   23.7076 O   0  0  0  0  0  0
  -30.2008  -21.0257   18.9953 C   0  0  0  0  0  0
  -28.5550  -21.7420   20.5471 C   0  0  0  0  0  0
  -29.3387  -20.5806   20.0151 C   0  0  0  0  0  0
  -30.3038  -22.3737   18.5915 C   0  0  0  0  0  0
  -28.6761  -23.1665   20.0697 C   0  0  0  0  0  0
  -28.8697  -18.3492   21.6964 C   0  0  0  0  0  0
  -29.5835  -18.9824   20.5131 C   0  0  1  0  0  0
  -29.5480  -16.9232   21.8599 C   0  0  1  0  0  0
  -29.7102  -17.5588   19.6592 C   0  0  1  0  0  0
  -31.3588  -22.7513   17.5757 C   0  0  0  0  0  0
  -28.8609  -16.0815   22.9372 C   0  0  0  0  0  0
  -30.7897  -17.6008   18.5658 C   0  0  0  0  0  0
  -27.8447  -24.5439   20.5201 C   0  0  0  0  0  0
  -29.5715  -23.3977   19.0867 N   0  0  0  0  0  0
  -29.7541  -16.2451   20.5415 N   0  0  0  0  0  0
  -31.4815  -12.8083   19.1974 H   0  0  0  0  0  0
  -30.4737  -11.6867   20.0605 H   0  0  0  0  0  0
  -29.8862  -11.6857   17.6390 H   0  0  0  0  0  0
  -29.6192  -13.4164   17.6608 H   0  0  0  0  0  0
  -28.0024  -11.2550   19.0291 H   0  0  0  0  0  0
  -27.4039  -12.3616   17.8227 H   0  0  0  0  0  0
  -27.6021  -14.2320   19.4077 H   0  0  0  0  0  0
  -28.7863  -12.2485   21.3971 H   0  0  0  0  0  0
  -28.3080  -13.8700   21.7675 H   0  0  0  0  0  0
  -25.2778   -9.5653   22.4763 H   0  0  0  0  0  0
  -24.0029   -7.4596   22.7475 H   0  0  0  0  0  0
  -21.0880   -8.8770   19.8932 H   0  0  0  0  0  0
  -22.3741  -10.9668   19.6185 H   0  0  0  0  0  0
  -21.1984   -7.6138   23.9716 H   0  0  0  0  0  0
  -21.1547   -6.0501   25.9074 H   0  0  0  0  0  0
  -22.0586   -2.7606   23.2809 H   0  0  0  0  0  0
  -22.4229  -11.9966   22.4788 H   0  0  0  0  0  0
  -21.1143  -13.1235   22.2593 H   0  0  0  0  0  0
  -24.6853  -15.8488   20.5965 H   0  0  0  0  0  0
  -26.3195  -15.6278   20.2130 H   0  0  0  0  0  0
  -26.7309  -32.5281   23.1043 H   0  0  0  0  0  0
  -25.0072  -33.9610   25.0344 H   0  0  0  0  0  0
  -22.7583  -31.2898   21.3839 H   0  0  0  0  0  0
  -23.3746  -35.9591   23.3272 H   0  0  0  0  0  0
  -24.3572  -36.8935   22.2065 H   0  0  0  0  0  0
  -23.7203  -37.6447   23.6696 H   0  0  0  0  0  0
  -26.1719  -31.4569   20.6195 H   0  0  0  0  0  0
  -26.8856  -30.7570   22.0348 H   0  0  0  0  0  0
  -28.1432  -28.7529   21.2190 H   0  0  0  0  0  0
  -25.9059  -25.8566   18.9369 H   0  0  0  0  0  0
  -23.9809  -27.3332   18.9340 H   0  0  0  0  0  0
  -23.8255  -30.5740   19.4038 H   0  0  0  0  0  0
  -22.7947  -29.2476   19.8398 H   0  0  0  0  0  0
  -25.1289  -36.1891   25.0811 H   0  0  0  0  0  0
  -20.9986  -28.3315   24.1369 H   0  0  0  0  0  0
  -20.5688  -26.2340   23.3631 H   0  0  0  0  0  0
  -21.6649  -26.7444   22.1212 H   0  0  0  0  0  0
  -19.6926  -25.6277   21.1282 H   0  0  0  0  0  0
  -19.6719  -27.3159   20.6723 H   0  0  0  0  0  0
  -17.4217  -26.6678   21.4015 H   0  0  0  0  0  0
  -18.0333  -26.0110   22.9035 H   0  0  0  0  0  0
  -19.7934  -30.7299   24.2247 H   0  0  0  0  0  0
  -17.5009  -31.6269   24.5171 H   0  0  0  0  0  0
  -15.5350  -30.2983   23.7685 H   0  0  0  0  0  0
  -15.8679  -28.0834   22.7075 H   0  0  0  0  0  0
  -24.5825  -30.7190   25.7780 H   0  0  0  0  0  0
  -24.8877  -32.3001   26.4835 H   0  0  0  0  0  0
  -25.7915  -30.9008   27.0279 H   0  0  0  0  0  0
  -26.3011  -29.6703   24.1356 H   0  0  0  0  0  0
  -27.3895  -29.7288   25.5018 H   0  0  0  0  0  0
  -27.8960  -30.4195   23.9789 H   0  0  0  0  0  0
  -27.2620  -33.3666   26.2110 H   0  0  0  0  0  0
  -28.3865  -32.6919   25.0411 H   0  0  0  0  0  0
  -28.0686  -31.8512   26.5508 H   0  0  0  0  0  0
  -28.2568  -38.0119   24.7522 H   0  0  0  0  0  0
  -28.1093  -36.2641   24.6232 H   0  0  0  0  0  0
  -27.2303  -37.1400   25.8858 H   0  0  0  0  0  0
  -20.9525  -29.8764   21.6792 H   0  0  0  0  0  0
  -26.0139  -38.2833   24.1431 H   0  0  0  0  0  0
  -30.8873  -20.3271   18.5496 H   0  0  0  0  0  0
  -27.8671  -21.5472   21.3588 H   0  0  0  0  0  0
  -27.8036  -18.2622   21.4791 H   0  0  0  0  0  0
  -28.9653  -18.9506   22.5994 H   0  0  0  0  0  0
  -30.6022  -19.1069   20.8812 H   0  0  0  0  0  0
  -30.5638  -17.0955   22.2309 H   0  0  0  0  0  0
  -28.7682  -17.4567   19.1166 H   0  0  0  0  0  0
  -32.0136  -21.9016   17.3836 H   0  0  0  0  0  0
  -31.9774  -23.5704   17.9457 H   0  0  0  0  0  0
  -30.9073  -23.0472   16.6294 H   0  0  0  0  0  0
  -27.8027  -15.9347   22.7128 H   0  0  0  0  0  0
  -28.9240  -16.5861   23.8989 H   0  0  0  0  0  0
  -29.3504  -15.1195   23.0840 H   0  0  0  0  0  0
  -31.7805  -17.7618   18.9922 H   0  0  0  0  0  0
  -30.5869  -18.3958   17.8512 H   0  0  0  0  0  0
  -30.8096  -16.6811   17.9827 H   0  0  0  0  0  0
  -27.7973  -24.5046   21.6092 H   0  0  0  0  0  0
  -26.8166  -24.3618   20.2131 H   0  0  0  0  0  0
  1 25  1  0  0  0
  1 30  2  0  0  0
  1 85  1  0  0  0
  2  3  1  0  0  0
  2 25  1  0  0  0
  2 86  1  0  0  0
  2 87  1  0  0  0
  3  4  1  0  0  0
  3 88  1  0  0  0
  3 89  1  0  0  0
  4  5  1  0  0  0
  4 90  1  0  0  0
  4 91  1  0  0  0
  5  6  1  0  0  0
  5 26  1  0  0  0
  5 92  1  0  0  0
  6 25  1  0  0  0
  6 93  1  0  0  0
  6 94  1  0  0  0
  7  8  2  0  0  0
  7 26  1  0  0  0
  7 29  1  0  0  0
  8  9  1  0  0  0
  8 22  1  0  0  0
  9 10  1  0  0  0
  9 27  2  0  0  0
 10 11  2  0  0  0
 10 15  1  0  0  0
 11 12  1  0  0  0
 11 95  1  0  0  0
 12 13  2  0  0  0
 12 96  1  0  0  0
 13 14  1  0  0  0
 13 31  1  0  0  0
 14 15  2  0  0  0
 14 97  1  0  0  0
 15 98  1  0  0  0
 16 17  2  0  0  0
 16 21  1  0  0  0
 16 31  1  0  0  0
 17 18  1  0  0  0
 17 99  1  0  0  0
 18 19  2  0  0  0
 18100  1  0  0  0
 19 20  1  0  0  0
 19 24  1  0  0  0
 20 21  2  0  0  0
 20101  1  0  0  0
 21 23  1  0  0  0
 22 28  1  0  0  0
 22 32  2  0  0  0
 26 27  1  0  0  0
 28102  1  0  0  0
 28103  1  0  0  0
 29104  1  0  0  0
 29105  1  0  0  0
 33 34  1  0  0  0
 33 66  1  0  0  0
 33 70  2  0  0  0
 34 36  1  0  0  0
 34 59  1  0  0  0
 34106  1  0  0  0
 35 44  2  0  0  0
 35 45  1  0  0  0
 35 68  1  0  0  0
 36 56  1  0  0  0
 36107  1  0  0  0
 37 39  1  0  0  0
 37 47  1  0  0  0
 37 66  1  0  0  0
 37108  1  0  0  0
 38 43  2  0  0  0
 38 46  1  0  0  0
 38 47  1  0  0  0
 39 64  1  0  0  0
 39 67  2  0  0  0
 40 52  1  0  0  0
 40 53  2  0  0  0
 40 58  1  0  0  0
 41109  1  0  0  0
 41110  1  0  0  0
 41111  1  0  0  0
 41 48  1  0  0  0
 42 43  1  0  0  0
 42 66  1  0  0  0
 42112  1  0  0  0
 42113  1  0  0  0
 43 44  1  0  0  0
 44114  1  0  0  0
 45 46  2  0  0  0
 45115  1  0  0  0
 46116  1  0  0  0
 47117  1  0  0  0
 47118  1  0  0  0
 48 56  1  0  0  0
 48 65  1  0  0  0
 48119  1  0  0  0
 49 50  1  0  0  0
 49 53  1  0  0  0
 49 64  1  0  0  0
 49120  1  0  0  0
 50 51  1  0  0  0
 50121  1  0  0  0
 50122  1  0  0  0
 51 52  1  0  0  0
 51123  1  0  0  0
 51124  1  0  0  0
 52125  1  0  0  0
 52126  1  0  0  0
 53 54  1  0  0  0
 54 55  2  0  0  0
 54127  1  0  0  0
 55 57  1  0  0  0
 55128  1  0  0  0
 56 69  2  0  0  0
 57 58  2  0  0  0
 57129  1  0  0  0
 58130  1  0  0  0
 59 60  1  0  0  0
 59 61  1  0  0  0
 59 62  1  0  0  0
 60131  1  0  0  0
 60132  1  0  0  0
 60133  1  0  0  0
 61134  1  0  0  0
 61135  1  0  0  0
 61136  1  0  0  0
 62137  1  0  0  0
 62138  1  0  0  0
 62139  1  0  0  0
 63 65  1  0  0  0
 63140  1  0  0  0
 63141  1  0  0  0
 63142  1  0  0  0
 64143  1  0  0  0
 65144  1  0  0  0
 68 83  1  0  0  0
 71 73  2  0  0  0
 71 74  1  0  0  0
 71145  1  0  0  0
 72 73  1  0  0  0
 72 75  2  0  0  0
 72146  1  0  0  0
 73 77  1  0  0  0
 74 80  1  0  0  0
 74 84  2  0  0  0
 75 83  1  0  0  0
 75 84  1  0  0  0
 76 77  1  0  0  0
 76 78  1  0  0  0
 76147  1  0  0  0
 76148  1  0  0  0
 77 79  1  0  0  0
 77149  1  0  0  0
 78 81  1  0  0  0
 78 85  1  0  0  0
 78150  1  0  0  0
 79 82  1  0  0  0
 79 85  1  0  0  0
 79151  1  0  0  0
 80152  1  0  0  0
 80153  1  0  0  0
 80154  1  0  0  0
 81155  1  0  0  0
 81156  1  0  0  0
 81157  1  0  0  0
 82158  1  0  0  0
 82159  1  0  0  0
 82160  1  0  0  0
 83161  1  0  0  0
 83162  1  0  0  0
M  ISO  4   1 100  68 101  83 101  85 100
M  END
> <chiral flag>
0

> <version>
0

> <s_m_source_file>
/data/baiqing/PycharmProjects/Reinvent-master-3.2/result/LINK_invent/BTK/process_docking_weight1_custom_sum_contain_oxygen_bond_distance_aromatic_linkinvent_7_9_3/rearranged_h_0169.sdf

> <i_m_source_file_index>
92

> <r_mmod_Potential_Energy-OPLS-2005>
821.751525878906

> <r_mmod_Stretch_Energy-OPLS-2005>
315.127685546875

> <r_mmod_Bend_Energy-OPLS-2005>
359.958618164062

> <r_mmod_Torsional_Energy-OPLS-2005>
340.461334228516

> <r_mmod_Improper_Torsional_Energy-OPLS-2005>
10.8142223358154

> <r_mmod_Van_der_Waal_Energy-OPLS-2005>
131.228775024414

> <r_mmod_Electrostatic_Energy-OPLS-2005>
-363.406829833984

> <r_mmod_Solvation_Energy-OPLS-2005>
-207.222381591797

> <b_mmod_Minimization_Converged-OPLS-2005>
0

> <r_mmod_RMS_Derivative-OPLS-2005>
5.24722528457642

$$$$
92
                    3D
 Structure written by MMmdl.
174183  0  0  1  0            999 V2000
  -30.7338  -14.4688   20.4775 C   0  0  0  0  0  0
  -30.3992  -12.2776   19.4484 C   0  0  0  0  0  0
  -29.4865  -12.4525   18.2164 C   0  0  0  0  0  0
  -28.0066  -12.3425   18.6239 C   0  0  0  0  0  0
  -27.6501  -13.2196   19.8548 C   0  0  2  0  0  0
  -28.6894  -13.0635   20.9834 C   0  0  0  0  0  0
  -25.2555  -13.8205   20.5678 C   0  0  0  0  0  0
  -24.1821  -13.0459   20.9169 C   0  0  0  0  0  0
  -24.6396  -11.6935   20.8748 C   0  0  0  0  0  0
  -23.9078  -10.4315   21.0423 C   0  0  0  0  0  0
  -24.3634   -9.4223   21.9186 C   0  0  0  0  0  0
  -23.6305   -8.2256   22.0755 C   0  0  0  0  0  0
  -22.4292   -8.0285   21.3546 C   0  0  0  0  0  0
  -21.9929   -9.0261   20.4643 C   0  0  0  0  0  0
  -22.7256  -10.2140   20.3062 C   0  0  0  0  0  0
  -21.6856   -6.0740   22.5283 C   0  0  0  0  0  0
  -21.4028   -6.5654   23.8218 C   0  0  0  0  0  0
  -21.3658   -5.6809   24.9182 C   0  0  0  0  0  0
  -21.6046   -4.3067   24.7231 C   0  0  0  0  0  0
  -21.8827   -3.8157   23.4355 C   0  0  0  0  0  0
  -21.9195   -4.6969   22.3410 C   0  0  0  0  0  0
  -22.7843  -13.5230   21.1838 C   0  0  0  0  0  0
  -22.1656   -4.2154   21.0983 F   0  0  0  0  0  0
  -21.5619   -3.4554   25.7745 F   0  0  0  0  0  0
  -30.0232  -13.3114   20.4255 N   0  0  0  0  0  0
  -26.2981  -12.9404   20.3311 N   0  0  0  0  0  0
  -25.9322  -11.6553   20.5773 N   0  0  0  0  0  0
  -22.0498  -12.8202   22.0389 N   0  0  0  0  0  0
  -25.4299  -15.1920   20.4116 N   0  0  0  0  0  0
  -31.9311  -14.5158   20.1894 O   0  0  0  0  0  0
  -21.6647   -6.8883   21.4243 O   0  0  0  0  0  0
  -22.3514  -14.5535   20.6690 O   0  0  0  0  0  0
  -24.6149  -31.8698   23.2139 C   0  0  0  0  0  0
  -25.9053  -32.4830   23.8407 C   0  0  1  0  0  0
  -27.2134  -27.4405   20.0751 C   0  0  0  0  0  0
  -25.5910  -33.8623   24.2337 N   0  0  0  0  0  0
  -23.3986  -30.4998   21.5567 C   0  0  2  0  0  0
  -24.8367  -28.9773   20.1110 C   0  0  0  0  0  0
  -22.7397  -29.4677   22.5000 C   0  0  0  0  0  0
  -18.0267  -28.1362   22.8502 C   0  0  0  0  0  0
  -24.1494  -36.7316   23.2636 C   0  0  0  0  0  0
  -25.9308  -30.8398   21.3651 C   0  0  0  0  0  0
  -26.0037  -29.4798   20.7019 C   0  0  0  0  0  0
  -27.1974  -28.7217   20.6762 C   0  0  0  0  0  0
  -26.0238  -26.9617   19.4734 C   0  0  0  0  0  0
  -24.8426  -27.7190   19.4941 C   0  0  0  0  0  0
  -23.6012  -29.8431   20.1681 C   0  0  0  0  0  0
  -25.4119  -36.3112   24.0334 C   0  0  1  0  0  0
  -20.5861  -28.3651   23.1325 C   0  0  2  0  0  0
  -20.6760  -26.9390   22.5417 C   0  0  0  0  0  0
  -19.5736  -26.6380   21.5209 C   0  0  0  0  0  0
  -18.1909  -26.7917   22.1624 C   0  0  0  0  0  0
  -19.1517  -28.8827   23.2912 C   0  0  0  0  0  0
  -18.9443  -30.1442   23.8911 C   0  0  0  0  0  0
  -17.6445  -30.6583   24.0563 C   0  0  0  0  0  0
  -25.9041  -34.9475   23.5130 C   0  0  0  0  0  0
  -16.5340  -29.9080   23.6330 C   0  0  0  0  0  0
  -16.7259  -28.6493   23.0356 C   0  0  0  0  0  0
  -26.4480  -31.6596   25.0716 C   0  0  0  0  0  0
  -25.3754  -31.3674   26.1465 C   0  0  0  0  0  0
  -27.0302  -30.3040   24.6078 C   0  0  0  0  0  0
  -27.6044  -32.4316   25.7492 C   0  0  0  0  0  0
  -27.5591  -37.1813   24.8463 C   0  0  0  0  0  0
  -21.4126  -29.3032   22.3740 N   0  0  0  0  0  0
  -26.4303  -37.3797   23.9409 N   0  0  0  0  0  0
  -24.6671  -31.0819   22.1030 N   0  0  0  0  0  0
  -23.4183  -28.8196   23.3012 O   0  0  0  0  0  0
  -28.3706  -26.6843   20.0973 O   0  0  0  0  0  0
  -26.5596  -34.8926   22.4684 O   0  0  0  0  0  0
  -23.5350  -32.1438   23.7557 O   0  0  0  0  0  0
  -29.5072  -16.2838   21.7585 C   0  0  0  0  0  0
  -30.0416  -15.8162   20.5445 C   0  0  0  0  0  0
  -29.3427  -18.5855   20.8828 C   0  0  0  0  0  0
  -29.1506  -17.6398   21.9341 C   0  0  0  0  0  0
  -30.1130  -16.7194   19.4423 C   0  0  0  0  0  0
  -29.7675  -18.0924   19.6100 C   0  0  0  0  0  0
  -30.3395  -22.3888   21.4496 C   0  0  0  0  0  0
  -28.4153  -22.2134   19.8646 C   0  0  0  0  0  0
  -29.2127  -20.1121   21.1730 C   0  0  1  0  0  0
  -30.5388  -20.9091   21.0273 C   0  0  2  0  0  0
  -28.0217  -20.8398   20.4778 C   0  0  1  0  0  0
  -28.6435  -18.0458   23.3116 C   0  0  0  0  0  0
  -30.6193  -16.2612   18.0651 C   0  0  0  0  0  0
  -29.9558  -19.0172   18.4044 C   0  0  0  0  0  0
  -31.7011  -20.2713   21.8130 C   0  0  0  0  0  0
  -29.4301  -24.4621   20.4261 C   0  0  0  0  0  0
  -28.1725  -25.2618   20.0404 C   0  0  0  0  0  0
  -29.1423  -23.0547   20.8547 N   0  3  2  0  0  0
  -26.9840  -21.0749   21.4204 O   0  0  0  0  0  0
  -31.4474  -12.3320   19.1502 H   0  0  0  0  0  0
  -30.2638  -11.2873   19.8868 H   0  0  0  0  0  0
  -29.7210  -11.6943   17.4694 H   0  0  0  0  0  0
  -29.6637  -13.4135   17.7369 H   0  0  0  0  0  0
  -27.8079  -11.2933   18.8443 H   0  0  0  0  0  0
  -27.3637  -12.5978   17.7812 H   0  0  0  0  0  0
  -27.6786  -14.2569   19.5207 H   0  0  0  0  0  0
  -28.6511  -12.0567   21.4015 H   0  0  0  0  0  0
  -28.4622  -13.7365   21.8091 H   0  0  0  0  0  0
  -25.2787   -9.5690   22.4756 H   0  0  0  0  0  0
  -24.0011   -7.4666   22.7494 H   0  0  0  0  0  0
  -21.0854   -8.8794   19.8955 H   0  0  0  0  0  0
  -22.3725  -10.9680   19.6175 H   0  0  0  0  0  0
  -21.2034   -7.6169   23.9721 H   0  0  0  0  0  0
  -21.1462   -6.0541   25.9082 H   0  0  0  0  0  0
  -22.0600   -2.7616   23.2869 H   0  0  0  0  0  0
  -22.4125  -11.9849   22.4754 H   0  0  0  0  0  0
  -21.1115  -13.1213   22.2628 H   0  0  0  0  0  0
  -24.6767  -15.8576   20.5417 H   0  0  0  0  0  0
  -26.3061  -15.6269   20.1488 H   0  0  0  0  0  0
  -26.7108  -32.5544   23.1156 H   0  0  0  0  0  0
  -25.0060  -33.9786   25.0481 H   0  0  0  0  0  0
  -22.6876  -31.3184   21.4254 H   0  0  0  0  0  0
  -23.3756  -35.9647   23.3291 H   0  0  0  0  0  0
  -24.3586  -36.8941   22.2052 H   0  0  0  0  0  0
  -23.7243  -37.6515   23.6657 H   0  0  0  0  0  0
  -26.0468  -31.6158   20.6069 H   0  0  0  0  0  0
  -26.8173  -30.8811   21.9866 H   0  0  0  0  0  0
  -28.1002  -29.1084   21.1290 H   0  0  0  0  0  0
  -25.9717  -26.0055   18.9743 H   0  0  0  0  0  0
  -23.9454  -27.3318   19.0304 H   0  0  0  0  0  0
  -23.7069  -30.6220   19.4116 H   0  0  0  0  0  0
  -22.7234  -29.2651   19.8728 H   0  0  0  0  0  0
  -25.1293  -36.1976   25.0826 H   0  0  0  0  0  0
  -20.9955  -28.3205   24.1446 H   0  0  0  0  0  0
  -20.5659  -26.2249   23.3589 H   0  0  0  0  0  0
  -21.6632  -26.7433   22.1218 H   0  0  0  0  0  0
  -19.6896  -25.6291   21.1223 H   0  0  0  0  0  0
  -19.6675  -27.3201   20.6738 H   0  0  0  0  0  0
  -17.4187  -26.6688   21.4013 H   0  0  0  0  0  0
  -18.0304  -26.0041   22.9001 H   0  0  0  0  0  0
  -19.7915  -30.7255   24.2288 H   0  0  0  0  0  0
  -17.4995  -31.6264   24.5146 H   0  0  0  0  0  0
  -15.5337  -30.2980   23.7635 H   0  0  0  0  0  0
  -15.8665  -28.0810   22.7063 H   0  0  0  0  0  0
  -24.5940  -30.7010   25.7797 H   0  0  0  0  0  0
  -24.8936  -32.2818   26.4936 H   0  0  0  0  0  0
  -25.8131  -30.8829   27.0205 H   0  0  0  0  0  0
  -26.2832  -29.6804   24.1158 H   0  0  0  0  0  0
  -27.4092  -29.7271   25.4523 H   0  0  0  0  0  0
  -27.8661  -30.4347   23.9202 H   0  0  0  0  0  0
  -27.2643  -33.3603   26.2093 H   0  0  0  0  0  0
  -28.3849  -32.6908   25.0320 H   0  0  0  0  0  0
  -28.0716  -31.8425   26.5393 H   0  0  0  0  0  0
  -28.2603  -38.0120   24.7535 H   0  0  0  0  0  0
  -28.1097  -36.2649   24.6269 H   0  0  0  0  0  0
  -27.2303  -37.1451   25.8864 H   0  0  0  0  0  0
  -20.9262  -29.8772   21.6999 H   0  0  0  0  0  0
  -26.0190  -38.2874   24.1407 H   0  0  0  0  0  0
  -29.4541  -15.6117   22.6025 H   0  0  0  0  0  0
  -31.2451  -22.9409   21.1921 H   0  0  0  0  0  0
  -30.2447  -22.4626   22.5342 H   0  0  0  0  0  0
  -27.5090  -22.7117   19.5214 H   0  0  0  0  0  0
  -29.0333  -22.0916   18.9754 H   0  0  0  0  0  0
  -29.0288  -20.2229   22.2374 H   0  0  0  0  0  0
  -30.8514  -20.9182   19.9855 H   0  0  0  0  0  0
  -27.5975  -20.2121   19.6907 H   0  0  0  0  0  0
  -28.3978  -17.1785   23.9261 H   0  0  0  0  0  0
  -27.7374  -18.6476   23.2359 H   0  0  0  0  0  0
  -29.4050  -18.6176   23.8428 H   0  0  0  0  0  0
  -30.9479  -15.2279   18.0023 H   0  0  0  0  0  0
  -31.4735  -16.8646   17.7552 H   0  0  0  0  0  0
  -29.8334  -16.3641   17.3167 H   0  0  0  0  0  0
  -29.4466  -19.9671   18.4813 H   0  0  0  0  0  0
  -29.5694  -18.5743   17.4881 H   0  0  0  0  0  0
  -31.0165  -19.2247   18.2572 H   0  0  0  0  0  0
  -31.4777  -20.2183   22.8794 H   0  0  0  0  0  0
  -32.6199  -20.8476   21.6970 H   0  0  0  0  0  0
  -31.9114  -19.2596   21.4667 H   0  0  0  0  0  0
  -29.9137  -24.9745   21.2594 H   0  0  0  0  0  0
  -30.1415  -24.4752   19.5989 H   0  0  0  0  0  0
  -27.3645  -24.9898   20.7232 H   0  0  0  0  0  0
  -27.8740  -24.9741   19.0311 H   0  0  0  0  0  0
  -28.4797  -23.1129   21.6179 H   0  0  0  0  0  0
  -26.6389  -20.2272   21.6888 H   0  0  0  0  0  0
  1 25  1  0  0  0
  1 30  2  0  0  0
  1 72  1  0  0  0
  2  3  1  0  0  0
  2 25  1  0  0  0
  2 90  1  0  0  0
  2 91  1  0  0  0
  3  4  1  0  0  0
  3 92  1  0  0  0
  3 93  1  0  0  0
  4  5  1  0  0  0
  4 94  1  0  0  0
  4 95  1  0  0  0
  5  6  1  0  0  0
  5 26  1  0  0  0
  5 96  1  0  0  0
  6 25  1  0  0  0
  6 97  1  0  0  0
  6 98  1  0  0  0
  7  8  2  0  0  0
  7 26  1  0  0  0
  7 29  1  0  0  0
  8  9  1  0  0  0
  8 22  1  0  0  0
  9 10  1  0  0  0
  9 27  2  0  0  0
 10 11  2  0  0  0
 10 15  1  0  0  0
 11 12  1  0  0  0
 11 99  1  0  0  0
 12 13  2  0  0  0
 12100  1  0  0  0
 13 14  1  0  0  0
 13 31  1  0  0  0
 14 15  2  0  0  0
 14101  1  0  0  0
 15102  1  0  0  0
 16 17  2  0  0  0
 16 21  1  0  0  0
 16 31  1  0  0  0
 17 18  1  0  0  0
 17103  1  0  0  0
 18 19  2  0  0  0
 18104  1  0  0  0
 19 20  1  0  0  0
 19 24  1  0  0  0
 20 21  2  0  0  0
 20105  1  0  0  0
 21 23  1  0  0  0
 22 28  1  0  0  0
 22 32  2  0  0  0
 26 27  1  0  0  0
 28106  1  0  0  0
 28107  1  0  0  0
 29108  1  0  0  0
 29109  1  0  0  0
 33 34  1  0  0  0
 33 66  1  0  0  0
 33 70  2  0  0  0
 34 36  1  0  0  0
 34 59  1  0  0  0
 34110  1  0  0  0
 35 44  2  0  0  0
 35 45  1  0  0  0
 35 68  1  0  0  0
 36 56  1  0  0  0
 36111  1  0  0  0
 37 39  1  0  0  0
 37 47  1  0  0  0
 37 66  1  0  0  0
 37112  1  0  0  0
 38 43  2  0  0  0
 38 46  1  0  0  0
 38 47  1  0  0  0
 39 64  1  0  0  0
 39 67  2  0  0  0
 40 52  1  0  0  0
 40 53  2  0  0  0
 40 58  1  0  0  0
 41113  1  0  0  0
 41114  1  0  0  0
 41115  1  0  0  0
 41 48  1  0  0  0
 42 43  1  0  0  0
 42 66  1  0  0  0
 42116  1  0  0  0
 42117  1  0  0  0
 43 44  1  0  0  0
 44118  1  0  0  0
 45 46  2  0  0  0
 45119  1  0  0  0
 46120  1  0  0  0
 47121  1  0  0  0
 47122  1  0  0  0
 48 56  1  0  0  0
 48 65  1  0  0  0
 48123  1  0  0  0
 49 50  1  0  0  0
 49 53  1  0  0  0
 49 64  1  0  0  0
 49124  1  0  0  0
 50 51  1  0  0  0
 50125  1  0  0  0
 50126  1  0  0  0
 51 52  1  0  0  0
 51127  1  0  0  0
 51128  1  0  0  0
 52129  1  0  0  0
 52130  1  0  0  0
 53 54  1  0  0  0
 54 55  2  0  0  0
 54131  1  0  0  0
 55 57  1  0  0  0
 55132  1  0  0  0
 56 69  2  0  0  0
 57 58  2  0  0  0
 57133  1  0  0  0
 58134  1  0  0  0
 59 60  1  0  0  0
 59 61  1  0  0  0
 59 62  1  0  0  0
 60135  1  0  0  0
 60136  1  0  0  0
 60137  1  0  0  0
 61138  1  0  0  0
 61139  1  0  0  0
 61140  1  0  0  0
 62141  1  0  0  0
 62142  1  0  0  0
 62143  1  0  0  0
 63 65  1  0  0  0
 63144  1  0  0  0
 63145  1  0  0  0
 63146  1  0  0  0
 64147  1  0  0  0
 65148  1  0  0  0
 68 87  1  0  0  0
 71 72  2  0  0  0
 71 74  1  0  0  0
 71149  1  0  0  0
 72 75  1  0  0  0
 73 74  2  0  0  0
 73 76  1  0  0  0
 73 79  1  0  0  0
 74 82  1  0  0  0
 75 76  2  0  0  0
 75 83  1  0  0  0
 76 84  1  0  0  0
 77 80  1  0  0  0
 77 88  1  0  0  0
 77150  1  0  0  0
 77151  1  0  0  0
 78 81  1  0  0  0
 78 88  1  0  0  0
 78152  1  0  0  0
 78153  1  0  0  0
 79 80  1  0  0  0
 79 81  1  0  0  0
 79154  1  0  0  0
 80 85  1  0  0  0
 80155  1  0  0  0
 81 89  1  0  0  0
 81156  1  0  0  0
 82157  1  0  0  0
 82158  1  0  0  0
 82159  1  0  0  0
 83160  1  0  0  0
 83161  1  0  0  0
 83162  1  0  0  0
 84163  1  0  0  0
 84164  1  0  0  0
 84165  1  0  0  0
 85166  1  0  0  0
 85167  1  0  0  0
 85168  1  0  0  0
 86 87  1  0  0  0
 86169  1  0  0  0
 86170  1  0  0  0
 86 88  1  0  0  0
 87171  1  0  0  0
 87172  1  0  0  0
 88173  1  0  0  0
 89174  1  0  0  0
M  CHG  1  88   1
M  ISO  4   1 100  68 101  72 100  87 101
M  END
> <chiral flag>
0

> <version>
0

> <s_m_source_file>
/data/baiqing/PycharmProjects/Reinvent-master-3.2/result/LINK_invent/BTK/process_docking_weight1_custom_sum_contain_oxygen_bond_distance_aromatic_linkinvent_7_9_3/rearranged_h_0169.sdf

> <i_m_source_file_index>
93

> <r_mmod_Potential_Energy-OPLS-2005>
67.6612930297852

> <r_mmod_Stretch_Energy-OPLS-2005>
48.7496032714844

> <r_mmod_Bend_Energy-OPLS-2005>
116.226921081543

> <r_mmod_Torsional_Energy-OPLS-2005>
281.116180419922

> <r_mmod_Improper_Torsional_Energy-OPLS-2005>
9.3071756362915

> <r_mmod_Van_der_Waal_Energy-OPLS-2005>
183.185455322266

> <r_mmod_Electrostatic_Energy-OPLS-2005>
-195.342163085938

> <r_mmod_Solvation_Energy-OPLS-2005>
-399.850341796875

> <b_mmod_Minimization_Converged-OPLS-2005>
0

> <r_mmod_RMS_Derivative-OPLS-2005>
2.04328227043152

$$$$
93
                    3D
 Structure written by MMmdl.
159169  0  0  1  0            999 V2000
  -30.5514  -15.0268   20.4311 C   0  0  0  0  0  0
  -30.4274  -12.6442   19.5198 C   0  0  0  0  0  0
  -29.5223  -12.5565   18.2674 C   0  0  0  0  0  0
  -28.0577  -12.3275   18.6801 C   0  0  0  0  0  0
  -27.6230  -13.2647   19.8362 C   0  0  2  0  0  0
  -28.6574  -13.3287   20.9796 C   0  0  0  0  0  0
  -25.2371  -13.8208   20.5632 C   0  0  0  0  0  0
  -24.1725  -13.0429   20.9216 C   0  0  0  0  0  0
  -24.6369  -11.6928   20.8742 C   0  0  0  0  0  0
  -23.9057  -10.4300   21.0409 C   0  0  0  0  0  0
  -24.3613   -9.4215   21.9184 C   0  0  0  0  0  0
  -23.6286   -8.2249   22.0758 C   0  0  0  0  0  0
  -22.4267   -8.0287   21.3549 C   0  0  0  0  0  0
  -21.9900   -9.0260   20.4650 C   0  0  0  0  0  0
  -22.7231  -10.2138   20.3059 C   0  0  0  0  0  0
  -21.6857   -6.0723   22.5272 C   0  0  0  0  0  0
  -21.4019   -6.5628   23.8203 C   0  0  0  0  0  0
  -21.3657   -5.6784   24.9163 C   0  0  0  0  0  0
  -21.6047   -4.3048   24.7217 C   0  0  0  0  0  0
  -21.8816   -3.8135   23.4339 C   0  0  0  0  0  0
  -21.9196   -4.6949   22.3394 C   0  0  0  0  0  0
  -22.7750  -13.5210   21.1884 C   0  0  0  0  0  0
  -22.1672   -4.2128   21.0970 F   0  0  0  0  0  0
  -21.5632   -3.4531   25.7732 F   0  0  0  0  0  0
  -29.9323  -13.7650   20.3898 N   0  0  0  0  0  0
  -26.2840  -12.9501   20.3212 N   0  0  0  0  0  0
  -25.9319  -11.6616   20.5735 N   0  0  0  0  0  0
  -22.0399  -12.8201   22.0435 N   0  0  0  0  0  0
  -25.3926  -15.1916   20.3912 N   0  0  0  0  0  0
  -31.7222  -15.0507   20.0359 O   0  0  0  0  0  0
  -21.6649   -6.8873   21.4236 O   0  0  0  0  0  0
  -22.3429  -14.5523   20.6735 O   0  0  0  0  0  0
  -24.6478  -31.8382   23.1829 C   0  0  0  0  0  0
  -25.9227  -32.4670   23.8243 C   0  0  1  0  0  0
  -27.2206  -27.0802   20.1644 C   0  0  0  0  0  0
  -25.5950  -33.8474   24.2154 N   0  0  0  0  0  0
  -23.4564  -30.4553   21.5265 C   0  0  2  0  0  0
  -24.9106  -28.8707   20.1083 C   0  0  0  0  0  0
  -22.7597  -29.4512   22.4801 C   0  0  0  0  0  0
  -18.0316  -28.1416   22.8480 C   0  0  0  0  0  0
  -24.1485  -36.7244   23.2640 C   0  0  0  0  0  0
  -26.0151  -30.6946   21.3913 C   0  0  0  0  0  0
  -26.0872  -29.2999   20.7348 C   0  0  0  0  0  0
  -27.2410  -28.4211   20.7438 C   0  0  0  0  0  0
  -26.0204  -26.7680   19.4891 C   0  0  0  0  0  0
  -24.8931  -27.6209   19.4692 C   0  0  0  0  0  0
  -23.6902  -29.7801   20.1476 C   0  0  0  0  0  0
  -25.4122  -36.3013   24.0308 C   0  0  1  0  0  0
  -20.5932  -28.3747   23.1221 C   0  0  2  0  0  0
  -20.6793  -26.9442   22.5404 C   0  0  0  0  0  0
  -19.5759  -26.6394   21.5218 C   0  0  0  0  0  0
  -18.1946  -26.7955   22.1633 C   0  0  0  0  0  0
  -19.1577  -28.8900   23.2849 C   0  0  0  0  0  0
  -18.9487  -30.1495   23.8890 C   0  0  0  0  0  0
  -17.6483  -30.6611   24.0566 C   0  0  0  0  0  0
  -25.9075  -34.9393   23.5044 C   0  0  0  0  0  0
  -16.5375  -29.9105   23.6336 C   0  0  0  0  0  0
  -16.7302  -28.6518   23.0363 C   0  0  0  0  0  0
  -26.4534  -31.6571   25.0711 C   0  0  0  0  0  0
  -25.3712  -31.3784   26.1402 C   0  0  0  0  0  0
  -27.0400  -30.2956   24.6334 C   0  0  0  0  0  0
  -27.6045  -32.4358   25.7507 C   0  0  0  0  0  0
  -27.5576  -37.1776   24.8464 C   0  0  0  0  0  0
  -21.4279  -29.3062   22.3566 N   0  0  0  0  0  0
  -26.4278  -37.3738   23.9419 N   0  0  0  0  0  0
  -24.7265  -31.0183   22.0883 N   0  0  0  0  0  0
  -23.4210  -28.8052   23.2966 O   0  0  0  0  0  0
  -28.2597  -26.0653   20.2628 O   0  0  0  0  0  0
  -26.5661  -34.8896   22.4621 O   0  0  0  0  0  0
  -23.5581  -32.1275   23.7014 O   0  0  0  0  0  0
  -29.2010  -20.3783   20.9587 C   0  0  0  0  0  0
  -29.1409  -19.1711   20.1799 C   0  0  0  0  0  0
  -28.7487  -21.1104   18.9471 C   0  0  0  0  0  0
  -27.0422  -22.3717   17.3887 C   0  0  0  0  0  0
  -27.7306  -21.3399   16.5270 C   0  0  0  0  0  0
  -28.2538  -17.1610   21.6206 C   0  0  0  0  0  0
  -29.5379  -16.5693   22.2100 C   0  0  0  0  0  0
  -29.0253  -17.4975   20.3423 C   0  0  2  0  0  0
  -28.4476  -21.9241   17.7258 C   0  0  0  0  0  0
  -28.9605  -23.1820   20.5899 C   0  0  0  0  0  0
  -28.0513  -24.5159   19.9980 C   0  0  0  0  0  0
  -28.9248  -21.5853   20.1974 N   0  0  0  0  0  0
  -28.8986  -19.7526   18.9453 N   0  3  0  0  0  0
  -29.9291  -16.2682   20.8391 N   0  0  0  0  0  0
  -31.4645  -12.7859   19.2092 H   0  0  0  0  0  0
  -30.4189  -11.6997   20.0658 H   0  0  0  0  0  0
  -29.8553  -11.7547   17.6063 H   0  0  0  0  0  0
  -29.5996  -13.4795   17.6912 H   0  0  0  0  0  0
  -27.9621  -11.2858   18.9891 H   0  0  0  0  0  0
  -27.3980  -12.4531   17.8201 H   0  0  0  0  0  0
  -27.5751  -14.2631   19.3988 H   0  0  0  0  0  0
  -28.7591  -12.3621   21.4732 H   0  0  0  0  0  0
  -28.3221  -14.0281   21.7443 H   0  0  0  0  0  0
  -25.2754   -9.5682   22.4761 H   0  0  0  0  0  0
  -23.9983   -7.4639   22.7489 H   0  0  0  0  0  0
  -21.0824   -8.8786   19.8963 H   0  0  0  0  0  0
  -22.3694  -10.9674   19.6171 H   0  0  0  0  0  0
  -21.2020   -7.6134   23.9695 H   0  0  0  0  0  0
  -21.1483   -6.0512   25.9060 H   0  0  0  0  0  0
  -22.0595   -2.7588   23.2840 H   0  0  0  0  0  0
  -22.4041  -11.9875   22.4826 H   0  0  0  0  0  0
  -21.1030  -13.1257   22.2679 H   0  0  0  0  0  0
  -24.6105  -15.8322   20.4735 H   0  0  0  0  0  0
  -26.2209  -15.6227   20.0027 H   0  0  0  0  0  0
  -26.7283  -32.5269   23.0959 H   0  0  0  0  0  0
  -25.0082  -33.9579   25.0292 H   0  0  0  0  0  0
  -22.7622  -31.2824   21.3641 H   0  0  0  0  0  0
  -23.3760  -35.9563   23.3274 H   0  0  0  0  0  0
  -24.3567  -36.8909   22.2061 H   0  0  0  0  0  0
  -23.7225  -37.6422   23.6703 H   0  0  0  0  0  0
  -26.1754  -31.4462   20.6173 H   0  0  0  0  0  0
  -26.8833  -30.7498   22.0371 H   0  0  0  0  0  0
  -28.1358  -28.7409   21.2602 H   0  0  0  0  0  0
  -25.9203  -25.8135   18.9943 H   0  0  0  0  0  0
  -23.9959  -27.2901   18.9658 H   0  0  0  0  0  0
  -23.8387  -30.5527   19.3918 H   0  0  0  0  0  0
  -22.8048  -29.2267   19.8299 H   0  0  0  0  0  0
  -25.1307  -36.1827   25.0799 H   0  0  0  0  0  0
  -21.0037  -28.3356   24.1337 H   0  0  0  0  0  0
  -20.5687  -26.2361   23.3629 H   0  0  0  0  0  0
  -21.6653  -26.7436   22.1200 H   0  0  0  0  0  0
  -19.6908  -25.6291   21.1275 H   0  0  0  0  0  0
  -19.6699  -27.3180   20.6726 H   0  0  0  0  0  0
  -17.4206  -26.6707   21.4050 H   0  0  0  0  0  0
  -18.0353  -26.0116   22.9046 H   0  0  0  0  0  0
  -19.7964  -30.7315   24.2257 H   0  0  0  0  0  0
  -17.5036  -31.6288   24.5172 H   0  0  0  0  0  0
  -15.5375  -30.3001   23.7672 H   0  0  0  0  0  0
  -15.8701  -28.0830   22.7091 H   0  0  0  0  0  0
  -24.5876  -30.7143   25.7728 H   0  0  0  0  0  0
  -24.8921  -32.2980   26.4781 H   0  0  0  0  0  0
  -25.7990  -30.8985   27.0214 H   0  0  0  0  0  0
  -26.3017  -29.6676   24.1324 H   0  0  0  0  0  0
  -27.3964  -29.7264   25.4932 H   0  0  0  0  0  0
  -27.8952  -30.4166   23.9678 H   0  0  0  0  0  0
  -27.2614  -33.3681   26.2008 H   0  0  0  0  0  0
  -28.3905  -32.6895   25.0380 H   0  0  0  0  0  0
  -28.0659  -31.8543   26.5499 H   0  0  0  0  0  0
  -28.2567  -38.0100   24.7533 H   0  0  0  0  0  0
  -28.1097  -36.2628   24.6258 H   0  0  0  0  0  0
  -27.2296  -37.1379   25.8865 H   0  0  0  0  0  0
  -20.9485  -29.8778   21.6750 H   0  0  0  0  0  0
  -26.0136  -38.2793   24.1461 H   0  0  0  0  0  0
  -29.3709  -20.4564   22.0235 H   0  0  0  0  0  0
  -26.2309  -22.0283   18.0279 H   0  0  0  0  0  0
  -26.9139  -23.3671   16.9666 H   0  0  0  0  0  0
  -28.0717  -21.6511   15.5420 H   0  0  0  0  0  0
  -27.3456  -20.3232   16.5836 H   0  0  0  0  0  0
  -27.8681  -18.0178   22.1724 H   0  0  0  0  0  0
  -27.4760  -16.4134   21.4730 H   0  0  0  0  0  0
  -29.3700  -15.7099   22.8598 H   0  0  0  0  0  0
  -30.1843  -17.3050   22.6924 H   0  0  0  0  0  0
  -28.4356  -17.1694   19.4855 H   0  0  0  0  0  0
  -29.2692  -22.6163   17.5493 H   0  0  0  0  0  0
  -28.8314  -23.1959   21.6720 H   0  0  0  0  0  0
  -30.0050  -23.4567   20.4459 H   0  0  0  0  0  0
  -27.0209  -24.2985   20.2782 H   0  0  0  0  0  0
  -28.0706  -24.4426   18.9125 H   0  0  0  0  0  0
  -28.7841  -19.2055   18.1005 H   0  0  0  0  0  0
  1 25  1  0  0  0
  1 30  2  0  0  0
  1 84  1  0  0  0
  2  3  1  0  0  0
  2 25  1  0  0  0
  2 85  1  0  0  0
  2 86  1  0  0  0
  3  4  1  0  0  0
  3 87  1  0  0  0
  3 88  1  0  0  0
  4  5  1  0  0  0
  4 89  1  0  0  0
  4 90  1  0  0  0
  5  6  1  0  0  0
  5 26  1  0  0  0
  5 91  1  0  0  0
  6 25  1  0  0  0
  6 92  1  0  0  0
  6 93  1  0  0  0
  7  8  2  0  0  0
  7 26  1  0  0  0
  7 29  1  0  0  0
  8  9  1  0  0  0
  8 22  1  0  0  0
  9 10  1  0  0  0
  9 27  2  0  0  0
 10 11  2  0  0  0
 10 15  1  0  0  0
 11 12  1  0  0  0
 11 94  1  0  0  0
 12 13  2  0  0  0
 12 95  1  0  0  0
 13 14  1  0  0  0
 13 31  1  0  0  0
 14 15  2  0  0  0
 14 96  1  0  0  0
 15 97  1  0  0  0
 16 17  2  0  0  0
 16 21  1  0  0  0
 16 31  1  0  0  0
 17 18  1  0  0  0
 17 98  1  0  0  0
 18 19  2  0  0  0
 18 99  1  0  0  0
 19 20  1  0  0  0
 19 24  1  0  0  0
 20 21  2  0  0  0
 20100  1  0  0  0
 21 23  1  0  0  0
 22 28  1  0  0  0
 22 32  2  0  0  0
 26 27  1  0  0  0
 28101  1  0  0  0
 28102  1  0  0  0
 29103  1  0  0  0
 29104  1  0  0  0
 33 34  1  0  0  0
 33 66  1  0  0  0
 33 70  2  0  0  0
 34 36  1  0  0  0
 34 59  1  0  0  0
 34105  1  0  0  0
 35 44  2  0  0  0
 35 45  1  0  0  0
 35 68  1  0  0  0
 36 56  1  0  0  0
 36106  1  0  0  0
 37 39  1  0  0  0
 37 47  1  0  0  0
 37 66  1  0  0  0
 37107  1  0  0  0
 38 43  2  0  0  0
 38 46  1  0  0  0
 38 47  1  0  0  0
 39 64  1  0  0  0
 39 67  2  0  0  0
 40 52  1  0  0  0
 40 53  2  0  0  0
 40 58  1  0  0  0
 41108  1  0  0  0
 41109  1  0  0  0
 41110  1  0  0  0
 41 48  1  0  0  0
 42 43  1  0  0  0
 42 66  1  0  0  0
 42111  1  0  0  0
 42112  1  0  0  0
 43 44  1  0  0  0
 44113  1  0  0  0
 45 46  2  0  0  0
 45114  1  0  0  0
 46115  1  0  0  0
 47116  1  0  0  0
 47117  1  0  0  0
 48 56  1  0  0  0
 48 65  1  0  0  0
 48118  1  0  0  0
 49 50  1  0  0  0
 49 53  1  0  0  0
 49 64  1  0  0  0
 49119  1  0  0  0
 50 51  1  0  0  0
 50120  1  0  0  0
 50121  1  0  0  0
 51 52  1  0  0  0
 51122  1  0  0  0
 51123  1  0  0  0
 52124  1  0  0  0
 52125  1  0  0  0
 53 54  1  0  0  0
 54 55  2  0  0  0
 54126  1  0  0  0
 55 57  1  0  0  0
 55127  1  0  0  0
 56 69  2  0  0  0
 57 58  2  0  0  0
 57128  1  0  0  0
 58129  1  0  0  0
 59 60  1  0  0  0
 59 61  1  0  0  0
 59 62  1  0  0  0
 60130  1  0  0  0
 60131  1  0  0  0
 60132  1  0  0  0
 61133  1  0  0  0
 61134  1  0  0  0
 61135  1  0  0  0
 62136  1  0  0  0
 62137  1  0  0  0
 62138  1  0  0  0
 63 65  1  0  0  0
 63139  1  0  0  0
 63140  1  0  0  0
 63141  1  0  0  0
 64142  1  0  0  0
 65143  1  0  0  0
 68 81  1  0  0  0
 71 72  2  0  0  0
 71 82  1  0  0  0
 71144  1  0  0  0
 72 83  1  0  0  0
 72 78  1  0  0  0
 73 82  1  0  0  0
 73 83  2  0  0  0
 73 79  1  0  0  0
 74 75  1  0  0  0
 74 79  1  0  0  0
 74145  1  0  0  0
 74146  1  0  0  0
 75 79  1  0  0  0
 75147  1  0  0  0
 75148  1  0  0  0
 76 77  1  0  0  0
 76 78  1  0  0  0
 76149  1  0  0  0
 76150  1  0  0  0
 77 84  1  0  0  0
 77151  1  0  0  0
 77152  1  0  0  0
 78 84  1  0  0  0
 78153  1  0  0  0
 79154  1  0  0  0
 80 81  1  0  0  0
 80 82  1  0  0  0
 80155  1  0  0  0
 80156  1  0  0  0
 81157  1  0  0  0
 81158  1  0  0  0
 83159  1  0  0  0
M  CHG  1  83   1
M  ISO  4   1 100  68 101  81 101  84 100
M  END
> <chiral flag>
0

> <version>
0

> <s_m_source_file>
/data/baiqing/PycharmProjects/Reinvent-master-3.2/result/LINK_invent/BTK/process_docking_weight1_custom_sum_contain_oxygen_bond_distance_aromatic_linkinvent_7_9_3/rearranged_h_0169.sdf

> <i_m_source_file_index>
94

> <r_mmod_Potential_Energy-OPLS-2005>
763.182189941406

> <r_mmod_Stretch_Energy-OPLS-2005>
335.598175048828

> <r_mmod_Bend_Energy-OPLS-2005>
374.798156738281

> <r_mmod_Torsional_Energy-OPLS-2005>
359.020721435547

> <r_mmod_Improper_Torsional_Energy-OPLS-2005>
6.60205602645874

> <r_mmod_Van_der_Waal_Energy-OPLS-2005>
100.480583190918

> <r_mmod_Electrostatic_Energy-OPLS-2005>
-221.836898803711

> <r_mmod_Solvation_Energy-OPLS-2005>
-438.538787841797

> <b_mmod_Minimization_Converged-OPLS-2005>
0

> <r_mmod_RMS_Derivative-OPLS-2005>
2.26225256919861

$$$$
94
                    3D
 Structure written by MMmdl.
157166  0  0  1  0            999 V2000
  -30.5524  -14.8592   20.3945 C   0  0  0  0  0  0
  -30.4337  -12.5162   19.4872 C   0  0  0  0  0  0
  -29.5164  -12.5229   18.2426 C   0  0  0  0  0  0
  -28.0437  -12.3366   18.6533 C   0  0  0  0  0  0
  -27.6368  -13.2371   19.8480 C   0  0  2  0  0  0
  -28.6825  -13.2126   20.9838 C   0  0  0  0  0  0
  -25.2510  -13.8164   20.5696 C   0  0  0  0  0  0
  -24.1819  -13.0404   20.9206 C   0  0  0  0  0  0
  -24.6415  -11.6896   20.8719 C   0  0  0  0  0  0
  -23.9055  -10.4279   21.0355 C   0  0  0  0  0  0
  -24.3594   -9.4209   21.9167 C   0  0  0  0  0  0
  -23.6280   -8.2250   22.0751 C   0  0  0  0  0  0
  -22.4274   -8.0290   21.3545 C   0  0  0  0  0  0
  -21.9881   -9.0242   20.4640 C   0  0  0  0  0  0
  -22.7197  -10.2133   20.3020 C   0  0  0  0  0  0
  -21.6866   -6.0708   22.5271 C   0  0  0  0  0  0
  -21.4015   -6.5608   23.8204 C   0  0  0  0  0  0
  -21.3667   -5.6774   24.9176 C   0  0  0  0  0  0
  -21.6059   -4.3036   24.7221 C   0  0  0  0  0  0
  -21.8819   -3.8118   23.4335 C   0  0  0  0  0  0
  -21.9197   -4.6937   22.3404 C   0  0  0  0  0  0
  -22.7846  -13.5204   21.1851 C   0  0  0  0  0  0
  -22.1658   -4.2104   21.0977 F   0  0  0  0  0  0
  -21.5662   -3.4518   25.7718 F   0  0  0  0  0  0
  -29.9694  -13.6011   20.3928 N   0  0  0  0  0  0
  -26.2936  -12.9377   20.3288 N   0  0  0  0  0  0
  -25.9342  -11.6507   20.5708 N   0  0  0  0  0  0
  -22.0489  -12.8200   22.0426 N   0  0  0  0  0  0
  -25.4147  -15.1883   20.4068 N   0  0  0  0  0  0
  -31.7394  -14.9590   20.0670 O   0  0  0  0  0  0
  -21.6673   -6.8861   21.4243 O   0  0  0  0  0  0
  -22.3550  -14.5526   20.6716 O   0  0  0  0  0  0
  -24.6425  -31.8486   23.1929 C   0  0  0  0  0  0
  -25.9213  -32.4726   23.8297 C   0  0  1  0  0  0
  -27.2030  -27.1561   20.1131 C   0  0  0  0  0  0
  -25.5973  -33.8539   24.2225 N   0  0  0  0  0  0
  -23.4433  -30.4696   21.5427 C   0  0  2  0  0  0
  -24.8852  -28.9107   20.1057 C   0  0  0  0  0  0
  -22.7569  -29.4562   22.4917 C   0  0  0  0  0  0
  -18.0298  -28.1399   22.8471 C   0  0  0  0  0  0
  -24.1494  -36.7257   23.2641 C   0  0  0  0  0  0
  -26.0009  -30.7242   21.3902 C   0  0  0  0  0  0
  -26.0654  -29.3395   20.7253 C   0  0  0  0  0  0
  -27.2228  -28.4759   20.7184 C   0  0  0  0  0  0
  -25.9994  -26.8457   19.4369 C   0  0  0  0  0  0
  -24.8648  -27.6771   19.4475 C   0  0  0  0  0  0
  -23.6639  -29.8114   20.1578 C   0  0  0  0  0  0
  -25.4130  -36.3059   24.0324 C   0  0  1  0  0  0
  -20.5914  -28.3717   23.1260 C   0  0  2  0  0  0
  -20.6792  -26.9427   22.5413 C   0  0  0  0  0  0
  -19.5759  -26.6385   21.5224 C   0  0  0  0  0  0
  -18.1940  -26.7943   22.1630 C   0  0  0  0  0  0
  -19.1555  -28.8883   23.2856 C   0  0  0  0  0  0
  -18.9459  -30.1489   23.8869 C   0  0  0  0  0  0
  -17.6452  -30.6591   24.0560 C   0  0  0  0  0  0
  -25.9080  -34.9427   23.5074 C   0  0  0  0  0  0
  -16.5355  -29.9074   23.6336 C   0  0  0  0  0  0
  -16.7284  -28.6509   23.0336 C   0  0  0  0  0  0
  -26.4510  -31.6593   25.0748 C   0  0  0  0  0  0
  -25.3675  -31.3767   26.1426 C   0  0  0  0  0  0
  -27.0367  -30.2990   24.6335 C   0  0  0  0  0  0
  -27.6069  -32.4329   25.7517 C   0  0  0  0  0  0
  -27.5580  -37.1795   24.8468 C   0  0  0  0  0  0
  -21.4276  -29.3036   22.3640 N   0  0  0  0  0  0
  -26.4303  -37.3755   23.9398 N   0  0  0  0  0  0
  -24.7154  -31.0334   22.0971 N   0  0  0  0  0  0
  -23.4237  -28.8089   23.3037 O   0  0  0  0  0  0
  -28.2609  -26.1817   20.2024 O   0  0  0  0  0  0
  -26.5649  -34.8912   22.4651 O   0  0  0  0  0  0
  -23.5545  -32.1362   23.7154 O   0  0  0  0  0  0
  -27.9081  -21.8901   20.0208 C   0  0  0  0  0  0
  -30.3755  -18.6890   20.8788 C   0  0  0  0  0  0
  -28.6409  -18.4535   19.9343 C   0  0  0  0  0  0
  -28.5618  -23.2859   20.4461 C   0  0  1  0  0  0
  -29.8821  -22.3972   20.2817 C   0  0  2  0  0  0
  -29.8886  -17.4778   20.0003 C   0  0  2  0  0  0
  -29.0952  -21.0450   20.6299 C   0  0  2  0  0  0
  -31.0900  -22.7540   21.1391 C   0  0  0  0  0  0
  -28.1486  -24.7182   19.7029 C   0  0  0  0  0  0
  -29.7412  -16.0055   20.5252 N   0  0  0  0  0  0
  -29.5541  -19.6500   20.0366 N   0  3  1  0  0  0
  -31.4720  -12.6495   19.1837 H   0  0  0  0  0  0
  -30.3955  -11.5490   19.9911 H   0  0  0  0  0  0
  -29.8138  -11.7383   17.5450 H   0  0  0  0  0  0
  -29.6328  -13.4656   17.7046 H   0  0  0  0  0  0
  -27.9144  -11.2871   18.9198 H   0  0  0  0  0  0
  -27.3820  -12.5136   17.8026 H   0  0  0  0  0  0
  -27.6134  -14.2531   19.4532 H   0  0  0  0  0  0
  -28.7456  -12.2228   21.4375 H   0  0  0  0  0  0
  -28.4010  -13.8992   21.7831 H   0  0  0  0  0  0
  -25.2713   -9.5695   22.4764 H   0  0  0  0  0  0
  -23.9973   -7.4627   22.7472 H   0  0  0  0  0  0
  -21.0791   -8.8701   19.8957 H   0  0  0  0  0  0
  -22.3588  -10.9648   19.6122 H   0  0  0  0  0  0
  -21.2005   -7.6115   23.9671 H   0  0  0  0  0  0
  -21.1514   -6.0528   25.9077 H   0  0  0  0  0  0
  -22.0597   -2.7572   23.2849 H   0  0  0  0  0  0
  -22.4048  -11.9837   22.4794 H   0  0  0  0  0  0
  -21.1130  -13.1264   22.2675 H   0  0  0  0  0  0
  -24.6327  -15.8281   20.5042 H   0  0  0  0  0  0
  -26.2457  -15.6251   20.0325 H   0  0  0  0  0  0
  -26.7301  -32.5309   23.1039 H   0  0  0  0  0  0
  -25.0099  -33.9655   25.0359 H   0  0  0  0  0  0
  -22.7459  -31.2961   21.3975 H   0  0  0  0  0  0
  -23.3768  -35.9578   23.3315 H   0  0  0  0  0  0
  -24.3560  -36.8863   22.2049 H   0  0  0  0  0  0
  -23.7236  -37.6457   23.6657 H   0  0  0  0  0  0
  -26.1586  -31.4826   20.6200 H   0  0  0  0  0  0
  -26.8725  -30.7670   22.0332 H   0  0  0  0  0  0
  -28.1230  -28.8025   21.2190 H   0  0  0  0  0  0
  -25.8674  -25.9361   18.8799 H   0  0  0  0  0  0
  -23.9685  -27.3546   18.9348 H   0  0  0  0  0  0
  -23.7952  -30.5920   19.4067 H   0  0  0  0  0  0
  -22.7771  -29.2536   19.8492 H   0  0  0  0  0  0
  -25.1315  -36.1891   25.0813 H   0  0  0  0  0  0
  -20.9998  -28.3278   24.1387 H   0  0  0  0  0  0
  -20.5688  -26.2319   23.3618 H   0  0  0  0  0  0
  -21.6647  -26.7433   22.1186 H   0  0  0  0  0  0
  -19.6900  -25.6283   21.1267 H   0  0  0  0  0  0
  -19.6697  -27.3180   20.6742 H   0  0  0  0  0  0
  -17.4212  -26.6704   21.4034 H   0  0  0  0  0  0
  -18.0320  -26.0097   22.9031 H   0  0  0  0  0  0
  -19.7936  -30.7328   24.2212 H   0  0  0  0  0  0
  -17.4993  -31.6263   24.5181 H   0  0  0  0  0  0
  -15.5347  -30.2953   23.7682 H   0  0  0  0  0  0
  -15.8697  -28.0825   22.7038 H   0  0  0  0  0  0
  -24.5875  -30.7112   25.7708 H   0  0  0  0  0  0
  -24.8830  -32.2935   26.4793 H   0  0  0  0  0  0
  -25.7915  -30.8955   27.0251 H   0  0  0  0  0  0
  -26.2988  -29.6722   24.1326 H   0  0  0  0  0  0
  -27.3952  -29.7279   25.4907 H   0  0  0  0  0  0
  -27.8901  -30.4219   23.9671 H   0  0  0  0  0  0
  -27.2719  -33.3661   26.2050 H   0  0  0  0  0  0
  -28.3894  -32.6838   25.0347 H   0  0  0  0  0  0
  -28.0737  -31.8484   26.5452 H   0  0  0  0  0  0
  -28.2609  -38.0082   24.7505 H   0  0  0  0  0  0
  -28.1068  -36.2612   24.6316 H   0  0  0  0  0  0
  -27.2294  -37.1461   25.8870 H   0  0  0  0  0  0
  -20.9493  -29.8754   21.6818 H   0  0  0  0  0  0
  -26.0177  -38.2831   24.1381 H   0  0  0  0  0  0
  -27.8163  -21.7877   18.9367 H   0  0  0  0  0  0
  -26.9458  -21.6980   20.4942 H   0  0  0  0  0  0
  -31.4460  -18.8773   20.8176 H   0  0  0  0  0  0
  -30.0502  -18.6346   21.9196 H   0  0  0  0  0  0
  -27.9533  -18.3687   20.7788 H   0  0  0  0  0  0
  -28.0945  -18.4160   18.9920 H   0  0  0  0  0  0
  -28.3755  -23.4056   21.5145 H   0  0  0  0  0  0
  -30.1676  -22.3863   19.2247 H   0  0  0  0  0  0
  -30.4116  -17.4870   19.0413 H   0  0  0  0  0  0
  -28.9537  -20.9436   21.7043 H   0  0  0  0  0  0
  -30.8119  -22.8956   22.1838 H   0  0  0  0  0  0
  -31.5656  -23.6735   20.7952 H   0  0  0  0  0  0
  -31.8450  -21.9685   21.1173 H   0  0  0  0  0  0
  -27.1106  -24.5302   19.4585 H   0  0  0  0  0  0
  -28.6326  -24.7298   18.7263 H   0  0  0  0  0  0
  -28.8065  -15.7727   20.8286 H   0  0  0  0  0  0
  -30.0010  -19.7794   19.1433 H   0  0  0  0  0  0
  1 25  1  0  0  0
  1 30  2  0  0  0
  1 80  1  0  0  0
  2  3  1  0  0  0
  2 25  1  0  0  0
  2 82  1  0  0  0
  2 83  1  0  0  0
  3  4  1  0  0  0
  3 84  1  0  0  0
  3 85  1  0  0  0
  4  5  1  0  0  0
  4 86  1  0  0  0
  4 87  1  0  0  0
  5  6  1  0  0  0
  5 26  1  0  0  0
  5 88  1  0  0  0
  6 25  1  0  0  0
  6 89  1  0  0  0
  6 90  1  0  0  0
  7  8  2  0  0  0
  7 26  1  0  0  0
  7 29  1  0  0  0
  8  9  1  0  0  0
  8 22  1  0  0  0
  9 10  1  0  0  0
  9 27  2  0  0  0
 10 11  2  0  0  0
 10 15  1  0  0  0
 11 12  1  0  0  0
 11 91  1  0  0  0
 12 13  2  0  0  0
 12 92  1  0  0  0
 13 14  1  0  0  0
 13 31  1  0  0  0
 14 15  2  0  0  0
 14 93  1  0  0  0
 15 94  1  0  0  0
 16 17  2  0  0  0
 16 21  1  0  0  0
 16 31  1  0  0  0
 17 18  1  0  0  0
 17 95  1  0  0  0
 18 19  2  0  0  0
 18 96  1  0  0  0
 19 20  1  0  0  0
 19 24  1  0  0  0
 20 21  2  0  0  0
 20 97  1  0  0  0
 21 23  1  0  0  0
 22 28  1  0  0  0
 22 32  2  0  0  0
 26 27  1  0  0  0
 28 98  1  0  0  0
 28 99  1  0  0  0
 29100  1  0  0  0
 29101  1  0  0  0
 33 34  1  0  0  0
 33 66  1  0  0  0
 33 70  2  0  0  0
 34 36  1  0  0  0
 34 59  1  0  0  0
 34102  1  0  0  0
 35 44  2  0  0  0
 35 45  1  0  0  0
 35 68  1  0  0  0
 36 56  1  0  0  0
 36103  1  0  0  0
 37 39  1  0  0  0
 37 47  1  0  0  0
 37 66  1  0  0  0
 37104  1  0  0  0
 38 43  2  0  0  0
 38 46  1  0  0  0
 38 47  1  0  0  0
 39 64  1  0  0  0
 39 67  2  0  0  0
 40 52  1  0  0  0
 40 53  2  0  0  0
 40 58  1  0  0  0
 41105  1  0  0  0
 41106  1  0  0  0
 41107  1  0  0  0
 41 48  1  0  0  0
 42 43  1  0  0  0
 42 66  1  0  0  0
 42108  1  0  0  0
 42109  1  0  0  0
 43 44  1  0  0  0
 44110  1  0  0  0
 45 46  2  0  0  0
 45111  1  0  0  0
 46112  1  0  0  0
 47113  1  0  0  0
 47114  1  0  0  0
 48 56  1  0  0  0
 48 65  1  0  0  0
 48115  1  0  0  0
 49 50  1  0  0  0
 49 53  1  0  0  0
 49 64  1  0  0  0
 49116  1  0  0  0
 50 51  1  0  0  0
 50117  1  0  0  0
 50118  1  0  0  0
 51 52  1  0  0  0
 51119  1  0  0  0
 51120  1  0  0  0
 52121  1  0  0  0
 52122  1  0  0  0
 53 54  1  0  0  0
 54 55  2  0  0  0
 54123  1  0  0  0
 55 57  1  0  0  0
 55124  1  0  0  0
 56 69  2  0  0  0
 57 58  2  0  0  0
 57125  1  0  0  0
 58126  1  0  0  0
 59 60  1  0  0  0
 59 61  1  0  0  0
 59 62  1  0  0  0
 60127  1  0  0  0
 60128  1  0  0  0
 60129  1  0  0  0
 61130  1  0  0  0
 61131  1  0  0  0
 61132  1  0  0  0
 62133  1  0  0  0
 62134  1  0  0  0
 62135  1  0  0  0
 63 65  1  0  0  0
 63136  1  0  0  0
 63137  1  0  0  0
 63138  1  0  0  0
 64139  1  0  0  0
 65140  1  0  0  0
 68 79  1  0  0  0
 71 74  1  0  0  0
 71141  1  0  0  0
 71142  1  0  0  0
 71 77  1  0  0  0
 72 76  1  0  0  0
 72143  1  0  0  0
 72144  1  0  0  0
 72 81  1  0  0  0
 73 76  1  0  0  0
 73 81  1  0  0  0
 73145  1  0  0  0
 73146  1  0  0  0
 74 75  1  0  0  0
 74 79  1  0  0  0
 74147  1  0  0  0
 75 77  1  0  0  0
 75 78  1  0  0  0
 75148  1  0  0  0
 76 80  1  0  0  0
 76149  1  0  0  0
 77 81  1  0  0  0
 77150  1  0  0  0
 78151  1  0  0  0
 78152  1  0  0  0
 78153  1  0  0  0
 79154  1  0  0  0
 79155  1  0  0  0
 80156  1  0  0  0
 81157  1  0  0  0
M  CHG  1  81   1
M  ISO  4   1 100  68 101  79 101  80 100
M  END
> <chiral flag>
0

> <version>
0

> <s_m_source_file>
/data/baiqing/PycharmProjects/Reinvent-master-3.2/result/LINK_invent/BTK/process_docking_weight1_custom_sum_contain_oxygen_bond_distance_aromatic_linkinvent_7_9_3/rearranged_h_0169.sdf

> <i_m_source_file_index>
95

> <r_mmod_Potential_Energy-OPLS-2005>
333.482116699219

> <r_mmod_Stretch_Energy-OPLS-2005>
197.036636352539

> <r_mmod_Bend_Energy-OPLS-2005>
300.237945556641

> <r_mmod_Torsional_Energy-OPLS-2005>
259.816070556641

> <r_mmod_Improper_Torsional_Energy-OPLS-2005>
6.46176958084106

> <r_mmod_Van_der_Waal_Energy-OPLS-2005>
122.703170776367

> <r_mmod_Electrostatic_Energy-OPLS-2005>
-227.031143188477

> <r_mmod_Solvation_Energy-OPLS-2005>
-479.821868896484

> <b_mmod_Minimization_Converged-OPLS-2005>
0

> <r_mmod_RMS_Derivative-OPLS-2005>
4.13827466964722

$$$$
95
                    3D
 Structure written by MMmdl.
162171  0  0  1  0            999 V2000
  -30.5406  -14.8455   20.4707 C   0  0  0  0  0  0
  -30.4473  -12.5206   19.4735 C   0  0  0  0  0  0
  -29.5257  -12.5427   18.2327 C   0  0  0  0  0  0
  -28.0501  -12.3457   18.6383 C   0  0  0  0  0  0
  -27.6433  -13.2334   19.8454 C   0  0  2  0  0  0
  -28.6898  -13.1833   20.9791 C   0  0  0  0  0  0
  -25.2535  -13.8173   20.5667 C   0  0  0  0  0  0
  -24.1843  -13.0403   20.9201 C   0  0  0  0  0  0
  -24.6430  -11.6896   20.8724 C   0  0  0  0  0  0
  -23.9085  -10.4266   21.0378 C   0  0  0  0  0  0
  -24.3625   -9.4195   21.9172 C   0  0  0  0  0  0
  -23.6296   -8.2236   22.0748 C   0  0  0  0  0  0
  -22.4293   -8.0257   21.3524 C   0  0  0  0  0  0
  -21.9918   -9.0229   20.4631 C   0  0  0  0  0  0
  -22.7246  -10.2113   20.3036 C   0  0  0  0  0  0
  -21.6869   -6.0716   22.5261 C   0  0  0  0  0  0
  -21.4032   -6.5624   23.8183 C   0  0  0  0  0  0
  -21.3671   -5.6785   24.9149 C   0  0  0  0  0  0
  -21.6032   -4.3039   24.7219 C   0  0  0  0  0  0
  -21.8828   -3.8136   23.4341 C   0  0  0  0  0  0
  -21.9195   -4.6944   22.3398 C   0  0  0  0  0  0
  -22.7861  -13.5183   21.1842 C   0  0  0  0  0  0
  -22.1669   -4.2127   21.0978 F   0  0  0  0  0  0
  -21.5607   -3.4527   25.7738 F   0  0  0  0  0  0
  -29.9692  -13.5877   20.3891 N   0  0  0  0  0  0
  -26.2968  -12.9392   20.3237 N   0  0  0  0  0  0
  -25.9359  -11.6532   20.5709 N   0  0  0  0  0  0
  -22.0513  -12.8190   22.0415 N   0  0  0  0  0  0
  -25.4109  -15.1894   20.3961 N   0  0  0  0  0  0
  -31.7439  -14.9756   20.2215 O   0  0  0  0  0  0
  -21.6651   -6.8872   21.4227 O   0  0  0  0  0  0
  -22.3571  -14.5489   20.6669 O   0  0  0  0  0  0
  -24.6362  -31.8454   23.1935 C   0  0  0  0  0  0
  -25.9173  -32.4710   23.8287 C   0  0  1  0  0  0
  -27.2259  -27.1924   20.1383 C   0  0  0  0  0  0
  -25.5957  -33.8528   24.2223 N   0  0  0  0  0  0
  -23.4397  -30.4690   21.5370 C   0  0  2  0  0  0
  -24.8889  -28.8958   20.1176 C   0  0  0  0  0  0
  -22.7515  -29.4588   22.4891 C   0  0  0  0  0  0
  -18.0329  -28.1343   22.8526 C   0  0  0  0  0  0
  -24.1504  -36.7251   23.2635 C   0  0  0  0  0  0
  -25.9907  -30.7395   21.3826 C   0  0  0  0  0  0
  -26.0617  -29.3525   20.7295 C   0  0  0  0  0  0
  -27.2305  -28.5149   20.7304 C   0  0  0  0  0  0
  -26.0287  -26.8201   19.4888 C   0  0  0  0  0  0
  -24.8771  -27.6382   19.4887 C   0  0  0  0  0  0
  -23.6623  -29.7953   20.1587 C   0  0  0  0  0  0
  -25.4132  -36.3039   24.0323 C   0  0  1  0  0  0
  -20.5962  -28.3683   23.1165 C   0  0  2  0  0  0
  -20.6906  -26.9483   22.5064 C   0  0  0  0  0  0
  -19.5685  -26.6461   21.5050 C   0  0  0  0  0  0
  -18.1985  -26.7823   22.1730 C   0  0  0  0  0  0
  -19.1591  -28.8819   23.2881 C   0  0  0  0  0  0
  -18.9521  -30.1414   23.8914 C   0  0  0  0  0  0
  -17.6544  -30.6590   24.0550 C   0  0  0  0  0  0
  -25.9072  -34.9420   23.5054 C   0  0  0  0  0  0
  -16.5407  -29.9099   23.6335 C   0  0  0  0  0  0
  -16.7316  -28.6475   23.0442 C   0  0  0  0  0  0
  -26.4510  -31.6566   25.0723 C   0  0  0  0  0  0
  -25.3707  -31.3751   26.1441 C   0  0  0  0  0  0
  -27.0398  -30.2968   24.6294 C   0  0  0  0  0  0
  -27.6044  -32.4325   25.7532 C   0  0  0  0  0  0
  -27.5578  -37.1796   24.8476 C   0  0  0  0  0  0
  -21.4216  -29.3127   22.3639 N   0  0  0  0  0  0
  -26.4292  -37.3753   23.9409 N   0  0  0  0  0  0
  -24.7093  -31.0371   22.0945 N   0  0  0  0  0  0
  -23.4160  -28.8076   23.3001 O   0  0  0  0  0  0
  -28.2986  -26.2442   20.1792 O   0  0  0  0  0  0
  -26.5636  -34.8877   22.4629 O   0  0  0  0  0  0
  -23.5518  -32.1296   23.7205 O   0  0  0  0  0  0
  -27.3650  -24.4203   21.6415 C   0  0  0  0  0  0
  -28.9249  -23.7093   19.9443 C   0  0  0  0  0  0
  -28.1799  -24.8300   20.5450 C   0  0  0  0  0  0
  -27.2172  -23.0398   21.9583 C   0  0  0  0  0  0
  -28.7944  -22.3044   20.4035 C   0  0  0  0  0  0
  -28.6740  -18.4912   20.6210 C   0  0  0  0  0  0
  -30.6379  -18.5633   20.2711 C   0  0  0  0  0  0
  -29.8085  -17.4659   21.0314 C   0  0  2  0  0  0
  -26.6952  -25.4700   22.5217 C   0  0  0  0  0  0
  -29.8842  -24.0240   18.8090 C   0  0  0  0  0  0
  -26.2156  -22.5031   22.9735 C   0  0  0  0  0  0
  -29.5100  -20.9484   19.8537 C   0  0  0  0  0  0
  -27.9182  -22.0444   21.3795 N   0  0  0  0  0  0
  -29.6877  -15.9517   20.6397 N   0  0  0  0  0  0
  -29.6483  -19.6328   20.7002 N   0  3  1  0  0  0
  -31.4864  -12.6721   19.1748 H   0  0  0  0  0  0
  -30.4092  -11.5432   19.9642 H   0  0  0  0  0  0
  -29.8328  -11.7780   17.5159 H   0  0  0  0  0  0
  -29.6366  -13.5026   17.7215 H   0  0  0  0  0  0
  -27.9130  -11.2938   18.8906 H   0  0  0  0  0  0
  -27.3996  -12.5433   17.7860 H   0  0  0  0  0  0
  -27.6305  -14.2552   19.4647 H   0  0  0  0  0  0
  -28.7647  -12.1859   21.4176 H   0  0  0  0  0  0
  -28.4244  -13.8579   21.7922 H   0  0  0  0  0  0
  -25.2758   -9.5680   22.4761 H   0  0  0  0  0  0
  -23.9963   -7.4654   22.7505 H   0  0  0  0  0  0
  -21.0823   -8.8750   19.8977 H   0  0  0  0  0  0
  -22.3662  -10.9642   19.6152 H   0  0  0  0  0  0
  -21.2058   -7.6139   23.9686 H   0  0  0  0  0  0
  -21.1480   -6.0518   25.9047 H   0  0  0  0  0  0
  -22.0613   -2.7593   23.2852 H   0  0  0  0  0  0
  -22.4120  -11.9839   22.4813 H   0  0  0  0  0  0
  -21.1117  -13.1189   22.2568 H   0  0  0  0  0  0
  -24.6110  -15.8106   20.4522 H   0  0  0  0  0  0
  -26.2056  -15.6156   19.9373 H   0  0  0  0  0  0
  -26.7244  -32.5330   23.1020 H   0  0  0  0  0  0
  -25.0177  -33.9703   25.0417 H   0  0  0  0  0  0
  -22.7433  -31.2975   21.3837 H   0  0  0  0  0  0
  -23.3763  -35.9581   23.3301 H   0  0  0  0  0  0
  -24.3570  -36.8878   22.2042 H   0  0  0  0  0  0
  -23.7276  -37.6457   23.6663 H   0  0  0  0  0  0
  -26.1364  -31.4993   20.6122 H   0  0  0  0  0  0
  -26.8643  -30.7893   22.0219 H   0  0  0  0  0  0
  -28.1271  -28.8626   21.2290 H   0  0  0  0  0  0
  -25.9709  -25.8508   19.0132 H   0  0  0  0  0  0
  -23.9738  -27.2784   19.0148 H   0  0  0  0  0  0
  -23.7935  -30.5663   19.4009 H   0  0  0  0  0  0
  -22.7770  -29.2328   19.8563 H   0  0  0  0  0  0
  -25.1313  -36.1855   25.0818 H   0  0  0  0  0  0
  -21.0141  -28.3134   24.1240 H   0  0  0  0  0  0
  -20.6121  -26.2243   23.3168 H   0  0  0  0  0  0
  -21.6698  -26.7691   22.0575 H   0  0  0  0  0  0
  -19.6833  -25.6449   21.0962 H   0  0  0  0  0  0
  -19.6366  -27.3298   20.6571 H   0  0  0  0  0  0
  -17.4083  -26.6299   21.4358 H   0  0  0  0  0  0
  -18.0751  -26.0004   22.9241 H   0  0  0  0  0  0
  -19.8052  -30.7155   24.2299 H   0  0  0  0  0  0
  -17.5151  -31.6289   24.5162 H   0  0  0  0  0  0
  -15.5401  -30.3017   23.7710 H   0  0  0  0  0  0
  -15.8708  -28.0729   22.7286 H   0  0  0  0  0  0
  -24.5883  -30.7089   25.7782 H   0  0  0  0  0  0
  -24.8888  -32.2941   26.4800 H   0  0  0  0  0  0
  -25.7994  -30.8975   27.0273 H   0  0  0  0  0  0
  -26.3042  -29.6677   24.1280 H   0  0  0  0  0  0
  -27.4013  -29.7261   25.4870 H   0  0  0  0  0  0
  -27.8918  -30.4234   23.9608 H   0  0  0  0  0  0
  -27.2643  -33.3649   26.2066 H   0  0  0  0  0  0
  -28.3899  -32.6874   25.0392 H   0  0  0  0  0  0
  -28.0667  -31.8477   26.5508 H   0  0  0  0  0  0
  -28.2595  -38.0097   24.7486 H   0  0  0  0  0  0
  -28.1072  -36.2613   24.6328 H   0  0  0  0  0  0
  -27.2277  -37.1468   25.8880 H   0  0  0  0  0  0
  -20.9331  -29.8850   21.6912 H   0  0  0  0  0  0
  -26.0136  -38.2815   24.1406 H   0  0  0  0  0  0
  -27.8573  -18.5818   21.3378 H   0  0  0  0  0  0
  -28.2890  -18.3450   19.6095 H   0  0  0  0  0  0
  -30.6768  -18.4135   19.1905 H   0  0  0  0  0  0
  -31.6375  -18.7338   20.6744 H   0  0  0  0  0  0
  -29.9770  -17.5496   22.1112 H   0  0  0  0  0  0
  -25.7158  -25.7485   22.1367 H   0  0  0  0  0  0
  -27.3178  -26.3623   22.6005 H   0  0  0  0  0  0
  -26.5742  -25.1373   23.5476 H   0  0  0  0  0  0
  -29.9279  -25.0925   18.5894 H   0  0  0  0  0  0
  -29.5728  -23.5115   17.8998 H   0  0  0  0  0  0
  -30.8971  -23.7097   19.0604 H   0  0  0  0  0  0
  -26.1031  -23.1197   23.8619 H   0  0  0  0  0  0
  -26.5237  -21.5161   23.3252 H   0  0  0  0  0  0
  -25.2408  -22.3816   22.5008 H   0  0  0  0  0  0
  -30.5313  -21.2417   19.6093 H   0  0  0  0  0  0
  -29.0558  -20.6814   18.8980 H   0  0  0  0  0  0
  -28.7318  -15.6215   20.6855 H   0  0  0  0  0  0
  -29.7840  -19.8839   21.6697 H   0  0  0  0  0  0
  1 25  1  0  0  0
  1 30  2  0  0  0
  1 84  1  0  0  0
  2  3  1  0  0  0
  2 25  1  0  0  0
  2 86  1  0  0  0
  2 87  1  0  0  0
  3  4  1  0  0  0
  3 88  1  0  0  0
  3 89  1  0  0  0
  4  5  1  0  0  0
  4 90  1  0  0  0
  4 91  1  0  0  0
  5  6  1  0  0  0
  5 26  1  0  0  0
  5 92  1  0  0  0
  6 25  1  0  0  0
  6 93  1  0  0  0
  6 94  1  0  0  0
  7  8  2  0  0  0
  7 26  1  0  0  0
  7 29  1  0  0  0
  8  9  1  0  0  0
  8 22  1  0  0  0
  9 10  1  0  0  0
  9 27  2  0  0  0
 10 11  2  0  0  0
 10 15  1  0  0  0
 11 12  1  0  0  0
 11 95  1  0  0  0
 12 13  2  0  0  0
 12 96  1  0  0  0
 13 14  1  0  0  0
 13 31  1  0  0  0
 14 15  2  0  0  0
 14 97  1  0  0  0
 15 98  1  0  0  0
 16 17  2  0  0  0
 16 21  1  0  0  0
 16 31  1  0  0  0
 17 18  1  0  0  0
 17 99  1  0  0  0
 18 19  2  0  0  0
 18100  1  0  0  0
 19 20  1  0  0  0
 19 24  1  0  0  0
 20 21  2  0  0  0
 20101  1  0  0  0
 21 23  1  0  0  0
 22 28  1  0  0  0
 22 32  2  0  0  0
 26 27  1  0  0  0
 28102  1  0  0  0
 28103  1  0  0  0
 29104  1  0  0  0
 29105  1  0  0  0
 33 34  1  0  0  0
 33 66  1  0  0  0
 33 70  2  0  0  0
 34 36  1  0  0  0
 34 59  1  0  0  0
 34106  1  0  0  0
 35 44  2  0  0  0
 35 45  1  0  0  0
 35 68  1  0  0  0
 36 56  1  0  0  0
 36107  1  0  0  0
 37 39  1  0  0  0
 37 47  1  0  0  0
 37 66  1  0  0  0
 37108  1  0  0  0
 38 43  2  0  0  0
 38 46  1  0  0  0
 38 47  1  0  0  0
 39 64  1  0  0  0
 39 67  2  0  0  0
 40 52  1  0  0  0
 40 53  2  0  0  0
 40 58  1  0  0  0
 41109  1  0  0  0
 41110  1  0  0  0
 41111  1  0  0  0
 41 48  1  0  0  0
 42 43  1  0  0  0
 42 66  1  0  0  0
 42112  1  0  0  0
 42113  1  0  0  0
 43 44  1  0  0  0
 44114  1  0  0  0
 45 46  2  0  0  0
 45115  1  0  0  0
 46116  1  0  0  0
 47117  1  0  0  0
 47118  1  0  0  0
 48 56  1  0  0  0
 48 65  1  0  0  0
 48119  1  0  0  0
 49 50  1  0  0  0
 49 53  1  0  0  0
 49 64  1  0  0  0
 49120  1  0  0  0
 50 51  1  0  0  0
 50121  1  0  0  0
 50122  1  0  0  0
 51 52  1  0  0  0
 51123  1  0  0  0
 51124  1  0  0  0
 52125  1  0  0  0
 52126  1  0  0  0
 53 54  1  0  0  0
 54 55  2  0  0  0
 54127  1  0  0  0
 55 57  1  0  0  0
 55128  1  0  0  0
 56 69  2  0  0  0
 57 58  2  0  0  0
 57129  1  0  0  0
 58130  1  0  0  0
 59 60  1  0  0  0
 59 61  1  0  0  0
 59 62  1  0  0  0
 60131  1  0  0  0
 60132  1  0  0  0
 60133  1  0  0  0
 61134  1  0  0  0
 61135  1  0  0  0
 61136  1  0  0  0
 62137  1  0  0  0
 62138  1  0  0  0
 62139  1  0  0  0
 63 65  1  0  0  0
 63140  1  0  0  0
 63141  1  0  0  0
 63142  1  0  0  0
 64143  1  0  0  0
 65144  1  0  0  0
 68 73  1  0  0  0
 71 73  2  0  0  0
 71 74  1  0  0  0
 71 79  1  0  0  0
 72 73  1  0  0  0
 72 75  2  0  0  0
 72 80  1  0  0  0
 74 81  1  0  0  0
 74 83  2  0  0  0
 75 82  1  0  0  0
 75 83  1  0  0  0
 76 78  1  0  0  0
 76 85  1  0  0  0
 76145  1  0  0  0
 76146  1  0  0  0
 77 78  1  0  0  0
 77 85  1  0  0  0
 77147  1  0  0  0
 77148  1  0  0  0
 78 84  1  0  0  0
 78149  1  0  0  0
 79150  1  0  0  0
 79151  1  0  0  0
 79152  1  0  0  0
 80153  1  0  0  0
 80154  1  0  0  0
 80155  1  0  0  0
 81156  1  0  0  0
 81157  1  0  0  0
 81158  1  0  0  0
 82159  1  0  0  0
 82160  1  0  0  0
 82 85  1  0  0  0
 84161  1  0  0  0
 85162  1  0  0  0
M  CHG  1  85   1
M  ISO  4   1 100  68 101  73 101  84 100
M  END
> <chiral flag>
0

> <version>
0

> <s_m_source_file>
/data/baiqing/PycharmProjects/Reinvent-master-3.2/result/LINK_invent/BTK/process_docking_weight1_custom_sum_contain_oxygen_bond_distance_aromatic_linkinvent_7_9_3/rearranged_h_0169.sdf

> <i_m_source_file_index>
96

> <r_mmod_Potential_Energy-OPLS-2005>
-35.1669464111328

> <r_mmod_Stretch_Energy-OPLS-2005>
181.147094726562

> <r_mmod_Bend_Energy-OPLS-2005>
252.635559082031

> <r_mmod_Torsional_Energy-OPLS-2005>
239.589920043945

> <r_mmod_Improper_Torsional_Energy-OPLS-2005>
5.94203472137451

> <r_mmod_Van_der_Waal_Energy-OPLS-2005>
137.721572875977

> <r_mmod_Electrostatic_Energy-OPLS-2005>
-528.858459472656

> <r_mmod_Solvation_Energy-OPLS-2005>
-459.448364257812

> <b_mmod_Minimization_Converged-OPLS-2005>
0

> <r_mmod_RMS_Derivative-OPLS-2005>
6.44159412384033

$$$$
96
                    3D
 Structure written by MMmdl.
165175  0  0  1  0            999 V2000
  -30.6255  -14.9444   20.4529 C   0  0  0  0  0  0
  -30.4154  -12.6093   19.4963 C   0  0  0  0  0  0
  -29.5156  -12.5440   18.2435 C   0  0  0  0  0  0
  -28.0479  -12.3270   18.6555 C   0  0  0  0  0  0
  -27.6214  -13.2558   19.8233 C   0  0  2  0  0  0
  -28.6628  -13.3244   20.9635 C   0  0  0  0  0  0
  -25.2394  -13.8200   20.5664 C   0  0  0  0  0  0
  -24.1754  -13.0417   20.9237 C   0  0  0  0  0  0
  -24.6392  -11.6918   20.8727 C   0  0  0  0  0  0
  -23.9084  -10.4285   21.0386 C   0  0  0  0  0  0
  -24.3629   -9.4201   21.9170 C   0  0  0  0  0  0
  -23.6319   -8.2233   22.0744 C   0  0  0  0  0  0
  -22.4295   -8.0270   21.3530 C   0  0  0  0  0  0
  -21.9923   -9.0241   20.4641 C   0  0  0  0  0  0
  -22.7247  -10.2125   20.3037 C   0  0  0  0  0  0
  -21.6860   -6.0717   22.5290 C   0  0  0  0  0  0
  -21.4011   -6.5624   23.8216 C   0  0  0  0  0  0
  -21.3662   -5.6779   24.9185 C   0  0  0  0  0  0
  -21.6040   -4.3044   24.7229 C   0  0  0  0  0  0
  -21.8822   -3.8129   23.4353 C   0  0  0  0  0  0
  -21.9192   -4.6936   22.3411 C   0  0  0  0  0  0
  -22.7776  -13.5192   21.1900 C   0  0  0  0  0  0
  -22.1672   -4.2138   21.0990 F   0  0  0  0  0  0
  -21.5642   -3.4528   25.7736 F   0  0  0  0  0  0
  -29.9305  -13.7372   20.3517 N   0  0  0  0  0  0
  -26.2839  -12.9480   20.3162 N   0  0  0  0  0  0
  -25.9312  -11.6606   20.5681 N   0  0  0  0  0  0
  -22.0422  -12.8203   22.0462 N   0  0  0  0  0  0
  -25.3885  -15.1944   20.4035 N   0  0  0  0  0  0
  -31.8358  -14.8665   20.2151 O   0  0  0  0  0  0
  -21.6647   -6.8869   21.4253 O   0  0  0  0  0  0
  -22.3458  -14.5490   20.6713 O   0  0  0  0  0  0
  -24.6409  -31.8447   23.1960 C   0  0  0  0  0  0
  -25.9198  -32.4680   23.8329 C   0  0  1  0  0  0
  -27.1953  -27.1285   20.1786 C   0  0  0  0  0  0
  -25.5961  -33.8497   24.2213 N   0  0  0  0  0  0
  -23.4496  -30.4661   21.5306 C   0  0  2  0  0  0
  -24.9118  -28.9118   20.0917 C   0  0  0  0  0  0
  -22.7586  -29.4535   22.4777 C   0  0  0  0  0  0
  -18.0318  -28.1393   22.8476 C   0  0  0  0  0  0
  -24.1499  -36.7268   23.2641 C   0  0  0  0  0  0
  -26.0052  -30.7014   21.4198 C   0  0  0  0  0  0
  -26.0694  -29.3127   20.7718 C   0  0  0  0  0  0
  -27.2104  -28.4258   20.8265 C   0  0  0  0  0  0
  -26.0782  -26.8934   19.3618 C   0  0  0  0  0  0
  -24.9367  -27.7220   19.3531 C   0  0  0  0  0  0
  -23.6831  -29.8066   20.1430 C   0  0  0  0  0  0
  -25.4127  -36.3031   24.0318 C   0  0  1  0  0  0
  -20.5940  -28.3734   23.1201 C   0  0  2  0  0  0
  -20.6815  -26.9424   22.5393 C   0  0  0  0  0  0
  -19.5781  -26.6374   21.5211 C   0  0  0  0  0  0
  -18.1958  -26.7936   22.1618 C   0  0  0  0  0  0
  -19.1579  -28.8885   23.2832 C   0  0  0  0  0  0
  -18.9486  -30.1470   23.8861 C   0  0  0  0  0  0
  -17.6480  -30.6585   24.0566 C   0  0  0  0  0  0
  -25.9074  -34.9390   23.5071 C   0  0  0  0  0  0
  -16.5371  -29.9082   23.6332 C   0  0  0  0  0  0
  -16.7304  -28.6506   23.0355 C   0  0  0  0  0  0
  -26.4525  -31.6550   25.0779 C   0  0  0  0  0  0
  -25.3707  -31.3771   26.1482 C   0  0  0  0  0  0
  -27.0381  -30.2917   24.6423 C   0  0  0  0  0  0
  -27.6055  -32.4333   25.7560 C   0  0  0  0  0  0
  -27.5569  -37.1804   24.8458 C   0  0  0  0  0  0
  -21.4275  -29.3045   22.3555 N   0  0  0  0  0  0
  -26.4294  -37.3739   23.9392 N   0  0  0  0  0  0
  -24.7152  -31.0295   22.0994 N   0  0  0  0  0  0
  -23.4239  -28.8084   23.2924 O   0  0  0  0  0  0
  -28.2103  -26.1138   20.1269 O   0  0  0  0  0  0
  -26.5645  -34.8899   22.4639 O   0  0  0  0  0  0
  -23.5529  -32.1334   23.7143 O   0  0  0  0  0  0
  -28.7878  -22.1726   20.5329 C   0  0  0  0  0  0
  -27.9141  -23.2794   20.7829 C   0  0  0  0  0  0
  -28.3719  -20.7185   20.7671 C   0  0  0  0  0  0
  -26.3341  -21.6013   21.6346 C   0  0  0  0  0  0
  -24.7497  -24.6060   20.6419 C   0  0  0  0  0  0
  -24.1441  -23.7001   21.6525 C   0  0  0  0  0  0
  -30.4286  -19.0528   20.4377 C   0  0  0  0  0  0
  -28.2395  -18.1702   20.2588 C   0  0  0  0  0  0
  -30.9426  -17.5034   20.5951 C   0  0  0  0  0  0
  -28.7005  -16.7762   20.9139 C   0  0  0  0  0  0
  -25.6546  -23.9736   21.6757 C   0  0  0  0  0  0
  -29.8447  -24.8878   21.3823 C   0  0  0  0  0  0
  -28.3487  -24.8715   21.0476 C   0  0  1  0  0  0
  -27.1810  -20.6006   21.3002 N   0  0  0  0  0  0
  -26.6318  -22.9515   21.3030 N   0  0  0  0  0  0
  -28.9962  -19.4252   20.5929 N   0  0  0  0  0  0
  -30.0560  -16.2661   20.5619 N   0  0  0  0  0  0
  -25.3266  -21.2727   22.2592 O   0  0  0  0  0  0
  -31.4551  -12.7289   19.1866 H   0  0  0  0  0  0
  -30.3896  -11.6668   20.0462 H   0  0  0  0  0  0
  -29.8496  -11.7449   17.5812 H   0  0  0  0  0  0
  -29.6036  -13.4725   17.6783 H   0  0  0  0  0  0
  -27.9385  -11.2835   18.9520 H   0  0  0  0  0  0
  -27.3881  -12.4736   17.7992 H   0  0  0  0  0  0
  -27.5677  -14.2477   19.3746 H   0  0  0  0  0  0
  -28.7686  -12.3665   21.4726 H   0  0  0  0  0  0
  -28.3541  -14.0424   21.7233 H   0  0  0  0  0  0
  -25.2768   -9.5702   22.4747 H   0  0  0  0  0  0
  -24.0028   -7.4617   22.7453 H   0  0  0  0  0  0
  -21.0846   -8.8734   19.8959 H   0  0  0  0  0  0
  -22.3683  -10.9638   19.6134 H   0  0  0  0  0  0
  -21.2003   -7.6134   23.9737 H   0  0  0  0  0  0
  -21.1491   -6.0499   25.9096 H   0  0  0  0  0  0
  -22.0602   -2.7595   23.2846 H   0  0  0  0  0  0
  -22.4037  -11.9885   22.4867 H   0  0  0  0  0  0
  -21.0997  -13.1176   22.2590 H   0  0  0  0  0  0
  -24.6014  -15.8237   20.5179 H   0  0  0  0  0  0
  -26.2123  -15.6473   20.0301 H   0  0  0  0  0  0
  -26.7249  -32.5296   23.1048 H   0  0  0  0  0  0
  -25.0116  -33.9612   25.0368 H   0  0  0  0  0  0
  -22.7528  -31.2929   21.3800 H   0  0  0  0  0  0
  -23.3740  -35.9620   23.3314 H   0  0  0  0  0  0
  -24.3581  -36.8883   22.2048 H   0  0  0  0  0  0
  -23.7274  -37.6489   23.6662 H   0  0  0  0  0  0
  -26.1805  -31.4426   20.6401 H   0  0  0  0  0  0
  -26.8697  -30.7433   22.0701 H   0  0  0  0  0  0
  -28.0807  -28.7142   21.3998 H   0  0  0  0  0  0
  -26.0710  -26.0063   18.7444 H   0  0  0  0  0  0
  -24.0872  -27.4443   18.7456 H   0  0  0  0  0  0
  -23.8100  -30.5847   19.3884 H   0  0  0  0  0  0
  -22.8033  -29.2386   19.8364 H   0  0  0  0  0  0
  -25.1311  -36.1866   25.0811 H   0  0  0  0  0  0
  -21.0042  -28.3321   24.1317 H   0  0  0  0  0  0
  -20.5706  -26.2341   23.3615 H   0  0  0  0  0  0
  -21.6678  -26.7424   22.1181 H   0  0  0  0  0  0
  -19.6943  -25.6274   21.1258 H   0  0  0  0  0  0
  -19.6720  -27.3166   20.6728 H   0  0  0  0  0  0
  -17.4236  -26.6682   21.4010 H   0  0  0  0  0  0
  -18.0347  -26.0074   22.9007 H   0  0  0  0  0  0
  -19.7963  -30.7294   24.2208 H   0  0  0  0  0  0
  -17.5043  -31.6264   24.5167 H   0  0  0  0  0  0
  -15.5372  -30.2981   23.7684 H   0  0  0  0  0  0
  -15.8703  -28.0828   22.7075 H   0  0  0  0  0  0
  -24.5885  -30.7109   25.7830 H   0  0  0  0  0  0
  -24.8908  -32.2959   26.4860 H   0  0  0  0  0  0
  -25.8003  -30.8992   27.0294 H   0  0  0  0  0  0
  -26.3004  -29.6644   24.1408 H   0  0  0  0  0  0
  -27.3889  -29.7245   25.5054 H   0  0  0  0  0  0
  -27.8982  -30.4110   23.9837 H   0  0  0  0  0  0
  -27.2626  -33.3646   26.2097 H   0  0  0  0  0  0
  -28.3899  -32.6866   25.0411 H   0  0  0  0  0  0
  -28.0686  -31.8483   26.5520 H   0  0  0  0  0  0
  -28.2595  -38.0092   24.7466 H   0  0  0  0  0  0
  -28.1055  -36.2613   24.6330 H   0  0  0  0  0  0
  -27.2286  -37.1508   25.8865 H   0  0  0  0  0  0
  -20.9472  -29.8754   21.6739 H   0  0  0  0  0  0
  -26.0155  -38.2821   24.1357 H   0  0  0  0  0  0
  -29.7635  -22.3865   20.1238 H   0  0  0  0  0  0
  -24.4164  -25.6303   20.7705 H   0  0  0  0  0  0
  -24.8076  -24.2460   19.6165 H   0  0  0  0  0  0
  -23.7206  -22.7944   21.2236 H   0  0  0  0  0  0
  -23.5409  -24.1613   22.4313 H   0  0  0  0  0  0
  -30.7468  -19.4171   19.4589 H   0  0  0  0  0  0
  -30.9845  -19.6572   21.1546 H   0  0  0  0  0  0
  -27.1869  -18.3019   20.5155 H   0  0  0  0  0  0
  -28.2441  -18.0610   19.1722 H   0  0  0  0  0  0
  -31.4424  -17.4489   21.5641 H   0  0  0  0  0  0
  -31.7509  -17.3678   19.8736 H   0  0  0  0  0  0
  -27.9706  -16.0275   20.6313 H   0  0  0  0  0  0
  -28.6414  -16.8524   22.0007 H   0  0  0  0  0  0
  -25.9262  -24.5823   22.5361 H   0  0  0  0  0  0
  -30.0763  -24.1702   22.1735 H   0  0  0  0  0  0
  -30.1560  -25.8724   21.7313 H   0  0  0  0  0  0
  -30.4459  -24.6269   20.5090 H   0  0  0  0  0  0
  -27.8855  -25.1773   21.9829 H   0  0  0  0  0  0
  1 25  1  0  0  0
  1 30  2  0  0  0
  1 87  1  0  0  0
  2  3  1  0  0  0
  2 25  1  0  0  0
  2 89  1  0  0  0
  2 90  1  0  0  0
  3  4  1  0  0  0
  3 91  1  0  0  0
  3 92  1  0  0  0
  4  5  1  0  0  0
  4 93  1  0  0  0
  4 94  1  0  0  0
  5  6  1  0  0  0
  5 26  1  0  0  0
  5 95  1  0  0  0
  6 25  1  0  0  0
  6 96  1  0  0  0
  6 97  1  0  0  0
  7  8  2  0  0  0
  7 26  1  0  0  0
  7 29  1  0  0  0
  8  9  1  0  0  0
  8 22  1  0  0  0
  9 10  1  0  0  0
  9 27  2  0  0  0
 10 11  2  0  0  0
 10 15  1  0  0  0
 11 12  1  0  0  0
 11 98  1  0  0  0
 12 13  2  0  0  0
 12 99  1  0  0  0
 13 14  1  0  0  0
 13 31  1  0  0  0
 14 15  2  0  0  0
 14100  1  0  0  0
 15101  1  0  0  0
 16 17  2  0  0  0
 16 21  1  0  0  0
 16 31  1  0  0  0
 17 18  1  0  0  0
 17102  1  0  0  0
 18 19  2  0  0  0
 18103  1  0  0  0
 19 20  1  0  0  0
 19 24  1  0  0  0
 20 21  2  0  0  0
 20104  1  0  0  0
 21 23  1  0  0  0
 22 28  1  0  0  0
 22 32  2  0  0  0
 26 27  1  0  0  0
 28105  1  0  0  0
 28106  1  0  0  0
 29107  1  0  0  0
 29108  1  0  0  0
 33 34  1  0  0  0
 33 66  1  0  0  0
 33 70  2  0  0  0
 34 36  1  0  0  0
 34 59  1  0  0  0
 34109  1  0  0  0
 35 44  2  0  0  0
 35 45  1  0  0  0
 35 68  1  0  0  0
 36 56  1  0  0  0
 36110  1  0  0  0
 37 39  1  0  0  0
 37 47  1  0  0  0
 37 66  1  0  0  0
 37111  1  0  0  0
 38 43  2  0  0  0
 38 46  1  0  0  0
 38 47  1  0  0  0
 39 64  1  0  0  0
 39 67  2  0  0  0
 40 52  1  0  0  0
 40 53  2  0  0  0
 40 58  1  0  0  0
 41112  1  0  0  0
 41113  1  0  0  0
 41114  1  0  0  0
 41 48  1  0  0  0
 42 43  1  0  0  0
 42 66  1  0  0  0
 42115  1  0  0  0
 42116  1  0  0  0
 43 44  1  0  0  0
 44117  1  0  0  0
 45 46  2  0  0  0
 45118  1  0  0  0
 46119  1  0  0  0
 47120  1  0  0  0
 47121  1  0  0  0
 48 56  1  0  0  0
 48 65  1  0  0  0
 48122  1  0  0  0
 49 50  1  0  0  0
 49 53  1  0  0  0
 49 64  1  0  0  0
 49123  1  0  0  0
 50 51  1  0  0  0
 50124  1  0  0  0
 50125  1  0  0  0
 51 52  1  0  0  0
 51126  1  0  0  0
 51127  1  0  0  0
 52128  1  0  0  0
 52129  1  0  0  0
 53 54  1  0  0  0
 54 55  2  0  0  0
 54130  1  0  0  0
 55 57  1  0  0  0
 55131  1  0  0  0
 56 69  2  0  0  0
 57 58  2  0  0  0
 57132  1  0  0  0
 58133  1  0  0  0
 59 60  1  0  0  0
 59 61  1  0  0  0
 59 62  1  0  0  0
 60134  1  0  0  0
 60135  1  0  0  0
 60136  1  0  0  0
 61137  1  0  0  0
 61138  1  0  0  0
 61139  1  0  0  0
 62140  1  0  0  0
 62141  1  0  0  0
 62142  1  0  0  0
 63 65  1  0  0  0
 63143  1  0  0  0
 63144  1  0  0  0
 63145  1  0  0  0
 64146  1  0  0  0
 65147  1  0  0  0
 68 83  1  0  0  0
 71 72  2  0  0  0
 71 73  1  0  0  0
 71148  1  0  0  0
 72 83  1  0  0  0
 72 85  1  0  0  0
 73 84  2  0  0  0
 73 86  1  0  0  0
 74 84  1  0  0  0
 74 85  1  0  0  0
 74 88  2  0  0  0
 75 76  1  0  0  0
 75 81  1  0  0  0
 75149  1  0  0  0
 75150  1  0  0  0
 76 81  1  0  0  0
 76151  1  0  0  0
 76152  1  0  0  0
 77 79  1  0  0  0
 77 86  1  0  0  0
 77153  1  0  0  0
 77154  1  0  0  0
 78 80  1  0  0  0
 78 86  1  0  0  0
 78155  1  0  0  0
 78156  1  0  0  0
 79 87  1  0  0  0
 79157  1  0  0  0
 79158  1  0  0  0
 80 87  1  0  0  0
 80159  1  0  0  0
 80160  1  0  0  0
 81 85  1  0  0  0
 81161  1  0  0  0
 82162  1  0  0  0
 82163  1  0  0  0
 82164  1  0  0  0
 82 83  1  0  0  0
 83165  1  0  0  0
M  ISO  4   1 100  68 101  83 101  87 100
M  END
> <chiral flag>
0

> <version>
0

> <s_m_source_file>
/data/baiqing/PycharmProjects/Reinvent-master-3.2/result/LINK_invent/BTK/process_docking_weight1_custom_sum_contain_oxygen_bond_distance_aromatic_linkinvent_7_9_3/rearranged_h_0169.sdf

> <i_m_source_file_index>
97

> <r_mmod_Potential_Energy-OPLS-2005>
766.087341308594

> <r_mmod_Stretch_Energy-OPLS-2005>
254.720825195312

> <r_mmod_Bend_Energy-OPLS-2005>
355.380706787109

> <r_mmod_Torsional_Energy-OPLS-2005>
453.280822753906

> <r_mmod_Improper_Torsional_Energy-OPLS-2005>
8.40716171264648

> <r_mmod_Van_der_Waal_Energy-OPLS-2005>
168.45915222168

> <r_mmod_Electrostatic_Energy-OPLS-2005>
-430.039337158203

> <r_mmod_Solvation_Energy-OPLS-2005>
-247.820129394531

> <b_mmod_Minimization_Converged-OPLS-2005>
0

> <r_mmod_RMS_Derivative-OPLS-2005>
4.59710025787354

$$$$
