0
                    3D
 Structure written by MMmdl.
160168  0  0  1  0            999 V2000
  -30.5504  -14.9763   20.4204 C   0  0  0  0  0  0
  -30.4377  -12.6046   19.5140 C   0  0  0  0  0  0
  -29.5255  -12.5350   18.2666 C   0  0  0  0  0  0
  -28.0587  -12.3186   18.6806 C   0  0  0  0  0  0
  -27.6293  -13.2545   19.8406 C   0  0  2  0  0  0
  -28.6699  -13.3008   20.9817 C   0  0  0  0  0  0
  -25.2451  -13.8226   20.5715 C   0  0  0  0  0  0
  -24.1775  -13.0442   20.9233 C   0  0  0  0  0  0
  -24.6400  -11.6931   20.8760 C   0  0  0  0  0  0
  -23.9086  -10.4297   21.0409 C   0  0  0  0  0  0
  -24.3630   -9.4209   21.9184 C   0  0  0  0  0  0
  -23.6300   -8.2248   22.0756 C   0  0  0  0  0  0
  -22.4281   -8.0288   21.3547 C   0  0  0  0  0  0
  -21.9922   -9.0263   20.4649 C   0  0  0  0  0  0
  -22.7258  -10.2138   20.3059 C   0  0  0  0  0  0
  -21.6855   -6.0739   22.5277 C   0  0  0  0  0  0
  -21.4019   -6.5641   23.8211 C   0  0  0  0  0  0
  -21.3660   -5.6792   24.9173 C   0  0  0  0  0  0
  -21.6043   -4.3055   24.7223 C   0  0  0  0  0  0
  -21.8818   -3.8148   23.4342 C   0  0  0  0  0  0
  -21.9194   -4.6967   22.3400 C   0  0  0  0  0  0
  -22.7794  -13.5207   21.1880 C   0  0  0  0  0  0
  -22.1660   -4.2153   21.0978 F   0  0  0  0  0  0
  -21.5628   -3.4537   25.7734 F   0  0  0  0  0  0
  -29.9470  -13.7150   20.3863 N   0  0  0  0  0  0
  -26.2885  -12.9473   20.3259 N   0  0  0  0  0  0
  -25.9336  -11.6596   20.5746 N   0  0  0  0  0  0
  -22.0444  -12.8198   22.0439 N   0  0  0  0  0  0
  -25.4099  -15.1957   20.4117 N   0  0  0  0  0  0
  -31.7487  -15.0099   20.1257 O   0  0  0  0  0  0
  -21.6643   -6.8884   21.4241 O   0  0  0  0  0  0
  -22.3480  -14.5510   20.6724 O   0  0  0  0  0  0
  -24.6474  -31.8428   23.1916 C   0  0  0  0  0  0
  -25.9238  -32.4687   23.8297 C   0  0  1  0  0  0
  -27.1946  -27.0767   20.1567 C   0  0  0  0  0  0
  -25.5976  -33.8497   24.2197 N   0  0  0  0  0  0
  -23.4519  -30.4663   21.5384 C   0  0  2  0  0  0
  -24.8996  -28.8952   20.1140 C   0  0  0  0  0  0
  -22.7584  -29.4544   22.4856 C   0  0  0  0  0  0
  -18.0306  -28.1400   22.8476 C   0  0  0  0  0  0
  -24.1489  -36.7244   23.2640 C   0  0  0  0  0  0
  -26.0146  -30.6912   21.4101 C   0  0  0  0  0  0
  -26.0774  -29.2979   20.7555 C   0  0  0  0  0  0
  -27.2209  -28.4015   20.7727 C   0  0  0  0  0  0
  -26.0197  -26.8472   19.4070 C   0  0  0  0  0  0
  -24.8873  -27.6823   19.4215 C   0  0  0  0  0  0
  -23.6818  -29.8044   20.1563 C   0  0  0  0  0  0
  -25.4123  -36.3024   24.0313 C   0  0  1  0  0  0
  -20.5921  -28.3728   23.1223 C   0  0  2  0  0  0
  -20.6788  -26.9428   22.5398 C   0  0  0  0  0  0
  -19.5759  -26.6382   21.5210 C   0  0  0  0  0  0
  -18.1943  -26.7936   22.1626 C   0  0  0  0  0  0
  -19.1565  -28.8882   23.2839 C   0  0  0  0  0  0
  -18.9481  -30.1477   23.8867 C   0  0  0  0  0  0
  -17.6478  -30.6595   24.0560 C   0  0  0  0  0  0
  -25.9080  -34.9401   23.5060 C   0  0  0  0  0  0
  -16.5367  -29.9087   23.6339 C   0  0  0  0  0  0
  -16.7290  -28.6507   23.0359 C   0  0  0  0  0  0
  -26.4541  -31.6570   25.0757 C   0  0  0  0  0  0
  -25.3707  -31.3787   26.1439 C   0  0  0  0  0  0
  -27.0419  -30.2951   24.6401 C   0  0  0  0  0  0
  -27.6057  -32.4350   25.7545 C   0  0  0  0  0  0
  -27.5572  -37.1782   24.8467 C   0  0  0  0  0  0
  -21.4273  -29.3053   22.3595 N   0  0  0  0  0  0
  -26.4283  -37.3742   23.9409 N   0  0  0  0  0  0
  -24.7245  -31.0230   22.0999 N   0  0  0  0  0  0
  -23.4208  -28.8074   23.3009 O   0  0  0  0  0  0
  -28.2209  -26.0381   20.2018 O   0  0  0  0  0  0
  -26.5661  -34.8896   22.4637 O   0  0  0  0  0  0
  -23.5581  -32.1345   23.7091 O   0  0  0  0  0  0
  -28.5109  -20.6431   22.3037 C   0  0  0  0  0  0
  -28.4953  -19.5202   23.0836 C   0  0  0  0  0  0
  -29.3475  -18.9222   21.0813 C   0  0  0  0  0  0
  -28.0368  -19.3072   24.4898 C   0  0  0  0  0  0
  -31.4498  -18.0548   19.8726 C   0  0  0  0  0  0
  -26.8649  -23.8947   19.4525 C   0  0  0  0  0  0
  -29.1431  -23.2367   20.4555 C   0  0  0  0  0  0
  -29.1051  -21.5579   20.0514 C   0  0  0  0  0  0
  -29.9780  -17.7244   20.1651 C   0  0  2  0  0  0
  -27.9666  -24.4667   20.3616 C   0  0  1  0  0  0
  -29.0476  -20.3372   21.0750 N   0  0  0  0  0  0
  -29.0176  -18.5199   22.3140 N   0  3  0  0  0  0
  -29.7872  -16.1802   20.5724 N   0  0  0  0  0  0
  -31.4739  -12.7504   19.2053 H   0  0  0  0  0  0
  -30.4243  -11.6575   20.0556 H   0  0  0  0  0  0
  -29.8505  -11.7335   17.6018 H   0  0  0  0  0  0
  -29.6128  -13.4615   17.6967 H   0  0  0  0  0  0
  -27.9557  -11.2780   18.9898 H   0  0  0  0  0  0
  -27.3980  -12.4484   17.8228 H   0  0  0  0  0  0
  -27.5880  -14.2532   19.4048 H   0  0  0  0  0  0
  -28.7606  -12.3309   21.4728 H   0  0  0  0  0  0
  -28.3633  -14.0095   21.7523 H   0  0  0  0  0  0
  -25.2773   -9.5680   22.4762 H   0  0  0  0  0  0
  -24.0004   -7.4638   22.7474 H   0  0  0  0  0  0
  -21.0853   -8.8785   19.8954 H   0  0  0  0  0  0
  -22.3715  -10.9678   19.6170 H   0  0  0  0  0  0
  -21.2015   -7.6150   23.9715 H   0  0  0  0  0  0
  -21.1482   -6.0523   25.9074 H   0  0  0  0  0  0
  -22.0597   -2.7612   23.2840 H   0  0  0  0  0  0
  -22.4061  -11.9859   22.4826 H   0  0  0  0  0  0
  -21.1058  -13.1217   22.2639 H   0  0  0  0  0  0
  -24.6316  -15.8388   20.5074 H   0  0  0  0  0  0
  -26.2358  -15.6322   20.0249 H   0  0  0  0  0  0
  -26.7299  -32.5271   23.1014 H   0  0  0  0  0  0
  -25.0104  -33.9617   25.0331 H   0  0  0  0  0  0
  -22.7562  -31.2942   21.3863 H   0  0  0  0  0  0
  -23.3758  -35.9569   23.3293 H   0  0  0  0  0  0
  -24.3570  -36.8887   22.2056 H   0  0  0  0  0  0
  -23.7236  -37.6434   23.6685 H   0  0  0  0  0  0
  -26.1835  -31.4392   20.6341 H   0  0  0  0  0  0
  -26.8813  -30.7395   22.0573 H   0  0  0  0  0  0
  -28.1086  -28.7001   21.3124 H   0  0  0  0  0  0
  -25.9388  -26.0084   18.7448 H   0  0  0  0  0  0
  -24.0121  -27.3936   18.8557 H   0  0  0  0  0  0
  -23.8261  -30.5826   19.4060 H   0  0  0  0  0  0
  -22.7945  -29.2533   19.8391 H   0  0  0  0  0  0
  -25.1309  -36.1850   25.0804 H   0  0  0  0  0  0
  -21.0012  -28.3322   24.1344 H   0  0  0  0  0  0
  -20.5679  -26.2346   23.3622 H   0  0  0  0  0  0
  -21.6654  -26.7429   22.1197 H   0  0  0  0  0  0
  -19.6918  -25.6286   21.1258 H   0  0  0  0  0  0
  -19.6692  -27.3177   20.6727 H   0  0  0  0  0  0
  -17.4208  -26.6676   21.4034 H   0  0  0  0  0  0
  -18.0347  -26.0086   22.9031 H   0  0  0  0  0  0
  -19.7958  -30.7302   24.2224 H   0  0  0  0  0  0
  -17.5031  -31.6273   24.5166 H   0  0  0  0  0  0
  -15.5368  -30.2980   23.7681 H   0  0  0  0  0  0
  -15.8690  -28.0816   22.7091 H   0  0  0  0  0  0
  -24.5895  -30.7122   25.7767 H   0  0  0  0  0  0
  -24.8889  -32.2981   26.4774 H   0  0  0  0  0  0
  -25.7975  -30.9026   27.0275 H   0  0  0  0  0  0
  -26.3067  -29.6659   24.1372 H   0  0  0  0  0  0
  -27.3953  -29.7271   25.5016 H   0  0  0  0  0  0
  -27.9011  -30.4157   23.9800 H   0  0  0  0  0  0
  -27.2638  -33.3672   26.2052 H   0  0  0  0  0  0
  -28.3909  -32.6877   25.0409 H   0  0  0  0  0  0
  -28.0680  -31.8527   26.5525 H   0  0  0  0  0  0
  -28.2585  -38.0082   24.7509 H   0  0  0  0  0  0
  -28.1073  -36.2611   24.6301 H   0  0  0  0  0  0
  -27.2288  -37.1435   25.8870 H   0  0  0  0  0  0
  -20.9487  -29.8781   21.6781 H   0  0  0  0  0  0
  -26.0145  -38.2807   24.1417 H   0  0  0  0  0  0
  -28.1775  -21.6435   22.5450 H   0  0  0  0  0  0
  -27.5852  -18.3217   24.6053 H   0  0  0  0  0  0
  -27.2941  -20.0565   24.7632 H   0  0  0  0  0  0
  -28.8774  -19.3891   25.1787 H   0  0  0  0  0  0
  -31.8719  -17.3918   19.1182 H   0  0  0  0  0  0
  -32.0587  -17.9784   20.7735 H   0  0  0  0  0  0
  -31.5519  -19.0710   19.4899 H   0  0  0  0  0  0
  -26.7714  -22.8175   19.5593 H   0  0  0  0  0  0
  -27.0499  -24.1040   18.3987 H   0  0  0  0  0  0
  -25.8764  -24.2441   19.7452 H   0  0  0  0  0  0
  -29.9085  -23.6154   19.7778 H   0  0  0  0  0  0
  -29.6256  -23.3248   21.4290 H   0  0  0  0  0  0
  -30.0305  -21.3751   19.5050 H   0  0  0  0  0  0
  -28.3362  -21.3647   19.3058 H   0  0  0  0  0  0
  -29.4388  -17.8314   19.2235 H   0  0  0  0  0  0
  -27.5183  -24.4285   21.3553 H   0  0  0  0  0  0
  -29.1608  -17.5685   22.6315 H   0  0  0  0  0  0
  -28.8272  -15.9674   20.7974 H   0  0  0  0  0  0
  1 25  1  0  0  0
  1 30  2  0  0  0
  1 83  1  0  0  0
  2  3  1  0  0  0
  2 25  1  0  0  0
  2 84  1  0  0  0
  2 85  1  0  0  0
  3  4  1  0  0  0
  3 86  1  0  0  0
  3 87  1  0  0  0
  4  5  1  0  0  0
  4 88  1  0  0  0
  4 89  1  0  0  0
  5  6  1  0  0  0
  5 26  1  0  0  0
  5 90  1  0  0  0
  6 25  1  0  0  0
  6 91  1  0  0  0
  6 92  1  0  0  0
  7  8  2  0  0  0
  7 26  1  0  0  0
  7 29  1  0  0  0
  8  9  1  0  0  0
  8 22  1  0  0  0
  9 10  1  0  0  0
  9 27  2  0  0  0
 10 11  2  0  0  0
 10 15  1  0  0  0
 11 12  1  0  0  0
 11 93  1  0  0  0
 12 13  2  0  0  0
 12 94  1  0  0  0
 13 14  1  0  0  0
 13 31  1  0  0  0
 14 15  2  0  0  0
 14 95  1  0  0  0
 15 96  1  0  0  0
 16 17  2  0  0  0
 16 21  1  0  0  0
 16 31  1  0  0  0
 17 18  1  0  0  0
 17 97  1  0  0  0
 18 19  2  0  0  0
 18 98  1  0  0  0
 19 20  1  0  0  0
 19 24  1  0  0  0
 20 21  2  0  0  0
 20 99  1  0  0  0
 21 23  1  0  0  0
 22 28  1  0  0  0
 22 32  2  0  0  0
 26 27  1  0  0  0
 28100  1  0  0  0
 28101  1  0  0  0
 29102  1  0  0  0
 29103  1  0  0  0
 33 34  1  0  0  0
 33 66  1  0  0  0
 33 70  2  0  0  0
 34 36  1  0  0  0
 34 59  1  0  0  0
 34104  1  0  0  0
 35 44  2  0  0  0
 35 45  1  0  0  0
 35 68  1  0  0  0
 36 56  1  0  0  0
 36105  1  0  0  0
 37 39  1  0  0  0
 37 47  1  0  0  0
 37 66  1  0  0  0
 37106  1  0  0  0
 38 43  2  0  0  0
 38 46  1  0  0  0
 38 47  1  0  0  0
 39 64  1  0  0  0
 39 67  2  0  0  0
 40 52  1  0  0  0
 40 53  2  0  0  0
 40 58  1  0  0  0
 41107  1  0  0  0
 41108  1  0  0  0
 41109  1  0  0  0
 41 48  1  0  0  0
 42 43  1  0  0  0
 42 66  1  0  0  0
 42110  1  0  0  0
 42111  1  0  0  0
 43 44  1  0  0  0
 44112  1  0  0  0
 45 46  2  0  0  0
 45113  1  0  0  0
 46114  1  0  0  0
 47115  1  0  0  0
 47116  1  0  0  0
 48 56  1  0  0  0
 48 65  1  0  0  0
 48117  1  0  0  0
 49 50  1  0  0  0
 49 53  1  0  0  0
 49 64  1  0  0  0
 49118  1  0  0  0
 50 51  1  0  0  0
 50119  1  0  0  0
 50120  1  0  0  0
 51 52  1  0  0  0
 51121  1  0  0  0
 51122  1  0  0  0
 52123  1  0  0  0
 52124  1  0  0  0
 53 54  1  0  0  0
 54 55  2  0  0  0
 54125  1  0  0  0
 55 57  1  0  0  0
 55126  1  0  0  0
 56 69  2  0  0  0
 57 58  2  0  0  0
 57127  1  0  0  0
 58128  1  0  0  0
 59 60  1  0  0  0
 59 61  1  0  0  0
 59 62  1  0  0  0
 60129  1  0  0  0
 60130  1  0  0  0
 60131  1  0  0  0
 61132  1  0  0  0
 61133  1  0  0  0
 61134  1  0  0  0
 62135  1  0  0  0
 62136  1  0  0  0
 62137  1  0  0  0
 63 65  1  0  0  0
 63138  1  0  0  0
 63139  1  0  0  0
 63140  1  0  0  0
 64141  1  0  0  0
 65142  1  0  0  0
 68 80  1  0  0  0
 71 72  2  0  0  0
 71 81  1  0  0  0
 71143  1  0  0  0
 72 74  1  0  0  0
 72 82  1  0  0  0
 73 79  1  0  0  0
 73 81  1  0  0  0
 73 82  2  0  0  0
 74144  1  0  0  0
 74145  1  0  0  0
 74146  1  0  0  0
 75147  1  0  0  0
 75148  1  0  0  0
 75149  1  0  0  0
 75 79  1  0  0  0
 76150  1  0  0  0
 76151  1  0  0  0
 76152  1  0  0  0
 76 80  1  0  0  0
 77 78  1  0  0  0
 77 80  1  0  0  0
 77153  1  0  0  0
 77154  1  0  0  0
 78 81  1  0  0  0
 78155  1  0  0  0
 78156  1  0  0  0
 79 83  1  0  0  0
 79157  1  0  0  0
 80158  1  0  0  0
 82159  1  0  0  0
 83160  1  0  0  0
M  CHG  1  82   1
M  ISO  4   1 100  68 101  80 101  83 100
M  END
> <chiral flag>
0

> <version>
0

> <s_m_source_file>
/data/baiqing/PycharmProjects/Reinvent-master-3.2/result/LINK_invent/BTK/process_docking_weight1_custom_sum_contain_oxygen_bond_distance_aromatic_linkinvent_7_9_3/rearranged_h_0075.sdf

> <i_m_source_file_index>
1

> <r_mmod_Potential_Energy-OPLS-2005>
611.971313476562

> <r_mmod_Stretch_Energy-OPLS-2005>
330.878387451172

> <r_mmod_Bend_Energy-OPLS-2005>
351.935424804688

> <r_mmod_Torsional_Energy-OPLS-2005>
251.849563598633

> <r_mmod_Improper_Torsional_Energy-OPLS-2005>
5.5943398475647

> <r_mmod_Van_der_Waal_Energy-OPLS-2005>
119.972076416016

> <r_mmod_Electrostatic_Energy-OPLS-2005>
-245.454315185547

> <r_mmod_Solvation_Energy-OPLS-2005>
-431.787841796875

> <b_mmod_Minimization_Converged-OPLS-2005>
0

> <r_mmod_RMS_Derivative-OPLS-2005>
0.569512188434601

$$$$
1
                    3D
 Structure written by MMmdl.
159167  0  0  1  0            999 V2000
  -30.6345  -14.7144   20.5007 C   0  0  0  0  0  0
  -30.4392  -12.4388   19.4704 C   0  0  0  0  0  0
  -29.5279  -12.5105   18.2259 C   0  0  0  0  0  0
  -28.0446  -12.3419   18.6277 C   0  0  0  0  0  0
  -27.6540  -13.2265   19.8466 C   0  0  2  0  0  0
  -28.6975  -13.1388   20.9850 C   0  0  0  0  0  0
  -25.2584  -13.8244   20.5610 C   0  0  0  0  0  0
  -24.1857  -13.0473   20.9159 C   0  0  0  0  0  0
  -24.6410  -11.6928   20.8642 C   0  0  0  0  0  0
  -23.9082  -10.4289   21.0342 C   0  0  0  0  0  0
  -24.3645   -9.4208   21.9136 C   0  0  0  0  0  0
  -23.6284   -8.2257   22.0777 C   0  0  0  0  0  0
  -22.4282   -8.0267   21.3543 C   0  0  0  0  0  0
  -21.9910   -9.0228   20.4636 C   0  0  0  0  0  0
  -22.7234  -10.2111   20.3012 C   0  0  0  0  0  0
  -21.6871   -6.0717   22.5257 C   0  0  0  0  0  0
  -21.4011   -6.5633   23.8178 C   0  0  0  0  0  0
  -21.3633   -5.6789   24.9145 C   0  0  0  0  0  0
  -21.6035   -4.3051   24.7215 C   0  0  0  0  0  0
  -21.8871   -3.8137   23.4353 C   0  0  0  0  0  0
  -21.9244   -4.6949   22.3415 C   0  0  0  0  0  0
  -22.7889  -13.5268   21.1845 C   0  0  0  0  0  0
  -22.1716   -4.2135   21.0992 F   0  0  0  0  0  0
  -21.5618   -3.4548   25.7745 F   0  0  0  0  0  0
  -30.0002  -13.4957   20.4094 N   0  0  0  0  0  0
  -26.3004  -12.9417   20.3212 N   0  0  0  0  0  0
  -25.9333  -11.6553   20.5580 N   0  0  0  0  0  0
  -22.0525  -12.8222   22.0361 N   0  0  0  0  0  0
  -25.4348  -15.1966   20.4108 N   0  0  0  0  0  0
  -31.8139  -14.8245   20.1522 O   0  0  0  0  0  0
  -21.6643   -6.8853   21.4222 O   0  0  0  0  0  0
  -22.3581  -14.5567   20.6708 O   0  0  0  0  0  0
  -24.6332  -31.8581   23.2028 C   0  0  0  0  0  0
  -25.9162  -32.4797   23.8387 C   0  0  1  0  0  0
  -27.2015  -27.2511   20.1551 C   0  0  0  0  0  0
  -25.5963  -33.8610   24.2317 N   0  0  0  0  0  0
  -23.4323  -30.4841   21.5396 C   0  0  2  0  0  0
  -24.8818  -28.9384   20.1028 C   0  0  0  0  0  0
  -22.7546  -29.4621   22.4858 C   0  0  0  0  0  0
  -18.0303  -28.1414   22.8454 C   0  0  0  0  0  0
  -24.1504  -36.7324   23.2625 C   0  0  0  0  0  0
  -25.9770  -30.7693   21.3820 C   0  0  0  0  0  0
  -26.0493  -29.3908   20.7320 C   0  0  0  0  0  0
  -27.2148  -28.5575   20.7512 C   0  0  0  0  0  0
  -26.0230  -26.8849   19.4715 C   0  0  0  0  0  0
  -24.8772  -27.6984   19.4513 C   0  0  0  0  0  0
  -23.6571  -29.8307   20.1511 C   0  0  0  0  0  0
  -25.4130  -36.3117   24.0316 C   0  0  1  0  0  0
  -20.5908  -28.3754   23.1219 C   0  0  2  0  0  0
  -20.6808  -26.9467   22.5369 C   0  0  0  0  0  0
  -19.5778  -26.6406   21.5197 C   0  0  0  0  0  0
  -18.1966  -26.7950   22.1617 C   0  0  0  0  0  0
  -19.1551  -28.8897   23.2844 C   0  0  0  0  0  0
  -18.9468  -30.1477   23.8891 C   0  0  0  0  0  0
  -17.6465  -30.6596   24.0569 C   0  0  0  0  0  0
  -25.9063  -34.9465   23.5124 C   0  0  0  0  0  0
  -16.5362  -29.9097   23.6296 C   0  0  0  0  0  0
  -16.7292  -28.6514   23.0325 C   0  0  0  0  0  0
  -26.4545  -31.6596   25.0752 C   0  0  0  0  0  0
  -25.3758  -31.3742   26.1461 C   0  0  0  0  0  0
  -27.0388  -30.3016   24.6176 C   0  0  0  0  0  0
  -27.6109  -32.4334   25.7530 C   0  0  0  0  0  0
  -27.5600  -37.1818   24.8450 C   0  0  0  0  0  0
  -21.4244  -29.3101   22.3635 N   0  0  0  0  0  0
  -26.4315  -37.3805   23.9393 N   0  0  0  0  0  0
  -24.6999  -31.0557   22.0995 N   0  0  0  0  0  0
  -23.4218  -28.8123   23.2957 O   0  0  0  0  0  0
  -28.2682  -26.3211   20.2074 O   0  0  0  0  0  0
  -26.5617  -34.8921   22.4685 O   0  0  0  0  0  0
  -23.5454  -32.1423   23.7280 O   0  0  0  0  0  0
  -27.0974  -21.2180   18.1121 C   0  0  0  0  0  0
  -27.4989  -22.4767   18.4766 C   0  0  0  0  0  0
  -28.4781  -20.9688   19.7877 C   0  0  0  0  0  0
  -26.2585  -20.7726   16.9514 C   0  0  0  0  0  0
  -27.1868  -23.7383   17.7198 C   0  0  0  0  0  0
  -29.4389  -20.0511   20.6319 C   0  0  0  0  0  0
  -29.1864  -18.4335   20.5327 C   0  0  0  0  0  0
  -28.9109  -23.6140   20.2684 C   0  0  0  0  0  0
  -30.2914  -17.3112   20.8873 C   0  0  0  0  0  0
  -27.9495  -24.8929   20.5952 C   0  0  0  0  0  0
  -27.6890  -20.3029   18.9482 N   0  0  0  0  0  0
  -28.3161  -22.3660   19.6268 N   0  0  0  0  0  0
  -29.8865  -15.8359   20.8123 N   0  0  0  0  0  0
  -31.4873  -12.5431   19.1794 H   0  0  0  0  0  0
  -30.3528  -11.4599   19.9450 H   0  0  0  0  0  0
  -29.8136  -11.7441   17.5048 H   0  0  0  0  0  0
  -29.6754  -13.4696   17.7240 H   0  0  0  0  0  0
  -27.8820  -11.2863   18.8645 H   0  0  0  0  0  0
  -27.3948  -12.5562   17.7769 H   0  0  0  0  0  0
  -27.6619  -14.2512   19.4785 H   0  0  0  0  0  0
  -28.7328  -12.1319   21.4044 H   0  0  0  0  0  0
  -28.4400  -13.8051   21.8098 H   0  0  0  0  0  0
  -25.2843   -9.5678   22.4635 H   0  0  0  0  0  0
  -24.0023   -7.4661   22.7518 H   0  0  0  0  0  0
  -21.0835   -8.8718   19.8961 H   0  0  0  0  0  0
  -22.3723  -10.9601   19.6035 H   0  0  0  0  0  0
  -21.1960   -7.6130   23.9632 H   0  0  0  0  0  0
  -21.1432   -6.0529   25.9044 H   0  0  0  0  0  0
  -22.0701   -2.7608   23.2871 H   0  0  0  0  0  0
  -22.4167  -11.9916   22.4800 H   0  0  0  0  0  0
  -21.1095  -13.1191   22.2407 H   0  0  0  0  0  0
  -24.6680  -15.8578   20.4769 H   0  0  0  0  0  0
  -26.3032  -15.6402   20.1412 H   0  0  0  0  0  0
  -26.7276  -32.5447   23.1171 H   0  0  0  0  0  0
  -25.0236  -33.9782   25.0547 H   0  0  0  0  0  0
  -22.7279  -31.3075   21.3946 H   0  0  0  0  0  0
  -23.3774  -35.9655   23.3276 H   0  0  0  0  0  0
  -24.3609  -36.8966   22.2047 H   0  0  0  0  0  0
  -23.7240  -37.6502   23.6680 H   0  0  0  0  0  0
  -26.1073  -31.5181   20.5978 H   0  0  0  0  0  0
  -26.8582  -30.8317   22.0063 H   0  0  0  0  0  0
  -28.0999  -28.8949   21.2699 H   0  0  0  0  0  0
  -25.9679  -25.9452   18.9463 H   0  0  0  0  0  0
  -23.9953  -27.3637   18.9196 H   0  0  0  0  0  0
  -23.8008  -30.6133   19.4058 H   0  0  0  0  0  0
  -22.7738  -29.2779   19.8247 H   0  0  0  0  0  0
  -25.1305  -36.2011   25.0807 H   0  0  0  0  0  0
  -21.0001  -28.3364   24.1344 H   0  0  0  0  0  0
  -20.5716  -26.2407   23.3614 H   0  0  0  0  0  0
  -21.6685  -26.7518   22.1166 H   0  0  0  0  0  0
  -19.6959  -25.6310   21.1265 H   0  0  0  0  0  0
  -19.6683  -27.3186   20.6707 H   0  0  0  0  0  0
  -17.4225  -26.6658   21.4033 H   0  0  0  0  0  0
  -18.0378  -26.0116   22.9036 H   0  0  0  0  0  0
  -19.7940  -30.7292   24.2280 H   0  0  0  0  0  0
  -17.5010  -31.6251   24.5223 H   0  0  0  0  0  0
  -15.5358  -30.3005   23.7601 H   0  0  0  0  0  0
  -15.8704  -28.0831   22.7031 H   0  0  0  0  0  0
  -24.5904  -30.7154   25.7759 H   0  0  0  0  0  0
  -24.8973  -32.2905   26.4907 H   0  0  0  0  0  0
  -25.8005  -30.8863   27.0238 H   0  0  0  0  0  0
  -26.2965  -29.6761   24.1200 H   0  0  0  0  0  0
  -27.4135  -29.7252   25.4646 H   0  0  0  0  0  0
  -27.8828  -30.4333   23.9405 H   0  0  0  0  0  0
  -27.2751  -33.3637   26.2140 H   0  0  0  0  0  0
  -28.3907  -32.6895   25.0350 H   0  0  0  0  0  0
  -28.0851  -31.8454   26.5399 H   0  0  0  0  0  0
  -28.2586  -38.0137   24.7530 H   0  0  0  0  0  0
  -28.1113  -36.2657   24.6257 H   0  0  0  0  0  0
  -27.2320  -37.1466   25.8848 H   0  0  0  0  0  0
  -20.9462  -29.8909   21.6887 H   0  0  0  0  0  0
  -26.0196  -38.2891   24.1349 H   0  0  0  0  0  0
  -25.2751  -20.4171   17.2626 H   0  0  0  0  0  0
  -26.7441  -19.9628   16.4081 H   0  0  0  0  0  0
  -26.1037  -21.5767   16.2328 H   0  0  0  0  0  0
  -27.3842  -23.5899   16.6583 H   0  0  0  0  0  0
  -27.7917  -24.5938   18.0151 H   0  0  0  0  0  0
  -26.1302  -23.9961   17.7979 H   0  0  0  0  0  0
  -29.4048  -20.3654   21.6775 H   0  0  0  0  0  0
  -30.4549  -20.2577   20.2915 H   0  0  0  0  0  0
  -28.9368  -18.2123   19.4945 H   0  0  0  0  0  0
  -28.2794  -18.2088   21.0946 H   0  0  0  0  0  0
  -29.4210  -23.3062   21.1827 H   0  0  0  0  0  0
  -29.6992  -23.9526   19.5940 H   0  0  0  0  0  0
  -30.6621  -17.4928   21.8977 H   0  0  0  0  0  0
  -31.1578  -17.4632   20.2426 H   0  0  0  0  0  0
  -26.9440  -24.6179   20.2893 H   0  0  0  0  0  0
  -27.8426  -24.9226   21.6807 H   0  0  0  0  0  0
  -28.9234  -15.6407   21.0387 H   0  0  0  0  0  0
  1 25  1  0  0  0
  1 30  2  0  0  0
  1 83  1  0  0  0
  2  3  1  0  0  0
  2 25  1  0  0  0
  2 84  1  0  0  0
  2 85  1  0  0  0
  3  4  1  0  0  0
  3 86  1  0  0  0
  3 87  1  0  0  0
  4  5  1  0  0  0
  4 88  1  0  0  0
  4 89  1  0  0  0
  5  6  1  0  0  0
  5 26  1  0  0  0
  5 90  1  0  0  0
  6 25  1  0  0  0
  6 91  1  0  0  0
  6 92  1  0  0  0
  7  8  2  0  0  0
  7 26  1  0  0  0
  7 29  1  0  0  0
  8  9  1  0  0  0
  8 22  1  0  0  0
  9 10  1  0  0  0
  9 27  2  0  0  0
 10 11  2  0  0  0
 10 15  1  0  0  0
 11 12  1  0  0  0
 11 93  1  0  0  0
 12 13  2  0  0  0
 12 94  1  0  0  0
 13 14  1  0  0  0
 13 31  1  0  0  0
 14 15  2  0  0  0
 14 95  1  0  0  0
 15 96  1  0  0  0
 16 17  2  0  0  0
 16 21  1  0  0  0
 16 31  1  0  0  0
 17 18  1  0  0  0
 17 97  1  0  0  0
 18 19  2  0  0  0
 18 98  1  0  0  0
 19 20  1  0  0  0
 19 24  1  0  0  0
 20 21  2  0  0  0
 20 99  1  0  0  0
 21 23  1  0  0  0
 22 28  1  0  0  0
 22 32  2  0  0  0
 26 27  1  0  0  0
 28100  1  0  0  0
 28101  1  0  0  0
 29102  1  0  0  0
 29103  1  0  0  0
 33 34  1  0  0  0
 33 66  1  0  0  0
 33 70  2  0  0  0
 34 36  1  0  0  0
 34 59  1  0  0  0
 34104  1  0  0  0
 35 44  2  0  0  0
 35 45  1  0  0  0
 35 68  1  0  0  0
 36 56  1  0  0  0
 36105  1  0  0  0
 37 39  1  0  0  0
 37 47  1  0  0  0
 37 66  1  0  0  0
 37106  1  0  0  0
 38 43  2  0  0  0
 38 46  1  0  0  0
 38 47  1  0  0  0
 39 64  1  0  0  0
 39 67  2  0  0  0
 40 52  1  0  0  0
 40 53  2  0  0  0
 40 58  1  0  0  0
 41107  1  0  0  0
 41108  1  0  0  0
 41109  1  0  0  0
 41 48  1  0  0  0
 42 43  1  0  0  0
 42 66  1  0  0  0
 42110  1  0  0  0
 42111  1  0  0  0
 43 44  1  0  0  0
 44112  1  0  0  0
 45 46  2  0  0  0
 45113  1  0  0  0
 46114  1  0  0  0
 47115  1  0  0  0
 47116  1  0  0  0
 48 56  1  0  0  0
 48 65  1  0  0  0
 48117  1  0  0  0
 49 50  1  0  0  0
 49 53  1  0  0  0
 49 64  1  0  0  0
 49118  1  0  0  0
 50 51  1  0  0  0
 50119  1  0  0  0
 50120  1  0  0  0
 51 52  1  0  0  0
 51121  1  0  0  0
 51122  1  0  0  0
 52123  1  0  0  0
 52124  1  0  0  0
 53 54  1  0  0  0
 54 55  2  0  0  0
 54125  1  0  0  0
 55 57  1  0  0  0
 55126  1  0  0  0
 56 69  2  0  0  0
 57 58  2  0  0  0
 57127  1  0  0  0
 58128  1  0  0  0
 59 60  1  0  0  0
 59 61  1  0  0  0
 59 62  1  0  0  0
 60129  1  0  0  0
 60130  1  0  0  0
 60131  1  0  0  0
 61132  1  0  0  0
 61133  1  0  0  0
 61134  1  0  0  0
 62135  1  0  0  0
 62136  1  0  0  0
 62137  1  0  0  0
 63 65  1  0  0  0
 63138  1  0  0  0
 63139  1  0  0  0
 63140  1  0  0  0
 64141  1  0  0  0
 65142  1  0  0  0
 68 80  1  0  0  0
 71 72  2  0  0  0
 71 74  1  0  0  0
 71 81  1  0  0  0
 72 75  1  0  0  0
 72 82  1  0  0  0
 73 76  1  0  0  0
 73 81  2  0  0  0
 73 82  1  0  0  0
 74143  1  0  0  0
 74144  1  0  0  0
 74145  1  0  0  0
 75146  1  0  0  0
 75147  1  0  0  0
 75148  1  0  0  0
 76 77  1  0  0  0
 76149  1  0  0  0
 76150  1  0  0  0
 77 79  1  0  0  0
 77151  1  0  0  0
 77152  1  0  0  0
 78 80  1  0  0  0
 78 82  1  0  0  0
 78153  1  0  0  0
 78154  1  0  0  0
 79 83  1  0  0  0
 79155  1  0  0  0
 79156  1  0  0  0
 80157  1  0  0  0
 80158  1  0  0  0
 83159  1  0  0  0
M  ISO  4   1 100  68 101  80 101  83 100
M  END
> <chiral flag>
0

> <version>
0

> <s_m_source_file>
/data/baiqing/PycharmProjects/Reinvent-master-3.2/result/LINK_invent/BTK/process_docking_weight1_custom_sum_contain_oxygen_bond_distance_aromatic_linkinvent_7_9_3/rearranged_h_0075.sdf

> <i_m_source_file_index>
2

> <r_mmod_Potential_Energy-OPLS-2005>
154.655746459961

> <r_mmod_Stretch_Energy-OPLS-2005>
138.937103271484

> <r_mmod_Bend_Energy-OPLS-2005>
201.386978149414

> <r_mmod_Torsional_Energy-OPLS-2005>
245.658782958984

> <r_mmod_Improper_Torsional_Energy-OPLS-2005>
5.08900451660156

> <r_mmod_Van_der_Waal_Energy-OPLS-2005>
121.034866333008

> <r_mmod_Electrostatic_Energy-OPLS-2005>
-420.091522216797

> <r_mmod_Solvation_Energy-OPLS-2005>
-221.792495727539

> <b_mmod_Minimization_Converged-OPLS-2005>
0

> <r_mmod_RMS_Derivative-OPLS-2005>
5.31577825546265

$$$$
2
                    3D
 Structure written by MMmdl.
170178  0  0  1  0            999 V2000
  -30.6379  -14.6053   20.4737 C   0  0  0  0  0  0
  -30.4113  -12.3667   19.4487 C   0  0  0  0  0  0
  -29.4948  -12.5611   18.2168 C   0  0  0  0  0  0
  -28.0286  -12.3203   18.6324 C   0  0  0  0  0  0
  -27.6501  -13.1821   19.8694 C   0  0  2  0  0  0
  -28.7006  -13.0168   20.9955 C   0  0  0  0  0  0
  -25.2661  -13.8098   20.5695 C   0  0  0  0  0  0
  -24.1873  -13.0410   20.9201 C   0  0  0  0  0  0
  -24.6394  -11.6870   20.8785 C   0  0  0  0  0  0
  -23.9082  -10.4275   21.0513 C   0  0  0  0  0  0
  -24.3679   -9.4193   21.9258 C   0  0  0  0  0  0
  -23.6354   -8.2235   22.0810 C   0  0  0  0  0  0
  -22.4331   -8.0295   21.3601 C   0  0  0  0  0  0
  -21.9960   -9.0271   20.4727 C   0  0  0  0  0  0
  -22.7301  -10.2136   20.3146 C   0  0  0  0  0  0
  -21.6880   -6.0786   22.5272 C   0  0  0  0  0  0
  -21.4001   -6.5694   23.8179 C   0  0  0  0  0  0
  -21.3657   -5.6855   24.9156 C   0  0  0  0  0  0
  -21.6038   -4.3109   24.7200 C   0  0  0  0  0  0
  -21.8853   -3.8200   23.4331 C   0  0  0  0  0  0
  -21.9234   -4.7019   22.3398 C   0  0  0  0  0  0
  -22.7939  -13.5304   21.1809 C   0  0  0  0  0  0
  -22.1698   -4.2225   21.0975 F   0  0  0  0  0  0
  -21.5646   -3.4591   25.7718 F   0  0  0  0  0  0
  -30.0096  -13.3839   20.4449 N   0  0  0  0  0  0
  -26.2983  -12.9162   20.3329 N   0  0  0  0  0  0
  -25.9285  -11.6363   20.5743 N   0  0  0  0  0  0
  -22.0506  -12.8393   22.0401 N   0  0  0  0  0  0
  -25.4538  -15.1790   20.4199 N   0  0  0  0  0  0
  -31.8150  -14.6709   20.1082 O   0  0  0  0  0  0
  -21.6691   -6.8910   21.4229 O   0  0  0  0  0  0
  -22.3680  -14.5583   20.6593 O   0  0  0  0  0  0
  -24.6093  -31.8723   23.2140 C   0  0  0  0  0  0
  -25.9012  -32.4836   23.8417 C   0  0  1  0  0  0
  -27.2460  -27.4787   20.0925 C   0  0  0  0  0  0
  -25.5882  -33.8632   24.2332 N   0  0  0  0  0  0
  -23.3933  -30.4951   21.5529 C   0  0  2  0  0  0
  -24.8435  -28.9715   20.1114 C   0  0  0  0  0  0
  -22.7391  -29.4651   22.5005 C   0  0  0  0  0  0
  -18.0273  -28.1358   22.8519 C   0  0  0  0  0  0
  -24.1484  -36.7315   23.2634 C   0  0  0  0  0  0
  -25.9177  -30.8535   21.3602 C   0  0  0  0  0  0
  -25.9984  -29.4925   20.7048 C   0  0  0  0  0  0
  -27.1999  -28.7549   20.6898 C   0  0  0  0  0  0
  -26.0714  -26.9647   19.4904 C   0  0  0  0  0  0
  -24.8740  -27.7058   19.4995 C   0  0  0  0  0  0
  -23.6001  -29.8295   20.1653 C   0  0  0  0  0  0
  -25.4106  -36.3114   24.0333 C   0  0  1  0  0  0
  -20.5863  -28.3622   23.1356 C   0  0  2  0  0  0
  -20.6747  -26.9358   22.5433 C   0  0  0  0  0  0
  -19.5722  -26.6370   21.5227 C   0  0  0  0  0  0
  -18.1906  -26.7908   22.1636 C   0  0  0  0  0  0
  -19.1520  -28.8813   23.2936 C   0  0  0  0  0  0
  -18.9434  -30.1426   23.8935 C   0  0  0  0  0  0
  -17.6432  -30.6568   24.0560 C   0  0  0  0  0  0
  -25.9043  -34.9482   23.5126 C   0  0  0  0  0  0
  -16.5333  -29.9066   23.6316 C   0  0  0  0  0  0
  -16.7259  -28.6476   23.0360 C   0  0  0  0  0  0
  -26.4460  -31.6619   25.0730 C   0  0  0  0  0  0
  -25.3755  -31.3725   26.1499 C   0  0  0  0  0  0
  -27.0258  -30.3057   24.6078 C   0  0  0  0  0  0
  -27.6041  -32.4341   25.7480 C   0  0  0  0  0  0
  -27.5584  -37.1802   24.8459 C   0  0  0  0  0  0
  -21.4124  -29.3002   22.3775 N   0  0  0  0  0  0
  -26.4290  -37.3795   23.9417 N   0  0  0  0  0  0
  -24.6571  -31.0876   22.1006 N   0  0  0  0  0  0
  -23.4201  -28.8204   23.3018 O   0  0  0  0  0  0
  -28.4482  -26.8048   20.0933 O   0  0  0  0  0  0
  -26.5596  -34.8920   22.4684 O   0  0  0  0  0  0
  -23.5301  -32.1437   23.7568 O   0  0  0  0  0  0
  -31.0188  -20.4844   19.3379 C   0  0  0  0  0  0
  -31.2254  -19.7140   20.4612 C   0  0  0  0  0  0
  -32.8886  -21.2009   20.2883 C   0  0  0  0  0  0
  -34.1511  -21.9451   20.5913 C   0  0  0  0  0  0
  -28.9997  -16.3647   19.4718 C   0  0  0  0  0  0
  -29.0823  -16.0625   22.0166 C   0  0  0  0  0  0
  -30.4180  -18.6063   21.0883 C   0  0  0  0  0  0
  -30.9595  -17.1740   20.7872 C   0  0  0  0  0  0
  -30.4773  -24.1347   19.1573 C   0  0  0  0  0  0
  -30.9849  -23.3093   17.9560 C   0  0  0  0  0  0
  -29.1097  -24.7997   18.8816 C   0  0  0  0  0  0
  -32.2368  -22.4425   18.2294 C   0  0  0  0  0  0
  -28.4375  -25.3786   20.1393 C   0  0  0  0  0  0
  -29.8984  -16.0070   20.6976 C   0  0  0  0  0  0
  -32.0365  -21.4097   19.2721 N   0  0  0  0  0  0
  -32.3990  -20.1780   21.0009 N   0  3  0  0  0  0
  -31.4627  -12.4381   19.1715 H   0  0  0  0  0  0
  -30.2842  -11.3601   19.8512 H   0  0  0  0  0  0
  -29.7681  -11.9078   17.3904 H   0  0  0  0  0  0
  -29.6148  -13.5805   17.8439 H   0  0  0  0  0  0
  -27.9252  -11.2574   18.8691 H   0  0  0  0  0  0
  -27.3513  -12.5045   17.7971 H   0  0  0  0  0  0
  -27.6565  -14.2118   19.5364 H   0  0  0  0  0  0
  -28.7262  -11.9778   21.3225 H   0  0  0  0  0  0
  -28.4503  -13.5486   21.9053 H   0  0  0  0  0  0
  -25.2821   -9.5684   22.4817 H   0  0  0  0  0  0
  -24.0071   -7.4654   22.7581 H   0  0  0  0  0  0
  -21.0843   -8.8852   19.9089 H   0  0  0  0  0  0
  -22.3779  -10.9694   19.6261 H   0  0  0  0  0  0
  -21.1903   -7.6178   23.9706 H   0  0  0  0  0  0
  -21.1469   -6.0560   25.9065 H   0  0  0  0  0  0
  -22.0643   -2.7675   23.2788 H   0  0  0  0  0  0
  -22.3996  -11.9983   22.4721 H   0  0  0  0  0  0
  -21.1208  -13.1619   22.2676 H   0  0  0  0  0  0
  -24.7200  -15.8460   20.6289 H   0  0  0  0  0  0
  -26.3253  -15.6302   20.1613 H   0  0  0  0  0  0
  -26.7084  -32.5573   23.1195 H   0  0  0  0  0  0
  -25.0046  -33.9817   25.0479 H   0  0  0  0  0  0
  -22.6770  -31.3090   21.4185 H   0  0  0  0  0  0
  -23.3748  -35.9647   23.3299 H   0  0  0  0  0  0
  -24.3575  -36.8931   22.2051 H   0  0  0  0  0  0
  -23.7247  -37.6514   23.6658 H   0  0  0  0  0  0
  -26.0326  -31.6297   20.6017 H   0  0  0  0  0  0
  -26.8042  -30.9006   21.9812 H   0  0  0  0  0  0
  -28.0919  -29.1655   21.1417 H   0  0  0  0  0  0
  -26.0722  -26.0065   18.9907 H   0  0  0  0  0  0
  -23.9894  -27.3038   19.0240 H   0  0  0  0  0  0
  -23.6950  -30.6066   19.4060 H   0  0  0  0  0  0
  -22.7271  -29.2428   19.8734 H   0  0  0  0  0  0
  -25.1288  -36.1960   25.0823 H   0  0  0  0  0  0
  -20.9958  -28.3163   24.1475 H   0  0  0  0  0  0
  -20.5655  -26.2217   23.3610 H   0  0  0  0  0  0
  -21.6618  -26.7405   22.1222 H   0  0  0  0  0  0
  -19.6872  -25.6295   21.1232 H   0  0  0  0  0  0
  -19.6668  -27.3212   20.6788 H   0  0  0  0  0  0
  -17.4185  -26.6702   21.4025 H   0  0  0  0  0  0
  -18.0270  -26.0034   22.9012 H   0  0  0  0  0  0
  -19.7907  -30.7236   24.2322 H   0  0  0  0  0  0
  -17.4980  -31.6259   24.5141 H   0  0  0  0  0  0
  -15.5330  -30.2971   23.7602 H   0  0  0  0  0  0
  -15.8663  -28.0790   22.7060 H   0  0  0  0  0  0
  -24.5897  -30.7098   25.7852 H   0  0  0  0  0  0
  -24.8993  -32.2890   26.4994 H   0  0  0  0  0  0
  -25.8134  -30.8862   27.0229 H   0  0  0  0  0  0
  -26.2768  -29.6849   24.1141 H   0  0  0  0  0  0
  -27.4031  -29.7256   25.4516 H   0  0  0  0  0  0
  -27.8618  -30.4355   23.9196 H   0  0  0  0  0  0
  -27.2650  -33.3629   26.2080 H   0  0  0  0  0  0
  -28.3835  -32.6933   25.0305 H   0  0  0  0  0  0
  -28.0729  -31.8470   26.5385 H   0  0  0  0  0  0
  -28.2589  -38.0109   24.7521 H   0  0  0  0  0  0
  -28.1088  -36.2646   24.6258 H   0  0  0  0  0  0
  -27.2309  -37.1422   25.8858 H   0  0  0  0  0  0
  -20.9260  -29.8733   21.7026 H   0  0  0  0  0  0
  -26.0174  -38.2860   24.1436 H   0  0  0  0  0  0
  -30.2264  -20.4451   18.6037 H   0  0  0  0  0  0
  -34.8265  -21.8397   19.7412 H   0  0  0  0  0  0
  -34.6097  -21.5235   21.4856 H   0  0  0  0  0  0
  -33.9060  -22.9954   20.7560 H   0  0  0  0  0  0
  -29.0590  -15.6310   18.6697 H   0  0  0  0  0  0
  -29.2714  -17.3090   18.9992 H   0  0  0  0  0  0
  -27.9493  -16.4685   19.7487 H   0  0  0  0  0  0
  -28.7318  -17.0627   22.2603 H   0  0  0  0  0  0
  -29.6844  -15.7318   22.8622 H   0  0  0  0  0  0
  -28.1476  -15.5160   21.9679 H   0  0  0  0  0  0
  -29.3825  -18.7246   20.7728 H   0  0  0  0  0  0
  -30.3926  -18.7654   22.1684 H   0  0  0  0  0  0
  -31.4942  -17.2246   19.8388 H   0  0  0  0  0  0
  -31.7207  -16.9331   21.5295 H   0  0  0  0  0  0
  -31.2113  -24.9001   19.4158 H   0  0  0  0  0  0
  -30.3968  -23.4872   20.0314 H   0  0  0  0  0  0
  -31.1950  -23.9879   17.1258 H   0  0  0  0  0  0
  -30.1854  -22.6531   17.6108 H   0  0  0  0  0  0
  -28.4371  -24.0622   18.4450 H   0  0  0  0  0  0
  -29.2178  -25.5783   18.1240 H   0  0  0  0  0  0
  -33.0860  -23.0782   18.4921 H   0  0  0  0  0  0
  -32.5255  -21.9142   17.3211 H   0  0  0  0  0  0
  -28.9809  -25.0820   21.0377 H   0  0  0  0  0  0
  -27.4460  -24.9475   20.2766 H   0  0  0  0  0  0
  -32.8341  -19.8049   21.8352 H   0  0  0  0  0  0
  1 25  1  0  0  0
  1 30  2  0  0  0
  1 84  1  0  0  0
  2  3  1  0  0  0
  2 25  1  0  0  0
  2 87  1  0  0  0
  2 88  1  0  0  0
  3  4  1  0  0  0
  3 89  1  0  0  0
  3 90  1  0  0  0
  4  5  1  0  0  0
  4 91  1  0  0  0
  4 92  1  0  0  0
  5  6  1  0  0  0
  5 26  1  0  0  0
  5 93  1  0  0  0
  6 25  1  0  0  0
  6 94  1  0  0  0
  6 95  1  0  0  0
  7  8  2  0  0  0
  7 26  1  0  0  0
  7 29  1  0  0  0
  8  9  1  0  0  0
  8 22  1  0  0  0
  9 10  1  0  0  0
  9 27  2  0  0  0
 10 11  2  0  0  0
 10 15  1  0  0  0
 11 12  1  0  0  0
 11 96  1  0  0  0
 12 13  2  0  0  0
 12 97  1  0  0  0
 13 14  1  0  0  0
 13 31  1  0  0  0
 14 15  2  0  0  0
 14 98  1  0  0  0
 15 99  1  0  0  0
 16 17  2  0  0  0
 16 21  1  0  0  0
 16 31  1  0  0  0
 17 18  1  0  0  0
 17100  1  0  0  0
 18 19  2  0  0  0
 18101  1  0  0  0
 19 20  1  0  0  0
 19 24  1  0  0  0
 20 21  2  0  0  0
 20102  1  0  0  0
 21 23  1  0  0  0
 22 28  1  0  0  0
 22 32  2  0  0  0
 26 27  1  0  0  0
 28103  1  0  0  0
 28104  1  0  0  0
 29105  1  0  0  0
 29106  1  0  0  0
 33 34  1  0  0  0
 33 66  1  0  0  0
 33 70  2  0  0  0
 34 36  1  0  0  0
 34 59  1  0  0  0
 34107  1  0  0  0
 35 44  2  0  0  0
 35 45  1  0  0  0
 35 68  1  0  0  0
 36 56  1  0  0  0
 36108  1  0  0  0
 37 39  1  0  0  0
 37 47  1  0  0  0
 37 66  1  0  0  0
 37109  1  0  0  0
 38 43  2  0  0  0
 38 46  1  0  0  0
 38 47  1  0  0  0
 39 64  1  0  0  0
 39 67  2  0  0  0
 40 52  1  0  0  0
 40 53  2  0  0  0
 40 58  1  0  0  0
 41110  1  0  0  0
 41111  1  0  0  0
 41112  1  0  0  0
 41 48  1  0  0  0
 42 43  1  0  0  0
 42 66  1  0  0  0
 42113  1  0  0  0
 42114  1  0  0  0
 43 44  1  0  0  0
 44115  1  0  0  0
 45 46  2  0  0  0
 45116  1  0  0  0
 46117  1  0  0  0
 47118  1  0  0  0
 47119  1  0  0  0
 48 56  1  0  0  0
 48 65  1  0  0  0
 48120  1  0  0  0
 49 50  1  0  0  0
 49 53  1  0  0  0
 49 64  1  0  0  0
 49121  1  0  0  0
 50 51  1  0  0  0
 50122  1  0  0  0
 50123  1  0  0  0
 51 52  1  0  0  0
 51124  1  0  0  0
 51125  1  0  0  0
 52126  1  0  0  0
 52127  1  0  0  0
 53 54  1  0  0  0
 54 55  2  0  0  0
 54128  1  0  0  0
 55 57  1  0  0  0
 55129  1  0  0  0
 56 69  2  0  0  0
 57 58  2  0  0  0
 57130  1  0  0  0
 58131  1  0  0  0
 59 60  1  0  0  0
 59 61  1  0  0  0
 59 62  1  0  0  0
 60132  1  0  0  0
 60133  1  0  0  0
 60134  1  0  0  0
 61135  1  0  0  0
 61136  1  0  0  0
 61137  1  0  0  0
 62138  1  0  0  0
 62139  1  0  0  0
 62140  1  0  0  0
 63 65  1  0  0  0
 63141  1  0  0  0
 63142  1  0  0  0
 63143  1  0  0  0
 64144  1  0  0  0
 65145  1  0  0  0
 68 83  1  0  0  0
 71 72  2  0  0  0
 71 85  1  0  0  0
 71146  1  0  0  0
 72 77  1  0  0  0
 72 86  1  0  0  0
 73 74  1  0  0  0
 73 85  1  0  0  0
 73 86  2  0  0  0
 74147  1  0  0  0
 74148  1  0  0  0
 74149  1  0  0  0
 75150  1  0  0  0
 75151  1  0  0  0
 75152  1  0  0  0
 75 84  1  0  0  0
 76 84  1  0  0  0
 76153  1  0  0  0
 76154  1  0  0  0
 76155  1  0  0  0
 77 78  1  0  0  0
 77156  1  0  0  0
 77157  1  0  0  0
 78 84  1  0  0  0
 78158  1  0  0  0
 78159  1  0  0  0
 79 80  1  0  0  0
 79 81  1  0  0  0
 79160  1  0  0  0
 79161  1  0  0  0
 80 82  1  0  0  0
 80162  1  0  0  0
 80163  1  0  0  0
 81 83  1  0  0  0
 81164  1  0  0  0
 81165  1  0  0  0
 82 85  1  0  0  0
 82166  1  0  0  0
 82167  1  0  0  0
 83168  1  0  0  0
 83169  1  0  0  0
 86170  1  0  0  0
M  CHG  1  86   1
M  ISO  4   1 100  68 101  83 101  84 100
M  END
> <chiral flag>
0

> <version>
0

> <s_m_source_file>
/data/baiqing/PycharmProjects/Reinvent-master-3.2/result/LINK_invent/BTK/process_docking_weight1_custom_sum_contain_oxygen_bond_distance_aromatic_linkinvent_7_9_3/rearranged_h_0075.sdf

> <i_m_source_file_index>
3

> <r_mmod_Potential_Energy-OPLS-2005>
51.024585723877

> <r_mmod_Stretch_Energy-OPLS-2005>
47.8056640625

> <r_mmod_Bend_Energy-OPLS-2005>
126.190147399902

> <r_mmod_Torsional_Energy-OPLS-2005>
245.266632080078

> <r_mmod_Improper_Torsional_Energy-OPLS-2005>
5.57354784011841

> <r_mmod_Van_der_Waal_Energy-OPLS-2005>
147.905303955078

> <r_mmod_Electrostatic_Energy-OPLS-2005>
-160.443176269531

> <r_mmod_Solvation_Energy-OPLS-2005>
-387.123046875

> <b_mmod_Minimization_Converged-OPLS-2005>
0

> <r_mmod_RMS_Derivative-OPLS-2005>
6.89766931533813

$$$$
3
                    3D
 Structure written by MMmdl.
160168  0  0  1  0            999 V2000
  -30.6859  -14.5132   20.5315 C   0  0  0  0  0  0
  -30.4277  -12.3208   19.4282 C   0  0  0  0  0  0
  -29.4983  -12.4975   18.2087 C   0  0  0  0  0  0
  -28.0203  -12.3432   18.6210 C   0  0  0  0  0  0
  -27.6580  -13.1918   19.8672 C   0  0  2  0  0  0
  -28.7048  -13.0148   20.9923 C   0  0  0  0  0  0
  -25.2585  -13.8105   20.5675 C   0  0  0  0  0  0
  -24.1835  -13.0405   20.9196 C   0  0  0  0  0  0
  -24.6375  -11.6872   20.8744 C   0  0  0  0  0  0
  -23.9036  -10.4275   21.0411 C   0  0  0  0  0  0
  -24.3592   -9.4196   21.9187 C   0  0  0  0  0  0
  -23.6280   -8.2227   22.0749 C   0  0  0  0  0  0
  -22.4256   -8.0267   21.3543 C   0  0  0  0  0  0
  -21.9891   -9.0240   20.4642 C   0  0  0  0  0  0
  -22.7212  -10.2124   20.3059 C   0  0  0  0  0  0
  -21.6848   -6.0733   22.5282 C   0  0  0  0  0  0
  -21.4010   -6.5640   23.8212 C   0  0  0  0  0  0
  -21.3662   -5.6792   24.9176 C   0  0  0  0  0  0
  -21.6045   -4.3053   24.7226 C   0  0  0  0  0  0
  -21.8824   -3.8147   23.4348 C   0  0  0  0  0  0
  -21.9190   -4.6965   22.3403 C   0  0  0  0  0  0
  -22.7865  -13.5225   21.1862 C   0  0  0  0  0  0
  -22.1661   -4.2152   21.0977 F   0  0  0  0  0  0
  -21.5630   -3.4534   25.7735 F   0  0  0  0  0  0
  -30.0326  -13.3209   20.4320 N   0  0  0  0  0  0
  -26.3000  -12.9252   20.3333 N   0  0  0  0  0  0
  -25.9293  -11.6427   20.5764 N   0  0  0  0  0  0
  -22.0491  -12.8231   22.0417 N   0  0  0  0  0  0
  -25.4286  -15.1816   20.4073 N   0  0  0  0  0  0
  -31.8311  -14.6863   20.1090 O   0  0  0  0  0  0
  -21.6627   -6.8862   21.4238 O   0  0  0  0  0  0
  -22.3560  -14.5538   20.6713 O   0  0  0  0  0  0
  -24.6158  -31.8674   23.2093 C   0  0  0  0  0  0
  -25.9045  -32.4820   23.8392 C   0  0  1  0  0  0
  -27.2401  -27.4226   20.0831 C   0  0  0  0  0  0
  -25.5893  -33.8618   24.2314 N   0  0  0  0  0  0
  -23.4036  -30.4915   21.5500 C   0  0  2  0  0  0
  -24.8498  -28.9567   20.1134 C   0  0  0  0  0  0
  -22.7413  -29.4659   22.4983 C   0  0  0  0  0  0
  -18.0273  -28.1377   22.8491 C   0  0  0  0  0  0
  -24.1485  -36.7318   23.2638 C   0  0  0  0  0  0
  -25.9347  -30.8267   21.3660 C   0  0  0  0  0  0
  -26.0108  -29.4604   20.7112 C   0  0  0  0  0  0
  -27.2044  -28.6999   20.6953 C   0  0  0  0  0  0
  -26.0545  -26.9396   19.4784 C   0  0  0  0  0  0
  -24.8669  -27.6950   19.4967 C   0  0  0  0  0  0
  -23.6123  -29.8244   20.1647 C   0  0  0  0  0  0
  -25.4108  -36.3112   24.0333 C   0  0  1  0  0  0
  -20.5861  -28.3665   23.1314 C   0  0  2  0  0  0
  -20.6758  -26.9400   22.5416 C   0  0  0  0  0  0
  -19.5738  -26.6383   21.5209 C   0  0  0  0  0  0
  -18.1919  -26.7922   22.1624 C   0  0  0  0  0  0
  -19.1520  -28.8836   23.2901 C   0  0  0  0  0  0
  -18.9452  -30.1442   23.8912 C   0  0  0  0  0  0
  -17.6454  -30.6585   24.0564 C   0  0  0  0  0  0
  -25.9035  -34.9475   23.5124 C   0  0  0  0  0  0
  -16.5344  -29.9088   23.6326 C   0  0  0  0  0  0
  -16.7260  -28.6503   23.0347 C   0  0  0  0  0  0
  -26.4465  -31.6605   25.0728 C   0  0  0  0  0  0
  -25.3722  -31.3723   26.1470 C   0  0  0  0  0  0
  -27.0293  -30.3044   24.6116 C   0  0  0  0  0  0
  -27.6042  -32.4323   25.7487 C   0  0  0  0  0  0
  -27.5580  -37.1814   24.8464 C   0  0  0  0  0  0
  -21.4138  -29.3034   22.3717 N   0  0  0  0  0  0
  -26.4296  -37.3795   23.9404 N   0  0  0  0  0  0
  -24.6694  -31.0766   22.1001 N   0  0  0  0  0  0
  -23.4184  -28.8201   23.3025 O   0  0  0  0  0  0
  -28.4219  -26.6967   20.1050 O   0  0  0  0  0  0
  -26.5604  -34.8927   22.4689 O   0  0  0  0  0  0
  -23.5345  -32.1427   23.7485 O   0  0  0  0  0  0
  -31.0994  -21.1551   19.5250 C   0  0  0  0  0  0
  -28.5895  -20.2093   19.7281 C   0  0  0  0  0  0
  -29.9826  -22.0237   19.4126 C   0  0  0  0  0  0
  -29.7001  -19.3130   19.7538 C   0  0  0  0  0  0
  -30.1521  -17.2783   18.3408 C   0  0  0  0  0  0
  -28.0486  -17.3759   19.6404 C   0  0  0  0  0  0
  -30.1428  -23.4678   18.9211 C   0  0  0  0  0  0
  -29.7619  -24.6262   19.8866 C   0  0  0  0  0  0
  -30.2367  -17.0036   20.8667 C   0  0  0  0  0  0
  -28.4447  -25.3691   19.5453 C   0  0  0  0  0  0
  -29.5440  -17.7616   19.6765 C   0  0  0  0  0  0
  -28.7224  -21.5496   19.5488 N   0  0  0  0  0  0
  -30.9642  -19.8125   19.6944 N   0  0  0  0  0  0
  -29.9292  -15.5510   20.9410 N   0  0  0  0  0  0
  -31.4717  -12.4220   19.1267 H   0  0  0  0  0  0
  -30.3327  -11.3156   19.8420 H   0  0  0  0  0  0
  -29.7467  -11.7668   17.4378 H   0  0  0  0  0  0
  -29.6569  -13.4801   17.7601 H   0  0  0  0  0  0
  -27.8430  -11.2871   18.8273 H   0  0  0  0  0  0
  -27.3675  -12.6004   17.7859 H   0  0  0  0  0  0
  -27.6876  -14.2240   19.5389 H   0  0  0  0  0  0
  -28.6904  -11.9904   21.3664 H   0  0  0  0  0  0
  -28.4646  -13.6440   21.8513 H   0  0  0  0  0  0
  -25.2736   -9.5680   22.4757 H   0  0  0  0  0  0
  -24.0003   -7.4612   22.7458 H   0  0  0  0  0  0
  -21.0828   -8.8749   19.8944 H   0  0  0  0  0  0
  -22.3666  -10.9663   19.6167 H   0  0  0  0  0  0
  -21.2001   -7.6142   23.9723 H   0  0  0  0  0  0
  -21.1480   -6.0513   25.9080 H   0  0  0  0  0  0
  -22.0601   -2.7608   23.2839 H   0  0  0  0  0  0
  -22.4086  -11.9891   22.4814 H   0  0  0  0  0  0
  -21.1110  -13.1274   22.2614 H   0  0  0  0  0  0
  -24.6557  -15.8300   20.5075 H   0  0  0  0  0  0
  -26.2717  -15.6222   20.0674 H   0  0  0  0  0  0
  -26.7116  -32.5523   23.1153 H   0  0  0  0  0  0
  -25.0034  -33.9776   25.0451 H   0  0  0  0  0  0
  -22.6924  -31.3086   21.4108 H   0  0  0  0  0  0
  -23.3743  -35.9657   23.3312 H   0  0  0  0  0  0
  -24.3582  -36.8923   22.2052 H   0  0  0  0  0  0
  -23.7242  -37.6527   23.6647 H   0  0  0  0  0  0
  -26.0495  -31.5935   20.5987 H   0  0  0  0  0  0
  -26.8224  -30.8793   21.9847 H   0  0  0  0  0  0
  -28.1003  -29.0885   21.1587 H   0  0  0  0  0  0
  -26.0198  -25.9806   18.9834 H   0  0  0  0  0  0
  -23.9747  -27.3007   19.0299 H   0  0  0  0  0  0
  -23.7200  -30.5993   19.4049 H   0  0  0  0  0  0
  -22.7359  -29.2447   19.8695 H   0  0  0  0  0  0
  -25.1285  -36.1978   25.0829 H   0  0  0  0  0  0
  -20.9956  -28.3231   24.1431 H   0  0  0  0  0  0
  -20.5654  -26.2275   23.3604 H   0  0  0  0  0  0
  -21.6630  -26.7438   22.1209 H   0  0  0  0  0  0
  -19.6902  -25.6296   21.1230 H   0  0  0  0  0  0
  -19.6679  -27.3199   20.6744 H   0  0  0  0  0  0
  -17.4186  -26.6663   21.4031 H   0  0  0  0  0  0
  -18.0333  -26.0062   22.9022 H   0  0  0  0  0  0
  -19.7930  -30.7248   24.2290 H   0  0  0  0  0  0
  -17.5015  -31.6268   24.5161 H   0  0  0  0  0  0
  -15.5348  -30.3000   23.7638 H   0  0  0  0  0  0
  -15.8659  -28.0830   22.7056 H   0  0  0  0  0  0
  -24.5891  -30.7074   25.7804 H   0  0  0  0  0  0
  -24.8918  -32.2888   26.4911 H   0  0  0  0  0  0
  -25.8068  -30.8893   27.0229 H   0  0  0  0  0  0
  -26.2844  -29.6814   24.1150 H   0  0  0  0  0  0
  -27.4031  -29.7274   25.4583 H   0  0  0  0  0  0
  -27.8693  -30.4353   23.9290 H   0  0  0  0  0  0
  -27.2665  -33.3620   26.2076 H   0  0  0  0  0  0
  -28.3848  -32.6883   25.0312 H   0  0  0  0  0  0
  -28.0709  -31.8436   26.5391 H   0  0  0  0  0  0
  -28.2605  -38.0102   24.7505 H   0  0  0  0  0  0
  -28.1066  -36.2635   24.6299 H   0  0  0  0  0  0
  -27.2298  -37.1478   25.8866 H   0  0  0  0  0  0
  -20.9294  -29.8768   21.6948 H   0  0  0  0  0  0
  -26.0185  -38.2876   24.1398 H   0  0  0  0  0  0
  -32.1055  -21.5243   19.3934 H   0  0  0  0  0  0
  -27.5675  -19.8676   19.7750 H   0  0  0  0  0  0
  -29.6964  -17.7867   17.4908 H   0  0  0  0  0  0
  -30.0125  -16.2082   18.1908 H   0  0  0  0  0  0
  -31.2249  -17.4718   18.2971 H   0  0  0  0  0  0
  -27.5264  -17.8582   18.8130 H   0  0  0  0  0  0
  -27.5406  -17.6399   20.5688 H   0  0  0  0  0  0
  -27.9135  -16.3138   19.4816 H   0  0  0  0  0  0
  -29.6013  -23.5664   17.9799 H   0  0  0  0  0  0
  -31.1900  -23.5938   18.6435 H   0  0  0  0  0  0
  -30.5592  -25.3670   19.8133 H   0  0  0  0  0  0
  -29.7719  -24.2938   20.9251 H   0  0  0  0  0  0
  -31.3169  -17.1625   20.8364 H   0  0  0  0  0  0
  -29.9044  -17.4473   21.8060 H   0  0  0  0  0  0
  -27.6109  -24.7694   19.9120 H   0  0  0  0  0  0
  -28.3364  -25.4595   18.4630 H   0  0  0  0  0  0
  -29.0032  -15.3110   21.2590 H   0  0  0  0  0  0
  1 25  1  0  0  0
  1 30  2  0  0  0
  1 84  1  0  0  0
  2  3  1  0  0  0
  2 25  1  0  0  0
  2 85  1  0  0  0
  2 86  1  0  0  0
  3  4  1  0  0  0
  3 87  1  0  0  0
  3 88  1  0  0  0
  4  5  1  0  0  0
  4 89  1  0  0  0
  4 90  1  0  0  0
  5  6  1  0  0  0
  5 26  1  0  0  0
  5 91  1  0  0  0
  6 25  1  0  0  0
  6 92  1  0  0  0
  6 93  1  0  0  0
  7  8  2  0  0  0
  7 26  1  0  0  0
  7 29  1  0  0  0
  8  9  1  0  0  0
  8 22  1  0  0  0
  9 10  1  0  0  0
  9 27  2  0  0  0
 10 11  2  0  0  0
 10 15  1  0  0  0
 11 12  1  0  0  0
 11 94  1  0  0  0
 12 13  2  0  0  0
 12 95  1  0  0  0
 13 14  1  0  0  0
 13 31  1  0  0  0
 14 15  2  0  0  0
 14 96  1  0  0  0
 15 97  1  0  0  0
 16 17  2  0  0  0
 16 21  1  0  0  0
 16 31  1  0  0  0
 17 18  1  0  0  0
 17 98  1  0  0  0
 18 19  2  0  0  0
 18 99  1  0  0  0
 19 20  1  0  0  0
 19 24  1  0  0  0
 20 21  2  0  0  0
 20100  1  0  0  0
 21 23  1  0  0  0
 22 28  1  0  0  0
 22 32  2  0  0  0
 26 27  1  0  0  0
 28101  1  0  0  0
 28102  1  0  0  0
 29103  1  0  0  0
 29104  1  0  0  0
 33 34  1  0  0  0
 33 66  1  0  0  0
 33 70  2  0  0  0
 34 36  1  0  0  0
 34 59  1  0  0  0
 34105  1  0  0  0
 35 44  2  0  0  0
 35 45  1  0  0  0
 35 68  1  0  0  0
 36 56  1  0  0  0
 36106  1  0  0  0
 37 39  1  0  0  0
 37 47  1  0  0  0
 37 66  1  0  0  0
 37107  1  0  0  0
 38 43  2  0  0  0
 38 46  1  0  0  0
 38 47  1  0  0  0
 39 64  1  0  0  0
 39 67  2  0  0  0
 40 52  1  0  0  0
 40 53  2  0  0  0
 40 58  1  0  0  0
 41108  1  0  0  0
 41109  1  0  0  0
 41110  1  0  0  0
 41 48  1  0  0  0
 42 43  1  0  0  0
 42 66  1  0  0  0
 42111  1  0  0  0
 42112  1  0  0  0
 43 44  1  0  0  0
 44113  1  0  0  0
 45 46  2  0  0  0
 45114  1  0  0  0
 46115  1  0  0  0
 47116  1  0  0  0
 47117  1  0  0  0
 48 56  1  0  0  0
 48 65  1  0  0  0
 48118  1  0  0  0
 49 50  1  0  0  0
 49 53  1  0  0  0
 49 64  1  0  0  0
 49119  1  0  0  0
 50 51  1  0  0  0
 50120  1  0  0  0
 50121  1  0  0  0
 51 52  1  0  0  0
 51122  1  0  0  0
 51123  1  0  0  0
 52124  1  0  0  0
 52125  1  0  0  0
 53 54  1  0  0  0
 54 55  2  0  0  0
 54126  1  0  0  0
 55 57  1  0  0  0
 55127  1  0  0  0
 56 69  2  0  0  0
 57 58  2  0  0  0
 57128  1  0  0  0
 58129  1  0  0  0
 59 60  1  0  0  0
 59 61  1  0  0  0
 59 62  1  0  0  0
 60130  1  0  0  0
 60131  1  0  0  0
 60132  1  0  0  0
 61133  1  0  0  0
 61134  1  0  0  0
 61135  1  0  0  0
 62136  1  0  0  0
 62137  1  0  0  0
 62138  1  0  0  0
 63 65  1  0  0  0
 63139  1  0  0  0
 63140  1  0  0  0
 63141  1  0  0  0
 64142  1  0  0  0
 65143  1  0  0  0
 68 80  1  0  0  0
 71 73  2  0  0  0
 71 83  1  0  0  0
 71144  1  0  0  0
 72 74  1  0  0  0
 72 82  2  0  0  0
 72145  1  0  0  0
 73 77  1  0  0  0
 73 82  1  0  0  0
 74 81  1  0  0  0
 74 83  2  0  0  0
 75146  1  0  0  0
 75147  1  0  0  0
 75148  1  0  0  0
 75 81  1  0  0  0
 76 81  1  0  0  0
 76149  1  0  0  0
 76150  1  0  0  0
 76151  1  0  0  0
 77 78  1  0  0  0
 77152  1  0  0  0
 77153  1  0  0  0
 78 80  1  0  0  0
 78154  1  0  0  0
 78155  1  0  0  0
 79 81  1  0  0  0
 79 84  1  0  0  0
 79156  1  0  0  0
 79157  1  0  0  0
 80158  1  0  0  0
 80159  1  0  0  0
 84160  1  0  0  0
M  ISO  4   1 100  68 101  80 101  84 100
M  END
> <chiral flag>
0

> <version>
0

> <s_m_source_file>
/data/baiqing/PycharmProjects/Reinvent-master-3.2/result/LINK_invent/BTK/process_docking_weight1_custom_sum_contain_oxygen_bond_distance_aromatic_linkinvent_7_9_3/rearranged_h_0075.sdf

> <i_m_source_file_index>
4

> <r_mmod_Potential_Energy-OPLS-2005>
-27.9035186767578

> <r_mmod_Stretch_Energy-OPLS-2005>
47.8926010131836

> <r_mmod_Bend_Energy-OPLS-2005>
110.72509765625

> <r_mmod_Torsional_Energy-OPLS-2005>
202.864212036133

> <r_mmod_Improper_Torsional_Energy-OPLS-2005>
5.96910953521729

> <r_mmod_Van_der_Waal_Energy-OPLS-2005>
162.043579101562

> <r_mmod_Electrostatic_Energy-OPLS-2005>
-352.168579101562

> <r_mmod_Solvation_Energy-OPLS-2005>
-222.464965820312

> <b_mmod_Minimization_Converged-OPLS-2005>
0

> <r_mmod_RMS_Derivative-OPLS-2005>
1.34199965000153

$$$$
4
                    3D
 Structure written by MMmdl.
163171  0  0  1  0            999 V2000
  -30.7581  -14.4162   20.6385 C   0  0  0  0  0  0
  -30.4129  -12.2978   19.4115 C   0  0  0  0  0  0
  -29.4867  -12.5142   18.1996 C   0  0  0  0  0  0
  -28.0108  -12.3685   18.6127 C   0  0  0  0  0  0
  -27.6626  -13.2057   19.8705 C   0  0  2  0  0  0
  -28.6994  -12.9812   20.9919 C   0  0  0  0  0  0
  -25.2625  -13.8185   20.5682 C   0  0  0  0  0  0
  -24.1842  -13.0479   20.9161 C   0  0  0  0  0  0
  -24.6375  -11.6932   20.8723 C   0  0  0  0  0  0
  -23.9054  -10.4313   21.0410 C   0  0  0  0  0  0
  -24.3610   -9.4216   21.9187 C   0  0  0  0  0  0
  -23.6282   -8.2249   22.0759 C   0  0  0  0  0  0
  -22.4265   -8.0290   21.3560 C   0  0  0  0  0  0
  -21.9895   -9.0264   20.4670 C   0  0  0  0  0  0
  -22.7228  -10.2136   20.3069 C   0  0  0  0  0  0
  -21.6843   -6.0737   22.5275 C   0  0  0  0  0  0
  -21.4009   -6.5637   23.8215 C   0  0  0  0  0  0
  -21.3669   -5.6786   24.9171 C   0  0  0  0  0  0
  -21.6041   -4.3055   24.7216 C   0  0  0  0  0  0
  -21.8827   -3.8150   23.4343 C   0  0  0  0  0  0
  -21.9189   -4.6965   22.3397 C   0  0  0  0  0  0
  -22.7871  -13.5280   21.1829 C   0  0  0  0  0  0
  -22.1665   -4.2159   21.0973 F   0  0  0  0  0  0
  -21.5631   -3.4536   25.7727 F   0  0  0  0  0  0
  -30.0381  -13.2725   20.4495 N   0  0  0  0  0  0
  -26.3029  -12.9338   20.3336 N   0  0  0  0  0  0
  -25.9297  -11.6505   20.5732 N   0  0  0  0  0  0
  -22.0500  -12.8282   22.0382 N   0  0  0  0  0  0
  -25.4448  -15.1890   20.4144 N   0  0  0  0  0  0
  -31.8423  -14.6097   20.0730 O   0  0  0  0  0  0
  -21.6640   -6.8869   21.4244 O   0  0  0  0  0  0
  -22.3557  -14.5590   20.6676 O   0  0  0  0  0  0
  -24.6171  -31.8662   23.2110 C   0  0  0  0  0  0
  -25.9069  -32.4806   23.8395 C   0  0  1  0  0  0
  -27.2302  -27.4145   20.0786 C   0  0  0  0  0  0
  -25.5919  -33.8603   24.2306 N   0  0  0  0  0  0
  -23.4040  -30.4944   21.5515 C   0  0  2  0  0  0
  -24.8472  -28.9617   20.1158 C   0  0  0  0  0  0
  -22.7410  -29.4663   22.4968 C   0  0  0  0  0  0
  -18.0271  -28.1378   22.8487 C   0  0  0  0  0  0
  -24.1487  -36.7312   23.2633 C   0  0  0  0  0  0
  -25.9386  -30.8202   21.3724 C   0  0  0  0  0  0
  -26.0115  -29.4559   20.7158 C   0  0  0  0  0  0
  -27.2012  -28.6867   20.7016 C   0  0  0  0  0  0
  -26.0394  -26.9521   19.4618 C   0  0  0  0  0  0
  -24.8560  -27.7062   19.4924 C   0  0  0  0  0  0
  -23.6133  -29.8316   20.1656 C   0  0  0  0  0  0
  -25.4107  -36.3086   24.0323 C   0  0  1  0  0  0
  -20.5863  -28.3667   23.1303 C   0  0  2  0  0  0
  -20.6756  -26.9400   22.5411 C   0  0  0  0  0  0
  -19.5735  -26.6383   21.5203 C   0  0  0  0  0  0
  -18.1916  -26.7924   22.1622 C   0  0  0  0  0  0
  -19.1525  -28.8837   23.2893 C   0  0  0  0  0  0
  -18.9461  -30.1443   23.8905 C   0  0  0  0  0  0
  -17.6468  -30.6589   24.0565 C   0  0  0  0  0  0
  -25.9041  -34.9462   23.5105 C   0  0  0  0  0  0
  -16.5353  -29.9095   23.6332 C   0  0  0  0  0  0
  -16.7262  -28.6511   23.0349 C   0  0  0  0  0  0
  -26.4479  -31.6608   25.0745 C   0  0  0  0  0  0
  -25.3753  -31.3766   26.1511 C   0  0  0  0  0  0
  -27.0308  -30.3030   24.6180 C   0  0  0  0  0  0
  -27.6038  -32.4343   25.7513 C   0  0  0  0  0  0
  -27.5573  -37.1806   24.8458 C   0  0  0  0  0  0
  -21.4136  -29.3040   22.3708 N   0  0  0  0  0  0
  -26.4280  -37.3783   23.9409 N   0  0  0  0  0  0
  -24.6716  -31.0754   22.1025 N   0  0  0  0  0  0
  -23.4179  -28.8185   23.2997 O   0  0  0  0  0  0
  -28.4004  -26.6648   20.1004 O   0  0  0  0  0  0
  -26.5601  -34.8917   22.4665 O   0  0  0  0  0  0
  -23.5364  -32.1422   23.7501 O   0  0  0  0  0  0
  -30.6076  -18.8421   20.9043 C   0  0  0  0  0  0
  -29.6582  -19.1059   19.9037 C   0  0  0  0  0  0
  -28.8453  -18.0094   19.5390 C   0  0  0  0  0  0
  -29.9915  -16.6328   20.9710 C   0  0  0  0  0  0
  -26.4370  -18.6711   19.2227 C   0  0  0  0  0  0
  -30.4286  -15.1941   22.8924 C   0  0  0  0  0  0
  -29.5748  -20.4737   19.2105 C   0  0  0  0  0  0
  -27.6976  -18.1110   18.5501 C   0  0  0  0  0  0
  -29.7256  -21.7344   20.0971 C   0  0  0  0  0  0
  -29.3866  -23.0098   19.2894 C   0  0  0  0  0  0
  -29.4591  -24.3670   20.0414 C   0  0  0  0  0  0
  -28.3537  -25.3319   19.5553 C   0  0  0  0  0  0
  -30.7595  -17.6168   21.4408 N   0  0  0  0  0  0
  -29.0097  -16.7922   20.0908 N   0  0  0  0  0  0
  -30.2196  -15.3559   21.4505 N   0  0  0  0  0  0
  -31.4567  -12.3868   19.1052 H   0  0  0  0  0  0
  -30.3066  -11.2846   19.8012 H   0  0  0  0  0  0
  -29.7256  -11.7984   17.4113 H   0  0  0  0  0  0
  -29.6548  -13.5080   17.7811 H   0  0  0  0  0  0
  -27.8257  -11.3108   18.8077 H   0  0  0  0  0  0
  -27.3564  -12.6454   17.7853 H   0  0  0  0  0  0
  -27.7106  -14.2545   19.5760 H   0  0  0  0  0  0
  -28.6675  -11.9499   21.3455 H   0  0  0  0  0  0
  -28.4396  -13.5922   21.8553 H   0  0  0  0  0  0
  -25.2756   -9.5694   22.4760 H   0  0  0  0  0  0
  -24.0014   -7.4632   22.7467 H   0  0  0  0  0  0
  -21.0828   -8.8771   19.8962 H   0  0  0  0  0  0
  -22.3692  -10.9671   19.6171 H   0  0  0  0  0  0
  -21.2004   -7.6144   23.9713 H   0  0  0  0  0  0
  -21.1487   -6.0520   25.9074 H   0  0  0  0  0  0
  -22.0597   -2.7618   23.2829 H   0  0  0  0  0  0
  -22.4090  -11.9935   22.4781 H   0  0  0  0  0  0
  -21.1132  -13.1342   22.2598 H   0  0  0  0  0  0
  -24.6979  -15.8602   20.5491 H   0  0  0  0  0  0
  -26.3284  -15.6196   20.1639 H   0  0  0  0  0  0
  -26.7132  -32.5497   23.1147 H   0  0  0  0  0  0
  -25.0062  -33.9762   25.0446 H   0  0  0  0  0  0
  -22.6941  -31.3124   21.4126 H   0  0  0  0  0  0
  -23.3728  -35.9666   23.3298 H   0  0  0  0  0  0
  -24.3578  -36.8931   22.2048 H   0  0  0  0  0  0
  -23.7268  -37.6527   23.6655 H   0  0  0  0  0  0
  -26.0619  -31.5867   20.6061 H   0  0  0  0  0  0
  -26.8233  -30.8656   21.9961 H   0  0  0  0  0  0
  -28.0972  -29.0625   21.1759 H   0  0  0  0  0  0
  -25.9833  -26.0100   18.9393 H   0  0  0  0  0  0
  -23.9601  -27.3186   19.0271 H   0  0  0  0  0  0
  -23.7298  -30.6066   19.4071 H   0  0  0  0  0  0
  -22.7358  -29.2559   19.8646 H   0  0  0  0  0  0
  -25.1282  -36.1929   25.0815 H   0  0  0  0  0  0
  -20.9962  -28.3238   24.1420 H   0  0  0  0  0  0
  -20.5636  -26.2280   23.3601 H   0  0  0  0  0  0
  -21.6632  -26.7424   22.1218 H   0  0  0  0  0  0
  -19.6893  -25.6290   21.1235 H   0  0  0  0  0  0
  -19.6676  -27.3193   20.6731 H   0  0  0  0  0  0
  -17.4177  -26.6655   21.4032 H   0  0  0  0  0  0
  -18.0332  -26.0068   22.9026 H   0  0  0  0  0  0
  -19.7942  -30.7250   24.2277 H   0  0  0  0  0  0
  -17.5034  -31.6272   24.5160 H   0  0  0  0  0  0
  -15.5360  -30.3009   23.7656 H   0  0  0  0  0  0
  -15.8655  -28.0844   22.7062 H   0  0  0  0  0  0
  -24.5892  -30.7131   25.7887 H   0  0  0  0  0  0
  -24.8998  -32.2958   26.4946 H   0  0  0  0  0  0
  -25.8122  -30.8954   27.0274 H   0  0  0  0  0  0
  -26.2877  -29.6801   24.1192 H   0  0  0  0  0  0
  -27.3986  -29.7262   25.4675 H   0  0  0  0  0  0
  -27.8751  -30.4296   23.9400 H   0  0  0  0  0  0
  -27.2621  -33.3618   26.2116 H   0  0  0  0  0  0
  -28.3846  -32.6954   25.0359 H   0  0  0  0  0  0
  -28.0713  -31.8472   26.5425 H   0  0  0  0  0  0
  -28.2589  -38.0102   24.7495 H   0  0  0  0  0  0
  -28.1066  -36.2634   24.6281 H   0  0  0  0  0  0
  -27.2296  -37.1460   25.8863 H   0  0  0  0  0  0
  -20.9286  -29.8797   21.6968 H   0  0  0  0  0  0
  -26.0153  -38.2848   24.1438 H   0  0  0  0  0  0
  -31.2785  -19.6079   21.2625 H   0  0  0  0  0  0
  -25.6130  -18.7413   18.5136 H   0  0  0  0  0  0
  -26.6170  -19.6671   19.6285 H   0  0  0  0  0  0
  -26.1206  -18.0350   20.0499 H   0  0  0  0  0  0
  -31.4279  -15.5319   23.1709 H   0  0  0  0  0  0
  -30.3202  -14.1561   23.2081 H   0  0  0  0  0  0
  -29.7035  -15.7896   23.4477 H   0  0  0  0  0  0
  -28.6248  -20.5580   18.6851 H   0  0  0  0  0  0
  -30.3390  -20.4922   18.4310 H   0  0  0  0  0  0
  -27.4795  -17.1183   18.1539 H   0  0  0  0  0  0
  -27.9861  -18.7065   17.6842 H   0  0  0  0  0  0
  -30.7354  -21.8030   20.5052 H   0  0  0  0  0  0
  -29.0439  -21.6651   20.9455 H   0  0  0  0  0  0
  -28.3775  -22.8800   18.8962 H   0  0  0  0  0  0
  -30.0295  -23.0602   18.4097 H   0  0  0  0  0  0
  -30.4453  -24.8126   19.9048 H   0  0  0  0  0  0
  -29.3365  -24.2097   21.1130 H   0  0  0  0  0  0
  -27.4272  -24.8341   19.8403 H   0  0  0  0  0  0
  -28.3735  -25.4025   18.4658 H   0  0  0  0  0  0
  1 25  1  0  0  0
  1 30  2  0  0  0
  1 85  1  0  0  0
  2  3  1  0  0  0
  2 25  1  0  0  0
  2 86  1  0  0  0
  2 87  1  0  0  0
  3  4  1  0  0  0
  3 88  1  0  0  0
  3 89  1  0  0  0
  4  5  1  0  0  0
  4 90  1  0  0  0
  4 91  1  0  0  0
  5  6  1  0  0  0
  5 26  1  0  0  0
  5 92  1  0  0  0
  6 25  1  0  0  0
  6 93  1  0  0  0
  6 94  1  0  0  0
  7  8  2  0  0  0
  7 26  1  0  0  0
  7 29  1  0  0  0
  8  9  1  0  0  0
  8 22  1  0  0  0
  9 10  1  0  0  0
  9 27  2  0  0  0
 10 11  2  0  0  0
 10 15  1  0  0  0
 11 12  1  0  0  0
 11 95  1  0  0  0
 12 13  2  0  0  0
 12 96  1  0  0  0
 13 14  1  0  0  0
 13 31  1  0  0  0
 14 15  2  0  0  0
 14 97  1  0  0  0
 15 98  1  0  0  0
 16 17  2  0  0  0
 16 21  1  0  0  0
 16 31  1  0  0  0
 17 18  1  0  0  0
 17 99  1  0  0  0
 18 19  2  0  0  0
 18100  1  0  0  0
 19 20  1  0  0  0
 19 24  1  0  0  0
 20 21  2  0  0  0
 20101  1  0  0  0
 21 23  1  0  0  0
 22 28  1  0  0  0
 22 32  2  0  0  0
 26 27  1  0  0  0
 28102  1  0  0  0
 28103  1  0  0  0
 29104  1  0  0  0
 29105  1  0  0  0
 33 34  1  0  0  0
 33 66  1  0  0  0
 33 70  2  0  0  0
 34 36  1  0  0  0
 34 59  1  0  0  0
 34106  1  0  0  0
 35 44  2  0  0  0
 35 45  1  0  0  0
 35 68  1  0  0  0
 36 56  1  0  0  0
 36107  1  0  0  0
 37 39  1  0  0  0
 37 47  1  0  0  0
 37 66  1  0  0  0
 37108  1  0  0  0
 38 43  2  0  0  0
 38 46  1  0  0  0
 38 47  1  0  0  0
 39 64  1  0  0  0
 39 67  2  0  0  0
 40 52  1  0  0  0
 40 53  2  0  0  0
 40 58  1  0  0  0
 41109  1  0  0  0
 41110  1  0  0  0
 41111  1  0  0  0
 41 48  1  0  0  0
 42 43  1  0  0  0
 42 66  1  0  0  0
 42112  1  0  0  0
 42113  1  0  0  0
 43 44  1  0  0  0
 44114  1  0  0  0
 45 46  2  0  0  0
 45115  1  0  0  0
 46116  1  0  0  0
 47117  1  0  0  0
 47118  1  0  0  0
 48 56  1  0  0  0
 48 65  1  0  0  0
 48119  1  0  0  0
 49 50  1  0  0  0
 49 53  1  0  0  0
 49 64  1  0  0  0
 49120  1  0  0  0
 50 51  1  0  0  0
 50121  1  0  0  0
 50122  1  0  0  0
 51 52  1  0  0  0
 51123  1  0  0  0
 51124  1  0  0  0
 52125  1  0  0  0
 52126  1  0  0  0
 53 54  1  0  0  0
 54 55  2  0  0  0
 54127  1  0  0  0
 55 57  1  0  0  0
 55128  1  0  0  0
 56 69  2  0  0  0
 57 58  2  0  0  0
 57129  1  0  0  0
 58130  1  0  0  0
 59 60  1  0  0  0
 59 61  1  0  0  0
 59 62  1  0  0  0
 60131  1  0  0  0
 60132  1  0  0  0
 60133  1  0  0  0
 61134  1  0  0  0
 61135  1  0  0  0
 61136  1  0  0  0
 62137  1  0  0  0
 62138  1  0  0  0
 62139  1  0  0  0
 63 65  1  0  0  0
 63140  1  0  0  0
 63141  1  0  0  0
 63142  1  0  0  0
 64143  1  0  0  0
 65144  1  0  0  0
 68 82  1  0  0  0
 71 72  2  0  0  0
 71 83  1  0  0  0
 71145  1  0  0  0
 72 73  1  0  0  0
 72 77  1  0  0  0
 73 78  1  0  0  0
 73 84  2  0  0  0
 74 83  2  0  0  0
 74 84  1  0  0  0
 74 85  1  0  0  0
 75 78  1  0  0  0
 75146  1  0  0  0
 75147  1  0  0  0
 75148  1  0  0  0
 76 85  1  0  0  0
 76149  1  0  0  0
 76150  1  0  0  0
 76151  1  0  0  0
 77 79  1  0  0  0
 77152  1  0  0  0
 77153  1  0  0  0
 78154  1  0  0  0
 78155  1  0  0  0
 79 80  1  0  0  0
 79156  1  0  0  0
 79157  1  0  0  0
 80 81  1  0  0  0
 80158  1  0  0  0
 80159  1  0  0  0
 81 82  1  0  0  0
 81160  1  0  0  0
 81161  1  0  0  0
 82162  1  0  0  0
 82163  1  0  0  0
M  ISO  4   1 100  68 101  82 101  85 100
M  END
> <chiral flag>
0

> <version>
0

> <s_m_source_file>
/data/baiqing/PycharmProjects/Reinvent-master-3.2/result/LINK_invent/BTK/process_docking_weight1_custom_sum_contain_oxygen_bond_distance_aromatic_linkinvent_7_9_3/rearranged_h_0075.sdf

> <i_m_source_file_index>
5

> <r_mmod_Potential_Energy-OPLS-2005>
-282.32763671875

> <r_mmod_Stretch_Energy-OPLS-2005>
38.2305374145508

> <r_mmod_Bend_Energy-OPLS-2005>
108.655654907227

> <r_mmod_Torsional_Energy-OPLS-2005>
272.314453125

> <r_mmod_Improper_Torsional_Energy-OPLS-2005>
3.37911176681519

> <r_mmod_Van_der_Waal_Energy-OPLS-2005>
165.040863037109

> <r_mmod_Electrostatic_Energy-OPLS-2005>
-688.109008789062

> <r_mmod_Solvation_Energy-OPLS-2005>
-194.071472167969

> <b_mmod_Minimization_Converged-OPLS-2005>
0

> <r_mmod_RMS_Derivative-OPLS-2005>
2.37933421134949

$$$$
5
                    3D
 Structure written by MMmdl.
184192  0  0  1  0            999 V2000
  -30.6906  -14.4791   20.4965 C   0  0  0  0  0  0
  -30.4161  -12.2934   19.4169 C   0  0  0  0  0  0
  -29.4841  -12.4771   18.2004 C   0  0  0  0  0  0
  -28.0123  -12.3177   18.6308 C   0  0  0  0  0  0
  -27.6529  -13.1926   19.8633 C   0  0  2  0  0  0
  -28.6988  -13.0044   20.9844 C   0  0  0  0  0  0
  -25.2547  -13.8124   20.5659 C   0  0  0  0  0  0
  -24.1776  -13.0458   20.9202 C   0  0  0  0  0  0
  -24.6304  -11.6903   20.8727 C   0  0  0  0  0  0
  -23.9012  -10.4309   21.0392 C   0  0  0  0  0  0
  -24.3584   -9.4210   21.9151 C   0  0  0  0  0  0
  -23.6274   -8.2244   22.0752 C   0  0  0  0  0  0
  -22.4266   -8.0253   21.3552 C   0  0  0  0  0  0
  -21.9877   -9.0216   20.4647 C   0  0  0  0  0  0
  -22.7193  -10.2118   20.3035 C   0  0  0  0  0  0
  -21.6845   -6.0677   22.5266 C   0  0  0  0  0  0
  -21.4029   -6.5604   23.8187 C   0  0  0  0  0  0
  -21.3661   -5.6774   24.9155 C   0  0  0  0  0  0
  -21.6059   -4.3035   24.7230 C   0  0  0  0  0  0
  -21.8815   -3.8105   23.4353 C   0  0  0  0  0  0
  -21.9197   -4.6909   22.3397 C   0  0  0  0  0  0
  -22.7783  -13.5269   21.1858 C   0  0  0  0  0  0
  -22.1628   -4.2058   21.0981 F   0  0  0  0  0  0
  -21.5657   -3.4555   25.7764 F   0  0  0  0  0  0
  -30.0261  -13.2976   20.4152 N   0  0  0  0  0  0
  -26.2945  -12.9258   20.3312 N   0  0  0  0  0  0
  -25.9226  -11.6455   20.5748 N   0  0  0  0  0  0
  -22.0410  -12.8248   22.0397 N   0  0  0  0  0  0
  -25.4346  -15.1838   20.4007 N   0  0  0  0  0  0
  -31.8533  -14.6305   20.1197 O   0  0  0  0  0  0
  -21.6671   -6.8817   21.4219 O   0  0  0  0  0  0
  -22.3467  -14.5538   20.6628 O   0  0  0  0  0  0
  -24.6190  -31.8697   23.2145 C   0  0  0  0  0  0
  -25.9081  -32.4848   23.8442 C   0  0  1  0  0  0
  -27.2093  -27.4173   20.0670 C   0  0  0  0  0  0
  -25.5941  -33.8637   24.2361 N   0  0  0  0  0  0
  -23.4054  -30.5035   21.5525 C   0  0  2  0  0  0
  -24.8409  -28.9729   20.1183 C   0  0  0  0  0  0
  -22.7435  -29.4634   22.4916 C   0  0  0  0  0  0
  -18.0269  -28.1330   22.8529 C   0  0  0  0  0  0
  -24.1477  -36.7335   23.2646 C   0  0  0  0  0  0
  -25.9430  -30.8267   21.3755 C   0  0  0  0  0  0
  -26.0114  -29.4651   20.7098 C   0  0  0  0  0  0
  -27.1983  -28.6961   20.6795 C   0  0  0  0  0  0
  -26.0046  -26.9404   19.4996 C   0  0  0  0  0  0
  -24.8298  -27.7072   19.5196 C   0  0  0  0  0  0
  -23.6172  -29.8530   20.1645 C   0  0  0  0  0  0
  -25.4096  -36.3137   24.0340 C   0  0  1  0  0  0
  -20.5869  -28.3606   23.1206 C   0  0  2  0  0  0
  -20.6792  -26.9344   22.5231 C   0  0  0  0  0  0
  -19.5647  -26.6250   21.5180 C   0  0  0  0  0  0
  -18.1899  -26.7854   22.1691 C   0  0  0  0  0  0
  -19.1535  -28.8759   23.2891 C   0  0  0  0  0  0
  -18.9526  -30.1341   23.8962 C   0  0  0  0  0  0
  -17.6555  -30.6545   24.0652 C   0  0  0  0  0  0
  -25.9038  -34.9506   23.5152 C   0  0  0  0  0  0
  -16.5411  -29.9098   23.6399 C   0  0  0  0  0  0
  -16.7280  -28.6475   23.0468 C   0  0  0  0  0  0
  -26.4481  -31.6665   25.0807 C   0  0  0  0  0  0
  -25.3741  -31.3787   26.1562 C   0  0  0  0  0  0
  -27.0325  -30.3095   24.6267 C   0  0  0  0  0  0
  -27.6053  -32.4399   25.7583 C   0  0  0  0  0  0
  -27.5577  -37.1831   24.8467 C   0  0  0  0  0  0
  -21.4151  -29.3066   22.3707 N   0  0  0  0  0  0
  -26.4285  -37.3825   23.9428 N   0  0  0  0  0  0
  -24.6738  -31.0786   22.1059 N   0  0  0  0  0  0
  -23.4219  -28.8064   23.2832 O   0  0  0  0  0  0
  -28.3805  -26.6787   20.0448 O   0  0  0  0  0  0
  -26.5588  -34.8935   22.4696 O   0  0  0  0  0  0
  -23.5397  -32.1439   23.7550 O   0  0  0  0  0  0
  -26.5715  -19.8382   20.0440 C   0  0  0  0  0  0
  -26.0854  -21.1135   19.8760 C   0  0  0  0  0  0
  -27.1365  -21.8301   19.1967 C   0  0  0  0  0  0
  -28.1586  -20.9425   18.9278 C   0  0  0  0  0  0
  -30.7490  -20.9493   18.6871 C   0  0  0  0  0  0
  -29.2340  -20.5284   16.6713 C   0  0  0  0  0  0
  -24.4128  -23.0677   20.3844 C   0  0  0  0  0  0
  -24.4110  -21.0154   21.7636 C   0  0  0  0  0  0
  -23.6188  -20.9167   19.3963 C   0  0  0  0  0  0
  -28.2264  -17.5860   21.9159 C   0  0  0  0  0  0
  -30.0046  -19.2761   21.5503 C   0  0  0  0  0  0
  -27.1589  -23.2911   18.7671 C   0  0  0  0  0  0
  -27.7505  -24.2444   19.8360 C   0  0  0  0  0  0
  -28.6256  -18.4549   19.5414 C   0  0  0  0  0  0
  -30.3804  -16.9428   20.6971 C   0  0  0  0  0  0
  -28.4254  -25.4971   19.2209 C   0  0  0  0  0  0
  -29.3764  -21.1865   18.0529 C   0  0  0  0  0  0
  -24.6684  -21.5429   20.3379 C   0  0  0  0  0  0
  -29.2963  -18.0573   20.9082 C   0  0  0  0  0  0
  -27.8429  -19.7124   19.5209 N   0  0  0  0  0  0
  -29.9242  -15.5441   20.7919 N   0  0  0  0  0  0
  -31.4595  -12.3788   19.1109 H   0  0  0  0  0  0
  -30.3144  -11.2937   19.8445 H   0  0  0  0  0  0
  -29.7290  -11.7486   17.4256 H   0  0  0  0  0  0
  -29.6350  -13.4571   17.7446 H   0  0  0  0  0  0
  -27.8601  -11.2622   18.8762 H   0  0  0  0  0  0
  -27.3463  -12.5338   17.7928 H   0  0  0  0  0  0
  -27.6912  -14.2317   19.5373 H   0  0  0  0  0  0
  -28.6693  -11.9747   21.3470 H   0  0  0  0  0  0
  -28.4744  -13.6423   21.8408 H   0  0  0  0  0  0
  -25.2704   -9.5703   22.4737 H   0  0  0  0  0  0
  -23.9942   -7.4663   22.7505 H   0  0  0  0  0  0
  -21.0782   -8.8754   19.8958 H   0  0  0  0  0  0
  -22.3615  -10.9642   19.6159 H   0  0  0  0  0  0
  -21.2014   -7.6112   23.9655 H   0  0  0  0  0  0
  -21.1488   -6.0517   25.9062 H   0  0  0  0  0  0
  -22.0607   -2.7563   23.2902 H   0  0  0  0  0  0
  -22.4068  -11.9938   22.4779 H   0  0  0  0  0  0
  -21.0990  -13.1195   22.2637 H   0  0  0  0  0  0
  -24.6617  -15.8323   20.4926 H   0  0  0  0  0  0
  -26.2651  -15.6104   20.0132 H   0  0  0  0  0  0
  -26.7160  -32.5565   23.1225 H   0  0  0  0  0  0
  -25.0103  -33.9805   25.0508 H   0  0  0  0  0  0
  -22.6997  -31.3264   21.4216 H   0  0  0  0  0  0
  -23.3738  -35.9684   23.3325 H   0  0  0  0  0  0
  -24.3567  -36.8927   22.2072 H   0  0  0  0  0  0
  -23.7241  -37.6548   23.6622 H   0  0  0  0  0  0
  -26.0735  -31.5936   20.6104 H   0  0  0  0  0  0
  -26.8285  -30.8637   22.0016 H   0  0  0  0  0  0
  -28.1123  -29.0802   21.1129 H   0  0  0  0  0  0
  -25.9283  -25.9713   19.0345 H   0  0  0  0  0  0
  -23.9238  -27.3177   19.0804 H   0  0  0  0  0  0
  -23.7602  -30.6339   19.4145 H   0  0  0  0  0  0
  -22.7364  -29.2907   19.8492 H   0  0  0  0  0  0
  -25.1276  -36.2011   25.0832 H   0  0  0  0  0  0
  -20.9949  -28.3056   24.1301 H   0  0  0  0  0  0
  -20.5806  -26.2194   23.3402 H   0  0  0  0  0  0
  -21.6643  -26.7471   22.0908 H   0  0  0  0  0  0
  -19.6629  -25.6102   21.1317 H   0  0  0  0  0  0
  -19.6505  -27.2940   20.6621 H   0  0  0  0  0  0
  -17.4085  -26.6528   21.4181 H   0  0  0  0  0  0
  -18.0336  -26.0069   22.9172 H   0  0  0  0  0  0
  -19.7993  -30.7108   24.2367 H   0  0  0  0  0  0
  -17.5246  -31.6265   24.5217 H   0  0  0  0  0  0
  -15.5439  -30.3110   23.7638 H   0  0  0  0  0  0
  -15.8652  -28.0752   22.7270 H   0  0  0  0  0  0
  -24.5844  -30.7230   25.7873 H   0  0  0  0  0  0
  -24.9018  -32.2965   26.5089 H   0  0  0  0  0  0
  -25.8075  -30.8866   27.0289 H   0  0  0  0  0  0
  -26.2905  -29.6869   24.1264 H   0  0  0  0  0  0
  -27.3981  -29.7350   25.4798 H   0  0  0  0  0  0
  -27.8800  -30.4384   23.9525 H   0  0  0  0  0  0
  -27.2636  -33.3639   26.2271 H   0  0  0  0  0  0
  -28.3813  -32.7081   25.0396 H   0  0  0  0  0  0
  -28.0804  -31.8489   26.5435 H   0  0  0  0  0  0
  -28.2611  -38.0110   24.7492 H   0  0  0  0  0  0
  -28.1046  -36.2646   24.6291 H   0  0  0  0  0  0
  -27.2303  -37.1511   25.8870 H   0  0  0  0  0  0
  -20.9291  -29.9056   21.7142 H   0  0  0  0  0  0
  -26.0175  -38.2914   24.1376 H   0  0  0  0  0  0
  -26.0990  -18.9766   20.4966 H   0  0  0  0  0  0
  -30.9807  -19.8989   18.8305 H   0  0  0  0  0  0
  -30.8281  -21.4650   19.6438 H   0  0  0  0  0  0
  -31.5292  -21.3478   18.0364 H   0  0  0  0  0  0
  -29.1187  -19.4469   16.7307 H   0  0  0  0  0  0
  -28.3654  -20.9327   16.1517 H   0  0  0  0  0  0
  -30.0971  -20.7426   16.0407 H   0  0  0  0  0  0
  -25.1445  -23.5953   20.9919 H   0  0  0  0  0  0
  -23.4381  -23.2926   20.8207 H   0  0  0  0  0  0
  -24.3705  -23.5165   19.3942 H   0  0  0  0  0  0
  -25.1342  -21.4238   22.4704 H   0  0  0  0  0  0
  -24.4710  -19.9301   21.8150 H   0  0  0  0  0  0
  -23.4155  -21.2844   22.1168 H   0  0  0  0  0  0
  -23.7610  -21.2423   18.3653 H   0  0  0  0  0  0
  -22.6015  -21.1970   19.6861 H   0  0  0  0  0  0
  -23.6679  -19.8288   19.4007 H   0  0  0  0  0  0
  -27.5890  -16.8064   21.5006 H   0  0  0  0  0  0
  -27.5831  -18.4098   22.2241 H   0  0  0  0  0  0
  -28.6844  -17.1755   22.8177 H   0  0  0  0  0  0
  -29.3518  -20.1468   21.6047 H   0  0  0  0  0  0
  -30.3134  -19.0623   22.5715 H   0  0  0  0  0  0
  -30.9082  -19.5642   21.0151 H   0  0  0  0  0  0
  -26.1786  -23.6173   18.4415 H   0  0  0  0  0  0
  -27.7188  -23.3836   17.8422 H   0  0  0  0  0  0
  -28.4852  -23.7123   20.4397 H   0  0  0  0  0  0
  -26.9779  -24.5331   20.5428 H   0  0  0  0  0  0
  -27.9609  -17.6514   19.2246 H   0  0  0  0  0  0
  -29.3655  -18.4941   18.7478 H   0  0  0  0  0  0
  -30.8755  -17.0889   19.7320 H   0  0  0  0  0  0
  -31.1867  -17.0635   21.4227 H   0  0  0  0  0  0
  -28.0009  -25.7183   18.2435 H   0  0  0  0  0  0
  -29.4712  -25.2576   19.0198 H   0  0  0  0  0  0
  -29.4326  -22.2476   17.8377 H   0  0  0  0  0  0
  -28.9624  -15.3603   21.0315 H   0  0  0  0  0  0
  1 25  1  0  0  0
  1 30  2  0  0  0
  1 91  1  0  0  0
  2  3  1  0  0  0
  2 25  1  0  0  0
  2 92  1  0  0  0
  2 93  1  0  0  0
  3  4  1  0  0  0
  3 94  1  0  0  0
  3 95  1  0  0  0
  4  5  1  0  0  0
  4 96  1  0  0  0
  4 97  1  0  0  0
  5  6  1  0  0  0
  5 26  1  0  0  0
  5 98  1  0  0  0
  6 25  1  0  0  0
  6 99  1  0  0  0
  6100  1  0  0  0
  7  8  2  0  0  0
  7 26  1  0  0  0
  7 29  1  0  0  0
  8  9  1  0  0  0
  8 22  1  0  0  0
  9 10  1  0  0  0
  9 27  2  0  0  0
 10 11  2  0  0  0
 10 15  1  0  0  0
 11 12  1  0  0  0
 11101  1  0  0  0
 12 13  2  0  0  0
 12102  1  0  0  0
 13 14  1  0  0  0
 13 31  1  0  0  0
 14 15  2  0  0  0
 14103  1  0  0  0
 15104  1  0  0  0
 16 17  2  0  0  0
 16 21  1  0  0  0
 16 31  1  0  0  0
 17 18  1  0  0  0
 17105  1  0  0  0
 18 19  2  0  0  0
 18106  1  0  0  0
 19 20  1  0  0  0
 19 24  1  0  0  0
 20 21  2  0  0  0
 20107  1  0  0  0
 21 23  1  0  0  0
 22 28  1  0  0  0
 22 32  2  0  0  0
 26 27  1  0  0  0
 28108  1  0  0  0
 28109  1  0  0  0
 29110  1  0  0  0
 29111  1  0  0  0
 33 34  1  0  0  0
 33 66  1  0  0  0
 33 70  2  0  0  0
 34 36  1  0  0  0
 34 59  1  0  0  0
 34112  1  0  0  0
 35 44  2  0  0  0
 35 45  1  0  0  0
 35 68  1  0  0  0
 36 56  1  0  0  0
 36113  1  0  0  0
 37 39  1  0  0  0
 37 47  1  0  0  0
 37 66  1  0  0  0
 37114  1  0  0  0
 38 43  2  0  0  0
 38 46  1  0  0  0
 38 47  1  0  0  0
 39 64  1  0  0  0
 39 67  2  0  0  0
 40 52  1  0  0  0
 40 53  2  0  0  0
 40 58  1  0  0  0
 41115  1  0  0  0
 41116  1  0  0  0
 41117  1  0  0  0
 41 48  1  0  0  0
 42 43  1  0  0  0
 42 66  1  0  0  0
 42118  1  0  0  0
 42119  1  0  0  0
 43 44  1  0  0  0
 44120  1  0  0  0
 45 46  2  0  0  0
 45121  1  0  0  0
 46122  1  0  0  0
 47123  1  0  0  0
 47124  1  0  0  0
 48 56  1  0  0  0
 48 65  1  0  0  0
 48125  1  0  0  0
 49 50  1  0  0  0
 49 53  1  0  0  0
 49 64  1  0  0  0
 49126  1  0  0  0
 50 51  1  0  0  0
 50127  1  0  0  0
 50128  1  0  0  0
 51 52  1  0  0  0
 51129  1  0  0  0
 51130  1  0  0  0
 52131  1  0  0  0
 52132  1  0  0  0
 53 54  1  0  0  0
 54 55  2  0  0  0
 54133  1  0  0  0
 55 57  1  0  0  0
 55134  1  0  0  0
 56 69  2  0  0  0
 57 58  2  0  0  0
 57135  1  0  0  0
 58136  1  0  0  0
 59 60  1  0  0  0
 59 61  1  0  0  0
 59 62  1  0  0  0
 60137  1  0  0  0
 60138  1  0  0  0
 60139  1  0  0  0
 61140  1  0  0  0
 61141  1  0  0  0
 61142  1  0  0  0
 62143  1  0  0  0
 62144  1  0  0  0
 62145  1  0  0  0
 63 65  1  0  0  0
 63146  1  0  0  0
 63147  1  0  0  0
 63148  1  0  0  0
 64149  1  0  0  0
 65150  1  0  0  0
 68 86  1  0  0  0
 71 72  2  0  0  0
 71 90  1  0  0  0
 71151  1  0  0  0
 72 73  1  0  0  0
 72 88  1  0  0  0
 73 74  2  0  0  0
 73 82  1  0  0  0
 74 87  1  0  0  0
 74 90  1  0  0  0
 75152  1  0  0  0
 75153  1  0  0  0
 75154  1  0  0  0
 75 87  1  0  0  0
 76 87  1  0  0  0
 76155  1  0  0  0
 76156  1  0  0  0
 76157  1  0  0  0
 77158  1  0  0  0
 77159  1  0  0  0
 77160  1  0  0  0
 77 88  1  0  0  0
 78 88  1  0  0  0
 78161  1  0  0  0
 78162  1  0  0  0
 78163  1  0  0  0
 79 88  1  0  0  0
 79164  1  0  0  0
 79165  1  0  0  0
 79166  1  0  0  0
 80167  1  0  0  0
 80168  1  0  0  0
 80169  1  0  0  0
 80 89  1  0  0  0
 81 89  1  0  0  0
 81170  1  0  0  0
 81171  1  0  0  0
 81172  1  0  0  0
 82 83  1  0  0  0
 82173  1  0  0  0
 82174  1  0  0  0
 83 86  1  0  0  0
 83175  1  0  0  0
 83176  1  0  0  0
 84 89  1  0  0  0
 84 90  1  0  0  0
 84177  1  0  0  0
 84178  1  0  0  0
 85 89  1  0  0  0
 85 91  1  0  0  0
 85179  1  0  0  0
 85180  1  0  0  0
 86181  1  0  0  0
 86182  1  0  0  0
 87183  1  0  0  0
 91184  1  0  0  0
M  ISO  4   1 100  68 101  86 101  91 100
M  END
> <chiral flag>
0

> <version>
0

> <s_m_source_file>
/data/baiqing/PycharmProjects/Reinvent-master-3.2/result/LINK_invent/BTK/process_docking_weight1_custom_sum_contain_oxygen_bond_distance_aromatic_linkinvent_7_9_3/rearranged_h_0075.sdf

> <i_m_source_file_index>
6

> <r_mmod_Potential_Energy-OPLS-2005>
-75.1192855834961

> <r_mmod_Stretch_Energy-OPLS-2005>
47.7258224487305

> <r_mmod_Bend_Energy-OPLS-2005>
140.335968017578

> <r_mmod_Torsional_Energy-OPLS-2005>
246.150344848633

> <r_mmod_Improper_Torsional_Energy-OPLS-2005>
6.05927848815918

> <r_mmod_Van_der_Waal_Energy-OPLS-2005>
137.086120605469

> <r_mmod_Electrostatic_Energy-OPLS-2005>
-483.942260742188

> <r_mmod_Solvation_Energy-OPLS-2005>
-187.779922485352

> <b_mmod_Minimization_Converged-OPLS-2005>
0

> <r_mmod_RMS_Derivative-OPLS-2005>
6.83017158508301

$$$$
6
                    3D
 Structure written by MMmdl.
164172  0  0  1  0            999 V2000
  -30.6382  -14.7091   20.4443 C   0  0  0  0  0  0
  -30.4237  -12.4327   19.4648 C   0  0  0  0  0  0
  -29.5025  -12.4952   18.2283 C   0  0  0  0  0  0
  -28.0289  -12.3260   18.6450 C   0  0  0  0  0  0
  -27.6385  -13.2327   19.8442 C   0  0  2  0  0  0
  -28.6847  -13.1752   20.9772 C   0  0  0  0  0  0
  -25.2506  -13.8218   20.5702 C   0  0  0  0  0  0
  -24.1796  -13.0452   20.9190 C   0  0  0  0  0  0
  -24.6394  -11.6932   20.8738 C   0  0  0  0  0  0
  -23.9073  -10.4305   21.0401 C   0  0  0  0  0  0
  -24.3623   -9.4223   21.9184 C   0  0  0  0  0  0
  -23.6301   -8.2257   22.0757 C   0  0  0  0  0  0
  -22.4285   -8.0291   21.3548 C   0  0  0  0  0  0
  -21.9915   -9.0264   20.4652 C   0  0  0  0  0  0
  -22.7237  -10.2145   20.3060 C   0  0  0  0  0  0
  -21.6861   -6.0740   22.5284 C   0  0  0  0  0  0
  -21.4015   -6.5645   23.8216 C   0  0  0  0  0  0
  -21.3654   -5.6797   24.9178 C   0  0  0  0  0  0
  -21.6047   -4.3060   24.7230 C   0  0  0  0  0  0
  -21.8812   -3.8149   23.4351 C   0  0  0  0  0  0
  -21.9193   -4.6965   22.3407 C   0  0  0  0  0  0
  -22.7819  -13.5233   21.1864 C   0  0  0  0  0  0
  -22.1659   -4.2150   21.0984 F   0  0  0  0  0  0
  -21.5630   -3.4543   25.7739 F   0  0  0  0  0  0
  -29.9855  -13.5028   20.3862 N   0  0  0  0  0  0
  -26.2928  -12.9423   20.3274 N   0  0  0  0  0  0
  -25.9328  -11.6567   20.5760 N   0  0  0  0  0  0
  -22.0470  -12.8232   22.0435 N   0  0  0  0  0  0
  -25.4187  -15.1948   20.4163 N   0  0  0  0  0  0
  -31.8455  -14.7580   20.2038 O   0  0  0  0  0  0
  -21.6654   -6.8884   21.4246 O   0  0  0  0  0  0
  -22.3494  -14.5537   20.6705 O   0  0  0  0  0  0
  -24.6291  -31.8565   23.1971 C   0  0  0  0  0  0
  -25.9129  -32.4760   23.8314 C   0  0  1  0  0  0
  -27.2248  -27.2952   20.1313 C   0  0  0  0  0  0
  -25.5934  -33.8556   24.2246 N   0  0  0  0  0  0
  -23.4238  -30.4771   21.5403 C   0  0  2  0  0  0
  -24.8712  -28.9212   20.1133 C   0  0  0  0  0  0
  -22.7489  -29.4609   22.4922 C   0  0  0  0  0  0
  -18.0307  -28.1374   22.8472 C   0  0  0  0  0  0
  -24.1485  -36.7284   23.2638 C   0  0  0  0  0  0
  -25.9649  -30.7823   21.3677 C   0  0  0  0  0  0
  -26.0418  -29.4050   20.7141 C   0  0  0  0  0  0
  -27.2257  -28.6067   20.7054 C   0  0  0  0  0  0
  -26.0346  -26.8605   19.5153 C   0  0  0  0  0  0
  -24.8708  -27.6561   19.5023 C   0  0  0  0  0  0
  -23.6396  -29.8041   20.1585 C   0  0  0  0  0  0
  -25.4112  -36.3066   24.0320 C   0  0  1  0  0  0
  -20.5898  -28.3713   23.1294 C   0  0  2  0  0  0
  -20.6801  -26.9428   22.5444 C   0  0  0  0  0  0
  -19.5814  -26.6412   21.5209 C   0  0  0  0  0  0
  -18.1987  -26.7920   22.1609 C   0  0  0  0  0  0
  -19.1545  -28.8861   23.2876 C   0  0  0  0  0  0
  -18.9451  -30.1464   23.8890 C   0  0  0  0  0  0
  -17.6439  -30.6576   24.0539 C   0  0  0  0  0  0
  -25.9059  -34.9440   23.5088 C   0  0  0  0  0  0
  -16.5345  -29.9050   23.6304 C   0  0  0  0  0  0
  -16.7287  -28.6470   23.0332 C   0  0  0  0  0  0
  -26.4506  -31.6574   25.0694 C   0  0  0  0  0  0
  -25.3730  -31.3731   26.1419 C   0  0  0  0  0  0
  -27.0351  -30.2991   24.6166 C   0  0  0  0  0  0
  -27.6059  -32.4310   25.7477 C   0  0  0  0  0  0
  -27.5573  -37.1795   24.8464 C   0  0  0  0  0  0
  -21.4201  -29.3057   22.3685 N   0  0  0  0  0  0
  -26.4288  -37.3763   23.9408 N   0  0  0  0  0  0
  -24.6915  -31.0558   22.0919 N   0  0  0  0  0  0
  -23.4203  -28.8154   23.3014 O   0  0  0  0  0  0
  -28.3333  -26.4354   20.1233 O   0  0  0  0  0  0
  -26.5626  -34.8920   22.4657 O   0  0  0  0  0  0
  -23.5452  -32.1377   23.7286 O   0  0  0  0  0  0
  -29.5994  -19.8727   20.6174 C   0  0  0  0  0  0
  -27.0572  -19.0640   20.1452 C   0  0  0  0  0  0
  -28.5999  -20.9166   20.5851 C   0  0  0  0  0  0
  -27.2748  -20.4496   20.3625 C   0  0  0  0  0  0
  -29.2793  -18.4758   20.4304 C   0  0  0  0  0  0
  -25.0012  -20.9455   21.4089 C   0  0  0  0  0  0
  -25.4619  -21.5496   18.9804 C   0  0  0  0  0  0
  -31.0727  -17.4925   18.9928 C   0  0  0  0  0  0
  -28.9006  -22.4334   20.9673 C   0  0  0  0  0  0
  -28.5677  -23.7107   20.0317 C   0  0  0  0  0  0
  -28.2084  -25.0981   20.7711 C   0  0  0  0  0  0
  -26.0611  -21.3844   20.3850 C   0  0  0  0  0  0
  -30.3505  -17.3162   20.3460 C   0  0  2  0  0  0
  -28.0104  -18.1058   20.1744 N   0  0  0  0  0  0
  -29.8928  -15.8704   20.5266 N   0  0  0  0  0  0
  -31.4670  -12.5415   19.1624 H   0  0  0  0  0  0
  -30.3535  -11.4595   19.9528 H   0  0  0  0  0  0
  -29.7805  -11.7233   17.5094 H   0  0  0  0  0  0
  -29.6327  -13.4501   17.7163 H   0  0  0  0  0  0
  -27.8805  -11.2781   18.9094 H   0  0  0  0  0  0
  -27.3718  -12.5177   17.7961 H   0  0  0  0  0  0
  -27.6293  -14.2520   19.4571 H   0  0  0  0  0  0
  -28.7121  -12.1854   21.4343 H   0  0  0  0  0  0
  -28.4307  -13.8771   21.7732 H   0  0  0  0  0  0
  -25.2763   -9.5706   22.4765 H   0  0  0  0  0  0
  -24.0014   -7.4653   22.7478 H   0  0  0  0  0  0
  -21.0847   -8.8784   19.8959 H   0  0  0  0  0  0
  -22.3692  -10.9691   19.6179 H   0  0  0  0  0  0
  -21.2008   -7.6155   23.9717 H   0  0  0  0  0  0
  -21.1483   -6.0532   25.9082 H   0  0  0  0  0  0
  -22.0595   -2.7613   23.2858 H   0  0  0  0  0  0
  -22.4100  -11.9901   22.4827 H   0  0  0  0  0  0
  -21.1095  -13.1276   22.2661 H   0  0  0  0  0  0
  -24.6470  -15.8432   20.5247 H   0  0  0  0  0  0
  -26.2786  -15.6503   20.1367 H   0  0  0  0  0  0
  -26.7190  -32.5420   23.1055 H   0  0  0  0  0  0
  -25.0074  -33.9685   25.0386 H   0  0  0  0  0  0
  -22.7209  -31.2993   21.3915 H   0  0  0  0  0  0
  -23.3741  -35.9621   23.3301 H   0  0  0  0  0  0
  -24.3581  -36.8913   22.2055 H   0  0  0  0  0  0
  -23.7252  -37.6490   23.6663 H   0  0  0  0  0  0
  -26.0972  -31.5432   20.5972 H   0  0  0  0  0  0
  -26.8456  -30.8341   21.9966 H   0  0  0  0  0  0
  -28.1304  -28.9784   21.1665 H   0  0  0  0  0  0
  -26.0034  -25.8862   19.0476 H   0  0  0  0  0  0
  -23.9737  -27.2788   19.0303 H   0  0  0  0  0  0
  -23.7596  -30.5763   19.3981 H   0  0  0  0  0  0
  -22.7589  -29.2328   19.8578 H   0  0  0  0  0  0
  -25.1293  -36.1907   25.0809 H   0  0  0  0  0  0
  -20.9992  -28.3310   24.1413 H   0  0  0  0  0  0
  -20.5674  -26.2324   23.3645 H   0  0  0  0  0  0
  -21.6686  -26.7445   22.1287 H   0  0  0  0  0  0
  -19.7001  -25.6339   21.1206 H   0  0  0  0  0  0
  -19.6769  -27.3260   20.6771 H   0  0  0  0  0  0
  -17.4263  -26.6642   21.4009 H   0  0  0  0  0  0
  -18.0418  -26.0052   22.9003 H   0  0  0  0  0  0
  -19.7915  -30.7292   24.2255 H   0  0  0  0  0  0
  -17.4977  -31.6260   24.5123 H   0  0  0  0  0  0
  -15.5338  -30.2936   23.7610 H   0  0  0  0  0  0
  -15.8703  -28.0772   22.7031 H   0  0  0  0  0  0
  -24.5889  -30.7105   25.7743 H   0  0  0  0  0  0
  -24.8943  -32.2908   26.4838 H   0  0  0  0  0  0
  -25.8046  -30.8902   27.0195 H   0  0  0  0  0  0
  -26.2927  -29.6738   24.1192 H   0  0  0  0  0  0
  -27.4047  -29.7259   25.4680 H   0  0  0  0  0  0
  -27.8795  -30.4267   23.9391 H   0  0  0  0  0  0
  -27.2655  -33.3600   26.2063 H   0  0  0  0  0  0
  -28.3871  -32.6891   25.0313 H   0  0  0  0  0  0
  -28.0725  -31.8430   26.5393 H   0  0  0  0  0  0
  -28.2589  -38.0089   24.7501 H   0  0  0  0  0  0
  -28.1070  -36.2625   24.6293 H   0  0  0  0  0  0
  -27.2298  -37.1455   25.8869 H   0  0  0  0  0  0
  -20.9376  -29.8823   21.6934 H   0  0  0  0  0  0
  -26.0165  -38.2836   24.1403 H   0  0  0  0  0  0
  -30.6300  -20.1414   20.8050 H   0  0  0  0  0  0
  -26.0586  -18.6962   19.9616 H   0  0  0  0  0  0
  -25.4281  -20.8668   22.4093 H   0  0  0  0  0  0
  -24.5542  -19.9833   21.1619 H   0  0  0  0  0  0
  -24.1905  -21.6735   21.4616 H   0  0  0  0  0  0
  -26.1997  -21.9440   18.2806 H   0  0  0  0  0  0
  -24.6223  -22.2457   18.9932 H   0  0  0  0  0  0
  -25.0985  -20.6027   18.5789 H   0  0  0  0  0  0
  -31.4401  -18.5139   18.8846 H   0  0  0  0  0  0
  -30.3979  -17.2997   18.1587 H   0  0  0  0  0  0
  -31.9410  -16.8456   18.8821 H   0  0  0  0  0  0
  -29.9548  -22.4965   21.2401 H   0  0  0  0  0  0
  -28.3778  -22.5860   21.9120 H   0  0  0  0  0  0
  -27.7442  -23.4764   19.3595 H   0  0  0  0  0  0
  -29.4212  -23.8714   19.3731 H   0  0  0  0  0  0
  -28.8645  -25.1639   21.6398 H   0  0  0  0  0  0
  -27.2102  -24.9971   21.2006 H   0  0  0  0  0  0
  -26.3634  -22.3734   20.7187 H   0  0  0  0  0  0
  -31.0700  -17.5085   21.1434 H   0  0  0  0  0  0
  -28.8974  -15.7698   20.6550 H   0  0  0  0  0  0
  1 25  1  0  0  0
  1 30  2  0  0  0
  1 85  1  0  0  0
  2  3  1  0  0  0
  2 25  1  0  0  0
  2 86  1  0  0  0
  2 87  1  0  0  0
  3  4  1  0  0  0
  3 88  1  0  0  0
  3 89  1  0  0  0
  4  5  1  0  0  0
  4 90  1  0  0  0
  4 91  1  0  0  0
  5  6  1  0  0  0
  5 26  1  0  0  0
  5 92  1  0  0  0
  6 25  1  0  0  0
  6 93  1  0  0  0
  6 94  1  0  0  0
  7  8  2  0  0  0
  7 26  1  0  0  0
  7 29  1  0  0  0
  8  9  1  0  0  0
  8 22  1  0  0  0
  9 10  1  0  0  0
  9 27  2  0  0  0
 10 11  2  0  0  0
 10 15  1  0  0  0
 11 12  1  0  0  0
 11 95  1  0  0  0
 12 13  2  0  0  0
 12 96  1  0  0  0
 13 14  1  0  0  0
 13 31  1  0  0  0
 14 15  2  0  0  0
 14 97  1  0  0  0
 15 98  1  0  0  0
 16 17  2  0  0  0
 16 21  1  0  0  0
 16 31  1  0  0  0
 17 18  1  0  0  0
 17 99  1  0  0  0
 18 19  2  0  0  0
 18100  1  0  0  0
 19 20  1  0  0  0
 19 24  1  0  0  0
 20 21  2  0  0  0
 20101  1  0  0  0
 21 23  1  0  0  0
 22 28  1  0  0  0
 22 32  2  0  0  0
 26 27  1  0  0  0
 28102  1  0  0  0
 28103  1  0  0  0
 29104  1  0  0  0
 29105  1  0  0  0
 33 34  1  0  0  0
 33 66  1  0  0  0
 33 70  2  0  0  0
 34 36  1  0  0  0
 34 59  1  0  0  0
 34106  1  0  0  0
 35 44  2  0  0  0
 35 45  1  0  0  0
 35 68  1  0  0  0
 36 56  1  0  0  0
 36107  1  0  0  0
 37 39  1  0  0  0
 37 47  1  0  0  0
 37 66  1  0  0  0
 37108  1  0  0  0
 38 43  2  0  0  0
 38 46  1  0  0  0
 38 47  1  0  0  0
 39 64  1  0  0  0
 39 67  2  0  0  0
 40 52  1  0  0  0
 40 53  2  0  0  0
 40 58  1  0  0  0
 41109  1  0  0  0
 41110  1  0  0  0
 41111  1  0  0  0
 41 48  1  0  0  0
 42 43  1  0  0  0
 42 66  1  0  0  0
 42112  1  0  0  0
 42113  1  0  0  0
 43 44  1  0  0  0
 44114  1  0  0  0
 45 46  2  0  0  0
 45115  1  0  0  0
 46116  1  0  0  0
 47117  1  0  0  0
 47118  1  0  0  0
 48 56  1  0  0  0
 48 65  1  0  0  0
 48119  1  0  0  0
 49 50  1  0  0  0
 49 53  1  0  0  0
 49 64  1  0  0  0
 49120  1  0  0  0
 50 51  1  0  0  0
 50121  1  0  0  0
 50122  1  0  0  0
 51 52  1  0  0  0
 51123  1  0  0  0
 51124  1  0  0  0
 52125  1  0  0  0
 52126  1  0  0  0
 53 54  1  0  0  0
 54 55  2  0  0  0
 54127  1  0  0  0
 55 57  1  0  0  0
 55128  1  0  0  0
 56 69  2  0  0  0
 57 58  2  0  0  0
 57129  1  0  0  0
 58130  1  0  0  0
 59 60  1  0  0  0
 59 61  1  0  0  0
 59 62  1  0  0  0
 60131  1  0  0  0
 60132  1  0  0  0
 60133  1  0  0  0
 61134  1  0  0  0
 61135  1  0  0  0
 61136  1  0  0  0
 62137  1  0  0  0
 62138  1  0  0  0
 62139  1  0  0  0
 63 65  1  0  0  0
 63140  1  0  0  0
 63141  1  0  0  0
 63142  1  0  0  0
 64143  1  0  0  0
 65144  1  0  0  0
 68 81  1  0  0  0
 71 73  2  0  0  0
 71 75  1  0  0  0
 71145  1  0  0  0
 72 74  2  0  0  0
 72 84  1  0  0  0
 72146  1  0  0  0
 73 74  1  0  0  0
 73 79  1  0  0  0
 74 82  1  0  0  0
 75 83  1  0  0  0
 75 84  2  0  0  0
 76147  1  0  0  0
 76148  1  0  0  0
 76149  1  0  0  0
 76 82  1  0  0  0
 77 82  1  0  0  0
 77150  1  0  0  0
 77151  1  0  0  0
 77152  1  0  0  0
 78153  1  0  0  0
 78154  1  0  0  0
 78155  1  0  0  0
 78 83  1  0  0  0
 79 80  1  0  0  0
 79156  1  0  0  0
 79157  1  0  0  0
 80 81  1  0  0  0
 80158  1  0  0  0
 80159  1  0  0  0
 81160  1  0  0  0
 81161  1  0  0  0
 82162  1  0  0  0
 83 85  1  0  0  0
 83163  1  0  0  0
 85164  1  0  0  0
M  ISO  4   1 100  68 101  81 101  85 100
M  END
> <chiral flag>
0

> <version>
0

> <s_m_source_file>
/data/baiqing/PycharmProjects/Reinvent-master-3.2/result/LINK_invent/BTK/process_docking_weight1_custom_sum_contain_oxygen_bond_distance_aromatic_linkinvent_7_9_3/rearranged_h_0075.sdf

> <i_m_source_file_index>
7

> <r_mmod_Potential_Energy-OPLS-2005>
-139.075424194336

> <r_mmod_Stretch_Energy-OPLS-2005>
103.787940979004

> <r_mmod_Bend_Energy-OPLS-2005>
155.975402832031

> <r_mmod_Torsional_Energy-OPLS-2005>
227.318313598633

> <r_mmod_Improper_Torsional_Energy-OPLS-2005>
6.59102010726929

> <r_mmod_Van_der_Waal_Energy-OPLS-2005>
137.446640014648

> <r_mmod_Electrostatic_Energy-OPLS-2005>
-641.703674316406

> <r_mmod_Solvation_Energy-OPLS-2005>
-199.156143188477

> <b_mmod_Minimization_Converged-OPLS-2005>
0

> <r_mmod_RMS_Derivative-OPLS-2005>
1.54402613639832

$$$$
7
                    3D
 Structure written by MMmdl.
160168  0  0  1  0            999 V2000
  -30.7339  -14.5139   20.6605 C   0  0  0  0  0  0
  -30.4246  -12.3713   19.4184 C   0  0  0  0  0  0
  -29.4929  -12.5603   18.2000 C   0  0  0  0  0  0
  -28.0124  -12.4093   18.6061 C   0  0  0  0  0  0
  -27.6666  -13.2141   19.8861 C   0  0  2  0  0  0
  -28.7117  -12.9289   20.9822 C   0  0  0  0  0  0
  -25.2620  -13.8177   20.5726 C   0  0  0  0  0  0
  -24.1862  -13.0460   20.9180 C   0  0  0  0  0  0
  -24.6412  -11.6916   20.8746 C   0  0  0  0  0  0
  -23.9068  -10.4297   21.0405 C   0  0  0  0  0  0
  -24.3611   -9.4215   21.9193 C   0  0  0  0  0  0
  -23.6297   -8.2241   22.0753 C   0  0  0  0  0  0
  -22.4292   -8.0261   21.3529 C   0  0  0  0  0  0
  -21.9916   -9.0237   20.4644 C   0  0  0  0  0  0
  -22.7231  -10.2130   20.3060 C   0  0  0  0  0  0
  -21.6861   -6.0712   22.5248 C   0  0  0  0  0  0
  -21.4018   -6.5624   23.8175 C   0  0  0  0  0  0
  -21.3658   -5.6790   24.9145 C   0  0  0  0  0  0
  -21.6043   -4.3048   24.7207 C   0  0  0  0  0  0
  -21.8836   -3.8129   23.4335 C   0  0  0  0  0  0
  -21.9211   -4.6937   22.3386 C   0  0  0  0  0  0
  -22.7861  -13.5231   21.1835 C   0  0  0  0  0  0
  -22.1686   -4.2112   21.0966 F   0  0  0  0  0  0
  -21.5631   -3.4540   25.7723 F   0  0  0  0  0  0
  -30.0297  -13.3421   20.4701 N   0  0  0  0  0  0
  -26.3061  -12.9362   20.3425 N   0  0  0  0  0  0
  -25.9337  -11.6514   20.5754 N   0  0  0  0  0  0
  -22.0506  -12.8209   22.0381 N   0  0  0  0  0  0
  -25.4412  -15.1898   20.4148 N   0  0  0  0  0  0
  -31.7879  -14.6651   20.0300 O   0  0  0  0  0  0
  -21.6667   -6.8853   21.4208 O   0  0  0  0  0  0
  -22.3531  -14.5539   20.6681 O   0  0  0  0  0  0
  -24.6154  -31.8673   23.2070 C   0  0  0  0  0  0
  -25.9033  -32.4832   23.8384 C   0  0  1  0  0  0
  -27.2492  -27.4129   20.1207 C   0  0  0  0  0  0
  -25.5854  -33.8626   24.2300 N   0  0  0  0  0  0
  -23.4083  -30.4863   21.5489 C   0  0  2  0  0  0
  -24.8623  -28.9409   20.1252 C   0  0  0  0  0  0
  -22.7444  -29.4624   22.4989 C   0  0  0  0  0  0
  -18.0280  -28.1354   22.8493 C   0  0  0  0  0  0
  -24.1468  -36.7311   23.2645 C   0  0  0  0  0  0
  -25.9390  -30.8248   21.3694 C   0  0  0  0  0  0
  -26.0218  -29.4541   20.7228 C   0  0  0  0  0  0
  -27.2204  -28.6989   20.7144 C   0  0  0  0  0  0
  -26.0740  -26.9124   19.5268 C   0  0  0  0  0  0
  -24.8834  -27.6683   19.5234 C   0  0  0  0  0  0
  -23.6225  -29.8121   20.1676 C   0  0  0  0  0  0
  -25.4099  -36.3111   24.0327 C   0  0  1  0  0  0
  -20.5873  -28.3637   23.1314 C   0  0  2  0  0  0
  -20.6759  -26.9369   22.5414 C   0  0  0  0  0  0
  -19.5734  -26.6349   21.5211 C   0  0  0  0  0  0
  -18.1918  -26.7904   22.1619 C   0  0  0  0  0  0
  -19.1531  -28.8822   23.2892 C   0  0  0  0  0  0
  -18.9459  -30.1435   23.8890 C   0  0  0  0  0  0
  -17.6465  -30.6574   24.0551 C   0  0  0  0  0  0
  -25.9034  -34.9480   23.5117 C   0  0  0  0  0  0
  -16.5354  -29.9063   23.6339 C   0  0  0  0  0  0
  -16.7273  -28.6475   23.0364 C   0  0  0  0  0  0
  -26.4454  -31.6645   25.0744 C   0  0  0  0  0  0
  -25.3680  -31.3757   26.1466 C   0  0  0  0  0  0
  -27.0347  -30.3101   24.6168 C   0  0  0  0  0  0
  -27.6015  -32.4414   25.7492 C   0  0  0  0  0  0
  -27.5583  -37.1788   24.8460 C   0  0  0  0  0  0
  -21.4163  -29.3003   22.3730 N   0  0  0  0  0  0
  -26.4288  -37.3791   23.9411 N   0  0  0  0  0  0
  -24.6714  -31.0745   22.0994 N   0  0  0  0  0  0
  -23.4209  -28.8167   23.3048 O   0  0  0  0  0  0
  -28.4120  -26.6677   20.0757 O   0  0  0  0  0  0
  -26.5620  -34.8922   22.4698 O   0  0  0  0  0  0
  -23.5332  -32.1425   23.7431 O   0  0  0  0  0  0
  -30.4124  -18.3242   21.1283 C   0  0  0  0  0  0
  -28.8253  -18.4106   19.6695 C   0  0  0  0  0  0
  -29.9669  -17.0272   20.8994 C   0  0  0  0  0  0
  -31.6526  -16.0180   22.4605 C   0  0  0  0  0  0
  -29.2897  -15.4554   22.6963 C   0  0  0  0  0  0
  -28.7931  -22.9498   21.2386 C   0  0  0  0  0  0
  -28.5506  -21.4857   20.7362 C   0  0  0  0  0  0
  -28.6044  -24.1379   20.2414 C   0  0  0  0  0  0
  -29.8027  -20.6790   20.2743 C   0  0  0  0  0  0
  -28.4845  -25.5233   20.9540 C   0  0  0  0  0  0
  -30.3694  -15.7259   21.6345 C   0  0  0  0  0  0
  -28.9332  -17.1080   19.9593 N   0  0  0  0  0  0
  -29.6609  -19.2105   20.3513 N   0  0  0  0  0  0
  -31.4689  -12.4669   19.1140 H   0  0  0  0  0  0
  -30.3391  -11.3492   19.7908 H   0  0  0  0  0  0
  -29.7421  -11.8452   17.4157 H   0  0  0  0  0  0
  -29.6495  -13.5507   17.7688 H   0  0  0  0  0  0
  -27.8229  -11.3496   18.7739 H   0  0  0  0  0  0
  -27.3575  -12.7144   17.7880 H   0  0  0  0  0  0
  -27.7265  -14.2732   19.6334 H   0  0  0  0  0  0
  -28.7261  -11.8550   21.1850 H   0  0  0  0  0  0
  -28.4148  -13.3265   21.9379 H   0  0  0  0  0  0
  -25.2743   -9.5698   22.4786 H   0  0  0  0  0  0
  -24.0003   -7.4634   22.7475 H   0  0  0  0  0  0
  -21.0849   -8.8754   19.8949 H   0  0  0  0  0  0
  -22.3670  -10.9679   19.6186 H   0  0  0  0  0  0
  -21.2022   -7.6137   23.9635 H   0  0  0  0  0  0
  -21.1468   -6.0546   25.9037 H   0  0  0  0  0  0
  -22.0633   -2.7588   23.2845 H   0  0  0  0  0  0
  -22.4143  -11.9888   22.4801 H   0  0  0  0  0  0
  -21.1080  -13.1150   22.2521 H   0  0  0  0  0  0
  -24.6937  -15.8639   20.5380 H   0  0  0  0  0  0
  -26.3202  -15.6180   20.1457 H   0  0  0  0  0  0
  -26.7137  -32.5561   23.1176 H   0  0  0  0  0  0
  -24.9961  -33.9800   25.0417 H   0  0  0  0  0  0
  -22.6951  -31.3006   21.4080 H   0  0  0  0  0  0
  -23.3739  -35.9644   23.3322 H   0  0  0  0  0  0
  -24.3540  -36.8931   22.2063 H   0  0  0  0  0  0
  -23.7236  -37.6503   23.6680 H   0  0  0  0  0  0
  -26.0600  -31.5902   20.6009 H   0  0  0  0  0  0
  -26.8218  -30.8770   21.9942 H   0  0  0  0  0  0
  -28.1164  -29.0900   21.1759 H   0  0  0  0  0  0
  -26.0811  -25.9349   19.0656 H   0  0  0  0  0  0
  -23.9928  -27.2651   19.0601 H   0  0  0  0  0  0
  -23.7375  -30.5852   19.4081 H   0  0  0  0  0  0
  -22.7429  -29.2360   19.8704 H   0  0  0  0  0  0
  -25.1289  -36.1952   25.0826 H   0  0  0  0  0  0
  -20.9976  -28.3209   24.1420 H   0  0  0  0  0  0
  -20.5662  -26.2237   23.3596 H   0  0  0  0  0  0
  -21.6630  -26.7394   22.1210 H   0  0  0  0  0  0
  -19.6878  -25.6257   21.1235 H   0  0  0  0  0  0
  -19.6678  -27.3164   20.6759 H   0  0  0  0  0  0
  -17.4189  -26.6668   21.4018 H   0  0  0  0  0  0
  -18.0293  -26.0035   22.9003 H   0  0  0  0  0  0
  -19.7958  -30.7236   24.2230 H   0  0  0  0  0  0
  -17.5043  -31.6267   24.5123 H   0  0  0  0  0  0
  -15.5355  -30.2960   23.7676 H   0  0  0  0  0  0
  -15.8668  -28.0797   22.7075 H   0  0  0  0  0  0
  -24.5833  -30.7140   25.7768 H   0  0  0  0  0  0
  -24.8867  -32.2915   26.4913 H   0  0  0  0  0  0
  -25.7985  -30.8902   27.0230 H   0  0  0  0  0  0
  -26.2929  -29.6757   24.1310 H   0  0  0  0  0  0
  -27.4216  -29.7446   25.4645 H   0  0  0  0  0  0
  -27.8684  -30.4438   23.9277 H   0  0  0  0  0  0
  -27.2628  -33.3730   26.2037 H   0  0  0  0  0  0
  -28.3806  -32.6972   25.0296 H   0  0  0  0  0  0
  -28.0695  -31.8579   26.5416 H   0  0  0  0  0  0
  -28.2586  -38.0102   24.7567 H   0  0  0  0  0  0
  -28.1098  -36.2642   24.6236 H   0  0  0  0  0  0
  -27.2292  -37.1386   25.8855 H   0  0  0  0  0  0
  -20.9306  -29.8761   21.6978 H   0  0  0  0  0  0
  -26.0171  -38.2848   24.1463 H   0  0  0  0  0  0
  -31.1809  -18.6872   21.7976 H   0  0  0  0  0  0
  -28.1137  -18.7929   18.9511 H   0  0  0  0  0  0
  -31.4810  -16.7680   23.2347 H   0  0  0  0  0  0
  -32.4625  -16.3924   21.8311 H   0  0  0  0  0  0
  -32.0139  -15.1214   22.9657 H   0  0  0  0  0  0
  -29.2249  -16.2773   23.4083 H   0  0  0  0  0  0
  -29.5184  -14.5636   23.2809 H   0  0  0  0  0  0
  -28.2969  -15.3773   22.2541 H   0  0  0  0  0  0
  -29.7720  -23.0195   21.7166 H   0  0  0  0  0  0
  -28.0813  -23.1144   22.0503 H   0  0  0  0  0  0
  -27.7803  -21.4695   19.9636 H   0  0  0  0  0  0
  -28.1156  -20.9427   21.5774 H   0  0  0  0  0  0
  -27.7080  -23.9782   19.6410 H   0  0  0  0  0  0
  -29.4411  -24.1601   19.5419 H   0  0  0  0  0  0
  -30.6628  -20.9576   20.8849 H   0  0  0  0  0  0
  -30.0600  -20.9450   19.2482 H   0  0  0  0  0  0
  -29.3660  -25.6687   21.5816 H   0  0  0  0  0  0
  -27.6388  -25.5077   21.6448 H   0  0  0  0  0  0
  1 25  1  0  0  0
  1 30  2  0  0  0
  1 81  1  0  0  0
  2  3  1  0  0  0
  2 25  1  0  0  0
  2 84  1  0  0  0
  2 85  1  0  0  0
  3  4  1  0  0  0
  3 86  1  0  0  0
  3 87  1  0  0  0
  4  5  1  0  0  0
  4 88  1  0  0  0
  4 89  1  0  0  0
  5  6  1  0  0  0
  5 26  1  0  0  0
  5 90  1  0  0  0
  6 25  1  0  0  0
  6 91  1  0  0  0
  6 92  1  0  0  0
  7  8  2  0  0  0
  7 26  1  0  0  0
  7 29  1  0  0  0
  8  9  1  0  0  0
  8 22  1  0  0  0
  9 10  1  0  0  0
  9 27  2  0  0  0
 10 11  2  0  0  0
 10 15  1  0  0  0
 11 12  1  0  0  0
 11 93  1  0  0  0
 12 13  2  0  0  0
 12 94  1  0  0  0
 13 14  1  0  0  0
 13 31  1  0  0  0
 14 15  2  0  0  0
 14 95  1  0  0  0
 15 96  1  0  0  0
 16 17  2  0  0  0
 16 21  1  0  0  0
 16 31  1  0  0  0
 17 18  1  0  0  0
 17 97  1  0  0  0
 18 19  2  0  0  0
 18 98  1  0  0  0
 19 20  1  0  0  0
 19 24  1  0  0  0
 20 21  2  0  0  0
 20 99  1  0  0  0
 21 23  1  0  0  0
 22 28  1  0  0  0
 22 32  2  0  0  0
 26 27  1  0  0  0
 28100  1  0  0  0
 28101  1  0  0  0
 29102  1  0  0  0
 29103  1  0  0  0
 33 34  1  0  0  0
 33 66  1  0  0  0
 33 70  2  0  0  0
 34 36  1  0  0  0
 34 59  1  0  0  0
 34104  1  0  0  0
 35 44  2  0  0  0
 35 45  1  0  0  0
 35 68  1  0  0  0
 36 56  1  0  0  0
 36105  1  0  0  0
 37 39  1  0  0  0
 37 47  1  0  0  0
 37 66  1  0  0  0
 37106  1  0  0  0
 38 43  2  0  0  0
 38 46  1  0  0  0
 38 47  1  0  0  0
 39 64  1  0  0  0
 39 67  2  0  0  0
 40 52  1  0  0  0
 40 53  2  0  0  0
 40 58  1  0  0  0
 41107  1  0  0  0
 41108  1  0  0  0
 41109  1  0  0  0
 41 48  1  0  0  0
 42 43  1  0  0  0
 42 66  1  0  0  0
 42110  1  0  0  0
 42111  1  0  0  0
 43 44  1  0  0  0
 44112  1  0  0  0
 45 46  2  0  0  0
 45113  1  0  0  0
 46114  1  0  0  0
 47115  1  0  0  0
 47116  1  0  0  0
 48 56  1  0  0  0
 48 65  1  0  0  0
 48117  1  0  0  0
 49 50  1  0  0  0
 49 53  1  0  0  0
 49 64  1  0  0  0
 49118  1  0  0  0
 50 51  1  0  0  0
 50119  1  0  0  0
 50120  1  0  0  0
 51 52  1  0  0  0
 51121  1  0  0  0
 51122  1  0  0  0
 52123  1  0  0  0
 52124  1  0  0  0
 53 54  1  0  0  0
 54 55  2  0  0  0
 54125  1  0  0  0
 55 57  1  0  0  0
 55126  1  0  0  0
 56 69  2  0  0  0
 57 58  2  0  0  0
 57127  1  0  0  0
 58128  1  0  0  0
 59 60  1  0  0  0
 59 61  1  0  0  0
 59 62  1  0  0  0
 60129  1  0  0  0
 60130  1  0  0  0
 60131  1  0  0  0
 61132  1  0  0  0
 61133  1  0  0  0
 61134  1  0  0  0
 62135  1  0  0  0
 62136  1  0  0  0
 62137  1  0  0  0
 63 65  1  0  0  0
 63138  1  0  0  0
 63139  1  0  0  0
 63140  1  0  0  0
 64141  1  0  0  0
 65142  1  0  0  0
 68 80  1  0  0  0
 71 73  2  0  0  0
 71 83  1  0  0  0
 71143  1  0  0  0
 72 82  2  0  0  0
 72 83  1  0  0  0
 72144  1  0  0  0
 73 81  1  0  0  0
 73 82  1  0  0  0
 74145  1  0  0  0
 74146  1  0  0  0
 74147  1  0  0  0
 74 81  1  0  0  0
 75 81  1  0  0  0
 75148  1  0  0  0
 75149  1  0  0  0
 75150  1  0  0  0
 76 77  1  0  0  0
 76 78  1  0  0  0
 76151  1  0  0  0
 76152  1  0  0  0
 77 79  1  0  0  0
 77153  1  0  0  0
 77154  1  0  0  0
 78 80  1  0  0  0
 78155  1  0  0  0
 78156  1  0  0  0
 79 83  1  0  0  0
 79157  1  0  0  0
 79158  1  0  0  0
 80159  1  0  0  0
 80160  1  0  0  0
M  ISO  4   1 100  68 101  80 101  81 100
M  END
> <chiral flag>
0

> <version>
0

> <s_m_source_file>
/data/baiqing/PycharmProjects/Reinvent-master-3.2/result/LINK_invent/BTK/process_docking_weight1_custom_sum_contain_oxygen_bond_distance_aromatic_linkinvent_7_9_3/rearranged_h_0075.sdf

> <i_m_source_file_index>
8

> <r_mmod_Potential_Energy-OPLS-2005>
118.384544372559

> <r_mmod_Stretch_Energy-OPLS-2005>
56.4894599914551

> <r_mmod_Bend_Energy-OPLS-2005>
149.629653930664

> <r_mmod_Torsional_Energy-OPLS-2005>
220.106506347656

> <r_mmod_Improper_Torsional_Energy-OPLS-2005>
2.10677909851074

> <r_mmod_Van_der_Waal_Energy-OPLS-2005>
130.652084350586

> <r_mmod_Electrostatic_Energy-OPLS-2005>
-265.922485351562

> <r_mmod_Solvation_Energy-OPLS-2005>
-190.176208496094

> <b_mmod_Minimization_Converged-OPLS-2005>
0

> <r_mmod_RMS_Derivative-OPLS-2005>
3.43491244316101

$$$$
8
                    3D
 Structure written by MMmdl.
160168  0  0  1  0            999 V2000
  -30.7174  -14.5103   20.5979 C   0  0  0  0  0  0
  -30.4143  -12.3353   19.4442 C   0  0  0  0  0  0
  -29.4858  -12.4989   18.2218 C   0  0  0  0  0  0
  -28.0063  -12.3535   18.6260 C   0  0  0  0  0  0
  -27.6500  -13.2039   19.8718 C   0  0  2  0  0  0
  -28.6919  -12.9597   20.9842 C   0  0  0  0  0  0
  -25.2469  -13.8139   20.5569 C   0  0  0  0  0  0
  -24.1751  -13.0407   20.9146 C   0  0  0  0  0  0
  -24.6350  -11.6900   20.8751 C   0  0  0  0  0  0
  -23.9051  -10.4280   21.0438 C   0  0  0  0  0  0
  -24.3603   -9.4187   21.9201 C   0  0  0  0  0  0
  -23.6295   -8.2210   22.0752 C   0  0  0  0  0  0
  -22.4282   -8.0255   21.3541 C   0  0  0  0  0  0
  -21.9924   -9.0235   20.4650 C   0  0  0  0  0  0
  -22.7243  -10.2119   20.3076 C   0  0  0  0  0  0
  -21.6847   -6.0721   22.5278 C   0  0  0  0  0  0
  -21.3999   -6.5635   23.8210 C   0  0  0  0  0  0
  -21.3663   -5.6790   24.9170 C   0  0  0  0  0  0
  -21.6059   -4.3057   24.7229 C   0  0  0  0  0  0
  -21.8819   -3.8142   23.4352 C   0  0  0  0  0  0
  -21.9192   -4.6948   22.3405 C   0  0  0  0  0  0
  -22.7793  -13.5208   21.1854 C   0  0  0  0  0  0
  -22.1655   -4.2137   21.0980 F   0  0  0  0  0  0
  -21.5645   -3.4540   25.7739 F   0  0  0  0  0  0
  -30.0135  -13.3364   20.4639 N   0  0  0  0  0  0
  -26.2943  -12.9330   20.3372 N   0  0  0  0  0  0
  -25.9276  -11.6499   20.5808 N   0  0  0  0  0  0
  -22.0475  -12.8193   22.0458 N   0  0  0  0  0  0
  -25.4111  -15.1833   20.3870 N   0  0  0  0  0  0
  -31.8264  -14.5780   20.0532 O   0  0  0  0  0  0
  -21.6645   -6.8851   21.4243 O   0  0  0  0  0  0
  -22.3468  -14.5520   20.6747 O   0  0  0  0  0  0
  -24.6146  -31.8656   23.2062 C   0  0  0  0  0  0
  -25.9040  -32.4805   23.8358 C   0  0  1  0  0  0
  -27.2402  -27.4214   20.0881 C   0  0  0  0  0  0
  -25.5888  -33.8595   24.2286 N   0  0  0  0  0  0
  -23.4020  -30.4847   21.5476 C   0  0  2  0  0  0
  -24.8494  -28.9446   20.1126 C   0  0  0  0  0  0
  -22.7410  -29.4641   22.5006 C   0  0  0  0  0  0
  -18.0281  -28.1356   22.8491 C   0  0  0  0  0  0
  -24.1494  -36.7320   23.2632 C   0  0  0  0  0  0
  -25.9299  -30.8239   21.3599 C   0  0  0  0  0  0
  -26.0059  -29.4557   20.7104 C   0  0  0  0  0  0
  -27.1998  -28.6999   20.6984 C   0  0  0  0  0  0
  -26.0633  -26.9248   19.4844 C   0  0  0  0  0  0
  -24.8729  -27.6796   19.4979 C   0  0  0  0  0  0
  -23.6098  -29.8098   20.1644 C   0  0  0  0  0  0
  -25.4115  -36.3099   24.0322 C   0  0  1  0  0  0
  -20.5867  -28.3640   23.1334 C   0  0  2  0  0  0
  -20.6783  -26.9380   22.5426 C   0  0  0  0  0  0
  -19.5774  -26.6372   21.5216 C   0  0  0  0  0  0
  -18.1948  -26.7904   22.1623 C   0  0  0  0  0  0
  -19.1526  -28.8814   23.2904 C   0  0  0  0  0  0
  -18.9456  -30.1423   23.8905 C   0  0  0  0  0  0
  -17.6461  -30.6563   24.0557 C   0  0  0  0  0  0
  -25.9036  -34.9469   23.5108 C   0  0  0  0  0  0
  -16.5352  -29.9063   23.6318 C   0  0  0  0  0  0
  -16.7271  -28.6485   23.0335 C   0  0  0  0  0  0
  -26.4470  -31.6588   25.0690 C   0  0  0  0  0  0
  -25.3729  -31.3707   26.1433 C   0  0  0  0  0  0
  -27.0284  -30.3023   24.6066 C   0  0  0  0  0  0
  -27.6038  -32.4317   25.7463 C   0  0  0  0  0  0
  -27.5589  -37.1811   24.8464 C   0  0  0  0  0  0
  -21.4140  -29.3018   22.3749 N   0  0  0  0  0  0
  -26.4309  -37.3785   23.9403 N   0  0  0  0  0  0
  -24.6664  -31.0742   22.0955 N   0  0  0  0  0  0
  -23.4180  -28.8183   23.3051 O   0  0  0  0  0  0
  -28.4327  -26.7217   20.1203 O   0  0  0  0  0  0
  -26.5615  -34.8935   22.4675 O   0  0  0  0  0  0
  -23.5347  -32.1410   23.7457 O   0  0  0  0  0  0
  -30.4282  -20.2974   20.8276 C   0  0  0  0  0  0
  -28.6611  -19.0957   20.3535 C   0  0  0  0  0  0
  -29.0224  -20.3968   20.6117 C   0  0  0  0  0  0
  -31.4991  -16.3679   22.0882 C   0  0  0  0  0  0
  -28.1542  -21.6465   20.6885 C   0  0  0  0  0  0
  -28.7675  -22.8905   19.9917 C   0  0  0  0  0  0
  -28.0485  -24.2313   20.3065 C   0  0  0  0  0  0
  -29.9597  -16.8776   20.0898 C   0  0  0  0  0  0
  -28.5855  -25.4384   19.4887 C   0  0  0  0  0  0
  -30.2660  -15.8777   21.2707 C   0  0  2  0  0  0
  -29.0772  -15.8886   22.2752 C   0  0  0  0  0  0
  -30.8887  -19.0644   20.6701 N   0  0  0  0  0  0
  -29.8005  -18.3063   20.4034 N   0  0  0  0  0  0
  -27.9210  -15.6337   21.6708 F   0  0  0  0  0  0
  -29.2723  -15.0224   23.2717 F   0  0  0  0  0  0
  -28.9260  -17.0865   22.8443 F   0  0  0  0  0  0
  -31.4514  -12.4263   19.1225 H   0  0  0  0  0  0
  -30.3410  -11.3252   19.8524 H   0  0  0  0  0  0
  -29.7347  -11.7545   17.4640 H   0  0  0  0  0  0
  -29.6444  -13.4778   17.7676 H   0  0  0  0  0  0
  -27.8261  -11.2979   18.8346 H   0  0  0  0  0  0
  -27.3562  -12.6118   17.7906 H   0  0  0  0  0  0
  -27.6969  -14.2496   19.5712 H   0  0  0  0  0  0
  -28.6937  -11.8989   21.2397 H   0  0  0  0  0  0
  -28.4158  -13.4218   21.9189 H   0  0  0  0  0  0
  -25.2745   -9.5656   22.4768 H   0  0  0  0  0  0
  -24.0001   -7.4603   22.7465 H   0  0  0  0  0  0
  -21.0862   -8.8776   19.8947 H   0  0  0  0  0  0
  -22.3725  -10.9654   19.6172 H   0  0  0  0  0  0
  -21.1967   -7.6135   23.9715 H   0  0  0  0  0  0
  -21.1501   -6.0505   25.9075 H   0  0  0  0  0  0
  -22.0603   -2.7607   23.2849 H   0  0  0  0  0  0
  -22.4115  -11.9828   22.4763 H   0  0  0  0  0  0
  -21.1094  -13.1188   22.2732 H   0  0  0  0  0  0
  -24.6605  -15.8446   20.5465 H   0  0  0  0  0  0
  -26.3134  -15.6238   20.2644 H   0  0  0  0  0  0
  -26.7105  -32.5520   23.1110 H   0  0  0  0  0  0
  -25.0009  -33.9764   25.0414 H   0  0  0  0  0  0
  -22.6899  -31.2998   21.4051 H   0  0  0  0  0  0
  -23.3749  -35.9667   23.3306 H   0  0  0  0  0  0
  -24.3580  -36.8933   22.2049 H   0  0  0  0  0  0
  -23.7276  -37.6534   23.6647 H   0  0  0  0  0  0
  -26.0416  -31.5851   20.5862 H   0  0  0  0  0  0
  -26.8194  -30.8812   21.9757 H   0  0  0  0  0  0
  -28.0941  -29.0940   21.1600 H   0  0  0  0  0  0
  -26.0451  -25.9581   19.0027 H   0  0  0  0  0  0
  -23.9832  -27.2823   19.0302 H   0  0  0  0  0  0
  -23.7158  -30.5789   19.3993 H   0  0  0  0  0  0
  -22.7360  -29.2240   19.8749 H   0  0  0  0  0  0
  -25.1302  -36.1947   25.0820 H   0  0  0  0  0  0
  -20.9940  -28.3204   24.1460 H   0  0  0  0  0  0
  -20.5686  -26.2246   23.3606 H   0  0  0  0  0  0
  -21.6658  -26.7438   22.1223 H   0  0  0  0  0  0
  -19.6934  -25.6284   21.1238 H   0  0  0  0  0  0
  -19.6712  -27.3194   20.6756 H   0  0  0  0  0  0
  -17.4218  -26.6640   21.4023 H   0  0  0  0  0  0
  -18.0347  -26.0039   22.9019 H   0  0  0  0  0  0
  -19.7927  -30.7238   24.2286 H   0  0  0  0  0  0
  -17.5007  -31.6241   24.5155 H   0  0  0  0  0  0
  -15.5350  -30.2962   23.7639 H   0  0  0  0  0  0
  -15.8676  -28.0808   22.7038 H   0  0  0  0  0  0
  -24.5898  -30.7055   25.7771 H   0  0  0  0  0  0
  -24.8921  -32.2866   26.4882 H   0  0  0  0  0  0
  -25.8076  -30.8872   27.0185 H   0  0  0  0  0  0
  -26.2800  -29.6793   24.1138 H   0  0  0  0  0  0
  -27.4063  -29.7265   25.4527 H   0  0  0  0  0  0
  -27.8646  -30.4347   23.9191 H   0  0  0  0  0  0
  -27.2631  -33.3598   26.2079 H   0  0  0  0  0  0
  -28.3826  -32.6910   25.0274 H   0  0  0  0  0  0
  -28.0717  -31.8406   26.5351 H   0  0  0  0  0  0
  -28.2609  -38.0105   24.7493 H   0  0  0  0  0  0
  -28.1081  -36.2628   24.6301 H   0  0  0  0  0  0
  -27.2296  -37.1480   25.8866 H   0  0  0  0  0  0
  -20.9294  -29.8732   21.6965 H   0  0  0  0  0  0
  -26.0187  -38.2868   24.1379 H   0  0  0  0  0  0
  -31.1255  -21.0852   21.0793 H   0  0  0  0  0  0
  -27.6923  -18.6680   20.1267 H   0  0  0  0  0  0
  -31.8285  -15.6126   22.8026 H   0  0  0  0  0  0
  -31.2829  -17.2675   22.6631 H   0  0  0  0  0  0
  -32.3485  -16.6124   21.4488 H   0  0  0  0  0  0
  -27.9629  -21.8887   21.7344 H   0  0  0  0  0  0
  -27.1685  -21.4570   20.2589 H   0  0  0  0  0  0
  -29.8054  -23.0000   20.3098 H   0  0  0  0  0  0
  -28.7978  -22.7170   18.9149 H   0  0  0  0  0  0
  -28.1734  -24.4411   21.3678 H   0  0  0  0  0  0
  -26.9759  -24.1239   20.1467 H   0  0  0  0  0  0
  -30.7400  -16.8177   19.3280 H   0  0  0  0  0  0
  -29.0500  -16.5542   19.5828 H   0  0  0  0  0  0
  -28.1875  -25.4421   18.4724 H   0  0  0  0  0  0
  -29.6637  -25.3110   19.3748 H   0  0  0  0  0  0
  1 25  1  0  0  0
  1 30  2  0  0  0
  1 80  1  0  0  0
  2  3  1  0  0  0
  2 25  1  0  0  0
  2 87  1  0  0  0
  2 88  1  0  0  0
  3  4  1  0  0  0
  3 89  1  0  0  0
  3 90  1  0  0  0
  4  5  1  0  0  0
  4 91  1  0  0  0
  4 92  1  0  0  0
  5  6  1  0  0  0
  5 26  1  0  0  0
  5 93  1  0  0  0
  6 25  1  0  0  0
  6 94  1  0  0  0
  6 95  1  0  0  0
  7  8  2  0  0  0
  7 26  1  0  0  0
  7 29  1  0  0  0
  8  9  1  0  0  0
  8 22  1  0  0  0
  9 10  1  0  0  0
  9 27  2  0  0  0
 10 11  2  0  0  0
 10 15  1  0  0  0
 11 12  1  0  0  0
 11 96  1  0  0  0
 12 13  2  0  0  0
 12 97  1  0  0  0
 13 14  1  0  0  0
 13 31  1  0  0  0
 14 15  2  0  0  0
 14 98  1  0  0  0
 15 99  1  0  0  0
 16 17  2  0  0  0
 16 21  1  0  0  0
 16 31  1  0  0  0
 17 18  1  0  0  0
 17100  1  0  0  0
 18 19  2  0  0  0
 18101  1  0  0  0
 19 20  1  0  0  0
 19 24  1  0  0  0
 20 21  2  0  0  0
 20102  1  0  0  0
 21 23  1  0  0  0
 22 28  1  0  0  0
 22 32  2  0  0  0
 26 27  1  0  0  0
 28103  1  0  0  0
 28104  1  0  0  0
 29105  1  0  0  0
 29106  1  0  0  0
 33 34  1  0  0  0
 33 66  1  0  0  0
 33 70  2  0  0  0
 34 36  1  0  0  0
 34 59  1  0  0  0
 34107  1  0  0  0
 35 44  2  0  0  0
 35 45  1  0  0  0
 35 68  1  0  0  0
 36 56  1  0  0  0
 36108  1  0  0  0
 37 39  1  0  0  0
 37 47  1  0  0  0
 37 66  1  0  0  0
 37109  1  0  0  0
 38 43  2  0  0  0
 38 46  1  0  0  0
 38 47  1  0  0  0
 39 64  1  0  0  0
 39 67  2  0  0  0
 40 52  1  0  0  0
 40 53  2  0  0  0
 40 58  1  0  0  0
 41110  1  0  0  0
 41111  1  0  0  0
 41112  1  0  0  0
 41 48  1  0  0  0
 42 43  1  0  0  0
 42 66  1  0  0  0
 42113  1  0  0  0
 42114  1  0  0  0
 43 44  1  0  0  0
 44115  1  0  0  0
 45 46  2  0  0  0
 45116  1  0  0  0
 46117  1  0  0  0
 47118  1  0  0  0
 47119  1  0  0  0
 48 56  1  0  0  0
 48 65  1  0  0  0
 48120  1  0  0  0
 49 50  1  0  0  0
 49 53  1  0  0  0
 49 64  1  0  0  0
 49121  1  0  0  0
 50 51  1  0  0  0
 50122  1  0  0  0
 50123  1  0  0  0
 51 52  1  0  0  0
 51124  1  0  0  0
 51125  1  0  0  0
 52126  1  0  0  0
 52127  1  0  0  0
 53 54  1  0  0  0
 54 55  2  0  0  0
 54128  1  0  0  0
 55 57  1  0  0  0
 55129  1  0  0  0
 56 69  2  0  0  0
 57 58  2  0  0  0
 57130  1  0  0  0
 58131  1  0  0  0
 59 60  1  0  0  0
 59 61  1  0  0  0
 59 62  1  0  0  0
 60132  1  0  0  0
 60133  1  0  0  0
 60134  1  0  0  0
 61135  1  0  0  0
 61136  1  0  0  0
 61137  1  0  0  0
 62138  1  0  0  0
 62139  1  0  0  0
 62140  1  0  0  0
 63 65  1  0  0  0
 63141  1  0  0  0
 63142  1  0  0  0
 63143  1  0  0  0
 64144  1  0  0  0
 65145  1  0  0  0
 68 79  1  0  0  0
 71 73  1  0  0  0
 71 82  2  0  0  0
 71146  1  0  0  0
 72 73  2  0  0  0
 72 83  1  0  0  0
 72147  1  0  0  0
 73 75  1  0  0  0
 74148  1  0  0  0
 74149  1  0  0  0
 74150  1  0  0  0
 74 80  1  0  0  0
 75 76  1  0  0  0
 75151  1  0  0  0
 75152  1  0  0  0
 76 77  1  0  0  0
 76153  1  0  0  0
 76154  1  0  0  0
 77 79  1  0  0  0
 77155  1  0  0  0
 77156  1  0  0  0
 78 80  1  0  0  0
 78 83  1  0  0  0
 78157  1  0  0  0
 78158  1  0  0  0
 79159  1  0  0  0
 79160  1  0  0  0
 80 81  1  0  0  0
 81 84  1  0  0  0
 81 85  1  0  0  0
 81 86  1  0  0  0
 82 83  1  0  0  0
M  ISO  4   1 100  68 101  79 101  80 100
M  END
> <chiral flag>
0

> <version>
0

> <s_m_source_file>
/data/baiqing/PycharmProjects/Reinvent-master-3.2/result/LINK_invent/BTK/process_docking_weight1_custom_sum_contain_oxygen_bond_distance_aromatic_linkinvent_7_9_3/rearranged_h_0075.sdf

> <i_m_source_file_index>
9

> <r_mmod_Potential_Energy-OPLS-2005>
15.9057426452637

> <r_mmod_Stretch_Energy-OPLS-2005>
48.3206062316895

> <r_mmod_Bend_Energy-OPLS-2005>
153.012939453125

> <r_mmod_Torsional_Energy-OPLS-2005>
172.826187133789

> <r_mmod_Improper_Torsional_Energy-OPLS-2005>
3.09378147125244

> <r_mmod_Van_der_Waal_Energy-OPLS-2005>
143.460144042969

> <r_mmod_Electrostatic_Energy-OPLS-2005>
-329.092041015625

> <r_mmod_Solvation_Energy-OPLS-2005>
-192.4150390625

> <b_mmod_Minimization_Converged-OPLS-2005>
0

> <r_mmod_RMS_Derivative-OPLS-2005>
2.87568664550781

$$$$
9
                    3D
 Structure written by MMmdl.
169177  0  0  1  0            999 V2000
  -30.6647  -14.7524   20.4067 C   0  0  0  0  0  0
  -30.4192  -12.4469   19.4861 C   0  0  0  0  0  0
  -29.5087  -12.4895   18.2429 C   0  0  0  0  0  0
  -28.0362  -12.3160   18.6593 C   0  0  0  0  0  0
  -27.6331  -13.2332   19.8476 C   0  0  2  0  0  0
  -28.6877  -13.2207   20.9785 C   0  0  0  0  0  0
  -25.2336  -13.7987   20.5653 C   0  0  0  0  0  0
  -24.1690  -13.0262   20.9239 C   0  0  0  0  0  0
  -24.6382  -11.6809   20.8764 C   0  0  0  0  0  0
  -23.9064  -10.4213   21.0397 C   0  0  0  0  0  0
  -24.3613   -9.4151   21.9180 C   0  0  0  0  0  0
  -23.6277   -8.2198   22.0767 C   0  0  0  0  0  0
  -22.4262   -8.0254   21.3550 C   0  0  0  0  0  0
  -21.9910   -9.0204   20.4625 C   0  0  0  0  0  0
  -22.7248  -10.2064   20.3021 C   0  0  0  0  0  0
  -21.6820   -6.0738   22.5282 C   0  0  0  0  0  0
  -21.3983   -6.5641   23.8214 C   0  0  0  0  0  0
  -21.3682   -5.6791   24.9179 C   0  0  0  0  0  0
  -21.6060   -4.3052   24.7189 C   0  0  0  0  0  0
  -21.8807   -3.8142   23.4301 C   0  0  0  0  0  0
  -21.9178   -4.6977   22.3377 C   0  0  0  0  0  0
  -22.7721  -13.5087   21.1881 C   0  0  0  0  0  0
  -22.1666   -4.2183   21.0944 F   0  0  0  0  0  0
  -21.5645   -3.4528   25.7689 F   0  0  0  0  0  0
  -29.9869  -13.5500   20.3767 N   0  0  0  0  0  0
  -26.2894  -12.9336   20.3340 N   0  0  0  0  0  0
  -25.9343  -11.6481   20.5853 N   0  0  0  0  0  0
  -22.0369  -12.8125   22.0494 N   0  0  0  0  0  0
  -25.3599  -15.1632   20.3963 N   0  0  0  0  0  0
  -31.8715  -14.7614   20.1613 O   0  0  0  0  0  0
  -21.6611   -6.8873   21.4247 O   0  0  0  0  0  0
  -22.3431  -14.5405   20.6728 O   0  0  0  0  0  0
  -24.6291  -31.8576   23.2018 C   0  0  0  0  0  0
  -25.9134  -32.4787   23.8343 C   0  0  1  0  0  0
  -27.2314  -27.2812   20.0966 C   0  0  0  0  0  0
  -25.5933  -33.8584   24.2278 N   0  0  0  0  0  0
  -23.4244  -30.4813   21.5474 C   0  0  2  0  0  0
  -24.8688  -28.9291   20.1145 C   0  0  0  0  0  0
  -22.7502  -29.4606   22.4961 C   0  0  0  0  0  0
  -18.0295  -28.1372   22.8515 C   0  0  0  0  0  0
  -24.1477  -36.7263   23.2643 C   0  0  0  0  0  0
  -25.9739  -30.7677   21.3867 C   0  0  0  0  0  0
  -26.0417  -29.3944   20.7203 C   0  0  0  0  0  0
  -27.2193  -28.5809   20.7047 C   0  0  0  0  0  0
  -26.0268  -26.8777   19.4696 C   0  0  0  0  0  0
  -24.8651  -27.6750   19.4860 C   0  0  0  0  0  0
  -23.6412  -29.8168   20.1630 C   0  0  0  0  0  0
  -25.4118  -36.3097   24.0332 C   0  0  1  0  0  0
  -20.5907  -28.3665   23.1304 C   0  0  2  0  0  0
  -20.6809  -26.9446   22.5313 C   0  0  0  0  0  0
  -19.5766  -26.6530   21.5080 C   0  0  0  0  0  0
  -18.1949  -26.7979   22.1523 C   0  0  0  0  0  0
  -19.1556  -28.8822   23.2932 C   0  0  0  0  0  0
  -18.9468  -30.1419   23.8996 C   0  0  0  0  0  0
  -17.6465  -30.6558   24.0631 C   0  0  0  0  0  0
  -25.9052  -34.9466   23.5110 C   0  0  0  0  0  0
  -16.5358  -29.9084   23.6346 C   0  0  0  0  0  0
  -16.7289  -28.6495   23.0387 C   0  0  0  0  0  0
  -26.4497  -31.6635   25.0738 C   0  0  0  0  0  0
  -25.3713  -31.3797   26.1453 C   0  0  0  0  0  0
  -27.0381  -30.3061   24.6262 C   0  0  0  0  0  0
  -27.6042  -32.4405   25.7505 C   0  0  0  0  0  0
  -27.5573  -37.1798   24.8473 C   0  0  0  0  0  0
  -21.4202  -29.3087   22.3773 N   0  0  0  0  0  0
  -26.4284  -37.3798   23.9412 N   0  0  0  0  0  0
  -24.6951  -31.0522   22.1009 N   0  0  0  0  0  0
  -23.4230  -28.8090   23.2990 O   0  0  0  0  0  0
  -28.3642  -26.4328   20.1764 O   0  0  0  0  0  0
  -26.5611  -34.8935   22.4674 O   0  0  0  0  0  0
  -23.5451  -32.1394   23.7317 O   0  0  0  0  0  0
  -28.1866  -20.4177   20.3743 C   0  0  0  0  0  0
  -29.3829  -21.0363   20.1417 C   0  0  0  0  0  0
  -29.6781  -18.7175   20.2258 C   0  0  0  0  0  0
  -30.9257  -17.3001   18.5195 C   0  0  0  0  0  0
  -29.3234  -25.3093   18.2921 C   0  0  0  0  0  0
  -25.8496  -18.7917   20.4393 C   0  0  0  0  0  0
  -27.3215  -17.1715   21.6181 C   0  0  0  0  0  0
  -27.2278  -17.3136   19.0065 C   0  0  0  0  0  0
  -29.6949  -22.5291   19.7566 C   0  0  0  0  0  0
  -28.9515  -23.8018   20.4317 C   0  0  0  0  0  0
  -30.4876  -17.3450   20.0020 C   0  0  2  0  0  0
  -28.4661  -25.0750   19.5466 C   0  0  1  0  0  0
  -27.2253  -18.0701   20.3602 C   0  0  0  0  0  0
  -28.3575  -19.0341   20.3522 N   0  0  0  0  0  0
  -30.2714  -19.9484   20.1111 N   0  3  0  0  0  0
  -29.9656  -15.9567   20.4275 N   0  0  0  0  0  0
  -31.4648  -12.5306   19.1866 H   0  0  0  0  0  0
  -30.3269  -11.4858   19.9956 H   0  0  0  0  0  0
  -29.7992  -11.7113   17.5361 H   0  0  0  0  0  0
  -29.6362  -13.4399   17.7242 H   0  0  0  0  0  0
  -27.9117  -11.2704   18.9459 H   0  0  0  0  0  0
  -27.3757  -12.4743   17.8070 H   0  0  0  0  0  0
  -27.6039  -14.2446   19.4461 H   0  0  0  0  0  0
  -28.7269  -12.2442   21.4648 H   0  0  0  0  0  0
  -28.4303  -13.9410   21.7561 H   0  0  0  0  0  0
  -25.2759   -9.5645   22.4741 H   0  0  0  0  0  0
  -23.9980   -7.4598   22.7509 H   0  0  0  0  0  0
  -21.0836   -8.8711   19.8925 H   0  0  0  0  0  0
  -22.3734  -10.9587   19.6094 H   0  0  0  0  0  0
  -21.1952   -7.6144   23.9736 H   0  0  0  0  0  0
  -21.1569   -6.0509   25.9105 H   0  0  0  0  0  0
  -22.0576   -2.7611   23.2750 H   0  0  0  0  0  0
  -22.4028  -11.9849   22.4941 H   0  0  0  0  0  0
  -21.1023  -13.1207   22.2755 H   0  0  0  0  0  0
  -24.5577  -15.7701   20.5122 H   0  0  0  0  0  0
  -26.1939  -15.6596   20.1216 H   0  0  0  0  0  0
  -26.7205  -32.5413   23.1085 H   0  0  0  0  0  0
  -25.0176  -33.9748   25.0486 H   0  0  0  0  0  0
  -22.7212  -31.3046   21.4044 H   0  0  0  0  0  0
  -23.3776  -35.9553   23.3318 H   0  0  0  0  0  0
  -24.3566  -36.8853   22.2053 H   0  0  0  0  0  0
  -23.7174  -37.6445   23.6653 H   0  0  0  0  0  0
  -26.1323  -31.5344   20.6285 H   0  0  0  0  0  0
  -26.8445  -30.7989   22.0301 H   0  0  0  0  0  0
  -28.1194  -28.9352   21.1894 H   0  0  0  0  0  0
  -25.9214  -25.9315   18.9682 H   0  0  0  0  0  0
  -23.9660  -27.3082   19.0101 H   0  0  0  0  0  0
  -23.7716  -30.5962   19.4106 H   0  0  0  0  0  0
  -22.7581  -29.2549   19.8546 H   0  0  0  0  0  0
  -25.1311  -36.1947   25.0820 H   0  0  0  0  0  0
  -21.0016  -28.3162   24.1412 H   0  0  0  0  0  0
  -20.5711  -26.2227   23.3411 H   0  0  0  0  0  0
  -21.6696  -26.7530   22.1105 H   0  0  0  0  0  0
  -19.6936  -25.6537   21.0886 H   0  0  0  0  0  0
  -19.6626  -27.3523   20.6737 H   0  0  0  0  0  0
  -17.4245  -26.6876   21.3869 H   0  0  0  0  0  0
  -18.0314  -25.9992   22.8782 H   0  0  0  0  0  0
  -19.7928  -30.7239   24.2434 H   0  0  0  0  0  0
  -17.5004  -31.6223   24.5259 H   0  0  0  0  0  0
  -15.5364  -30.3003   23.7616 H   0  0  0  0  0  0
  -15.8713  -28.0801   22.7078 H   0  0  0  0  0  0
  -24.5847  -30.7210   25.7751 H   0  0  0  0  0  0
  -24.8957  -32.2987   26.4895 H   0  0  0  0  0  0
  -25.7984  -30.8924   27.0227 H   0  0  0  0  0  0
  -26.2987  -29.6791   24.1267 H   0  0  0  0  0  0
  -27.4055  -29.7342   25.4793 H   0  0  0  0  0  0
  -27.8873  -30.4365   23.9550 H   0  0  0  0  0  0
  -27.2639  -33.3715   26.2067 H   0  0  0  0  0  0
  -28.3850  -32.6967   25.0328 H   0  0  0  0  0  0
  -28.0740  -31.8562   26.5435 H   0  0  0  0  0  0
  -28.2627  -38.0069   24.7552 H   0  0  0  0  0  0
  -28.1043  -36.2614   24.6296 H   0  0  0  0  0  0
  -27.2295  -37.1442   25.8875 H   0  0  0  0  0  0
  -20.9357  -29.8955   21.7130 H   0  0  0  0  0  0
  -26.0172  -38.2861   24.1440 H   0  0  0  0  0  0
  -27.2159  -20.8853   20.4410 H   0  0  0  0  0  0
  -31.3984  -18.2351   18.2188 H   0  0  0  0  0  0
  -30.0740  -17.1420   17.8585 H   0  0  0  0  0  0
  -31.6486  -16.5096   18.3199 H   0  0  0  0  0  0
  -29.2676  -24.4685   17.6018 H   0  0  0  0  0  0
  -30.3709  -25.4773   18.5394 H   0  0  0  0  0  0
  -28.9693  -26.1786   17.7380 H   0  0  0  0  0  0
  -25.0240  -18.0788   20.4550 H   0  0  0  0  0  0
  -25.6703  -19.4384   19.5798 H   0  0  0  0  0  0
  -25.7515  -19.3903   21.3455 H   0  0  0  0  0  0
  -26.3513  -17.0241   22.0956 H   0  0  0  0  0  0
  -27.9631  -17.6075   22.3868 H   0  0  0  0  0  0
  -27.6827  -16.1716   21.4062 H   0  0  0  0  0  0
  -26.2545  -16.9011   18.7438 H   0  0  0  0  0  0
  -27.9407  -16.4982   18.9569 H   0  0  0  0  0  0
  -27.4860  -17.9921   18.1912 H   0  0  0  0  0  0
  -29.5172  -22.5728   18.6842 H   0  0  0  0  0  0
  -30.7696  -22.6859   19.8499 H   0  0  0  0  0  0
  -29.6051  -24.1760   21.2216 H   0  0  0  0  0  0
  -28.0776  -23.4326   20.9674 H   0  0  0  0  0  0
  -31.3940  -17.4980   20.5897 H   0  0  0  0  0  0
  -27.5067  -24.7532   19.1620 H   0  0  0  0  0  0
  -31.2664  -20.0547   19.9468 H   0  0  0  0  0  0
  -28.9783  -15.8919   20.6125 H   0  0  0  0  0  0
  1 25  1  0  0  0
  1 30  2  0  0  0
  1 86  1  0  0  0
  2  3  1  0  0  0
  2 25  1  0  0  0
  2 87  1  0  0  0
  2 88  1  0  0  0
  3  4  1  0  0  0
  3 89  1  0  0  0
  3 90  1  0  0  0
  4  5  1  0  0  0
  4 91  1  0  0  0
  4 92  1  0  0  0
  5  6  1  0  0  0
  5 26  1  0  0  0
  5 93  1  0  0  0
  6 25  1  0  0  0
  6 94  1  0  0  0
  6 95  1  0  0  0
  7  8  2  0  0  0
  7 26  1  0  0  0
  7 29  1  0  0  0
  8  9  1  0  0  0
  8 22  1  0  0  0
  9 10  1  0  0  0
  9 27  2  0  0  0
 10 11  2  0  0  0
 10 15  1  0  0  0
 11 12  1  0  0  0
 11 96  1  0  0  0
 12 13  2  0  0  0
 12 97  1  0  0  0
 13 14  1  0  0  0
 13 31  1  0  0  0
 14 15  2  0  0  0
 14 98  1  0  0  0
 15 99  1  0  0  0
 16 17  2  0  0  0
 16 21  1  0  0  0
 16 31  1  0  0  0
 17 18  1  0  0  0
 17100  1  0  0  0
 18 19  2  0  0  0
 18101  1  0  0  0
 19 20  1  0  0  0
 19 24  1  0  0  0
 20 21  2  0  0  0
 20102  1  0  0  0
 21 23  1  0  0  0
 22 28  1  0  0  0
 22 32  2  0  0  0
 26 27  1  0  0  0
 28103  1  0  0  0
 28104  1  0  0  0
 29105  1  0  0  0
 29106  1  0  0  0
 33 34  1  0  0  0
 33 66  1  0  0  0
 33 70  2  0  0  0
 34 36  1  0  0  0
 34 59  1  0  0  0
 34107  1  0  0  0
 35 44  2  0  0  0
 35 45  1  0  0  0
 35 68  1  0  0  0
 36 56  1  0  0  0
 36108  1  0  0  0
 37 39  1  0  0  0
 37 47  1  0  0  0
 37 66  1  0  0  0
 37109  1  0  0  0
 38 43  2  0  0  0
 38 46  1  0  0  0
 38 47  1  0  0  0
 39 64  1  0  0  0
 39 67  2  0  0  0
 40 52  1  0  0  0
 40 53  2  0  0  0
 40 58  1  0  0  0
 41110  1  0  0  0
 41111  1  0  0  0
 41112  1  0  0  0
 41 48  1  0  0  0
 42 43  1  0  0  0
 42 66  1  0  0  0
 42113  1  0  0  0
 42114  1  0  0  0
 43 44  1  0  0  0
 44115  1  0  0  0
 45 46  2  0  0  0
 45116  1  0  0  0
 46117  1  0  0  0
 47118  1  0  0  0
 47119  1  0  0  0
 48 56  1  0  0  0
 48 65  1  0  0  0
 48120  1  0  0  0
 49 50  1  0  0  0
 49 53  1  0  0  0
 49 64  1  0  0  0
 49121  1  0  0  0
 50 51  1  0  0  0
 50122  1  0  0  0
 50123  1  0  0  0
 51 52  1  0  0  0
 51124  1  0  0  0
 51125  1  0  0  0
 52126  1  0  0  0
 52127  1  0  0  0
 53 54  1  0  0  0
 54 55  2  0  0  0
 54128  1  0  0  0
 55 57  1  0  0  0
 55129  1  0  0  0
 56 69  2  0  0  0
 57 58  2  0  0  0
 57130  1  0  0  0
 58131  1  0  0  0
 59 60  1  0  0  0
 59 61  1  0  0  0
 59 62  1  0  0  0
 60132  1  0  0  0
 60133  1  0  0  0
 60134  1  0  0  0
 61135  1  0  0  0
 61136  1  0  0  0
 61137  1  0  0  0
 62138  1  0  0  0
 62139  1  0  0  0
 62140  1  0  0  0
 63 65  1  0  0  0
 63141  1  0  0  0
 63142  1  0  0  0
 63143  1  0  0  0
 64144  1  0  0  0
 65145  1  0  0  0
 68 82  1  0  0  0
 71 72  2  0  0  0
 71 84  1  0  0  0
 71146  1  0  0  0
 72 79  1  0  0  0
 72 85  1  0  0  0
 73 81  1  0  0  0
 73 84  1  0  0  0
 73 85  2  0  0  0
 74147  1  0  0  0
 74148  1  0  0  0
 74149  1  0  0  0
 74 81  1  0  0  0
 75150  1  0  0  0
 75151  1  0  0  0
 75152  1  0  0  0
 75 82  1  0  0  0
 76153  1  0  0  0
 76154  1  0  0  0
 76155  1  0  0  0
 76 83  1  0  0  0
 77 83  1  0  0  0
 77156  1  0  0  0
 77157  1  0  0  0
 77158  1  0  0  0
 78 83  1  0  0  0
 78159  1  0  0  0
 78160  1  0  0  0
 78161  1  0  0  0
 79 80  1  0  0  0
 79162  1  0  0  0
 79163  1  0  0  0
 80 82  1  0  0  0
 80164  1  0  0  0
 80165  1  0  0  0
 81 86  1  0  0  0
 81166  1  0  0  0
 82167  1  0  0  0
 83 84  1  0  0  0
 85168  1  0  0  0
 86169  1  0  0  0
M  CHG  1  85   1
M  ISO  4   1 100  68 101  82 101  86 100
M  END
> <chiral flag>
0

> <version>
0

> <s_m_source_file>
/data/baiqing/PycharmProjects/Reinvent-master-3.2/result/LINK_invent/BTK/process_docking_weight1_custom_sum_contain_oxygen_bond_distance_aromatic_linkinvent_7_9_3/rearranged_h_0075.sdf

> <i_m_source_file_index>
10

> <r_mmod_Potential_Energy-OPLS-2005>
189.030868530273

> <r_mmod_Stretch_Energy-OPLS-2005>
131.393508911133

> <r_mmod_Bend_Energy-OPLS-2005>
218.231384277344

> <r_mmod_Torsional_Energy-OPLS-2005>
281.408843994141

> <r_mmod_Improper_Torsional_Energy-OPLS-2005>
8.77772426605225

> <r_mmod_Van_der_Waal_Energy-OPLS-2005>
130.585556030273

> <r_mmod_Electrostatic_Energy-OPLS-2005>
-259.73828125

> <r_mmod_Solvation_Energy-OPLS-2005>
-407.371185302734

> <b_mmod_Minimization_Converged-OPLS-2005>
0

> <r_mmod_RMS_Derivative-OPLS-2005>
3.954017162323

$$$$
10
                    3D
 Structure written by MMmdl.
151159  0  0  1  0            999 V2000
  -30.4410  -15.3365   20.2884 C   0  0  0  0  0  0
  -30.4404  -12.8514   19.5103 C   0  0  0  0  0  0
  -29.5323  -12.5689   18.2862 C   0  0  0  0  0  0
  -28.0918  -12.2567   18.7305 C   0  0  0  0  0  0
  -27.5993  -13.2441   19.8128 C   0  0  2  0  0  0
  -28.6413  -13.5141   20.9212 C   0  0  0  0  0  0
  -25.2358  -13.8103   20.5792 C   0  0  0  0  0  0
  -24.1700  -13.0339   20.9302 C   0  0  0  0  0  0
  -24.6347  -11.6841   20.8812 C   0  0  0  0  0  0
  -23.9039  -10.4236   21.0434 C   0  0  0  0  0  0
  -24.3598   -9.4163   21.9210 C   0  0  0  0  0  0
  -23.6275   -8.2203   22.0765 C   0  0  0  0  0  0
  -22.4262   -8.0253   21.3543 C   0  0  0  0  0  0
  -21.9895   -9.0222   20.4642 C   0  0  0  0  0  0
  -22.7223  -10.2099   20.3064 C   0  0  0  0  0  0
  -21.6844   -6.0723   22.5277 C   0  0  0  0  0  0
  -21.4011   -6.5632   23.8210 C   0  0  0  0  0  0
  -21.3656   -5.6787   24.9175 C   0  0  0  0  0  0
  -21.6042   -4.3048   24.7227 C   0  0  0  0  0  0
  -21.8821   -3.8139   23.4349 C   0  0  0  0  0  0
  -21.9192   -4.6953   22.3404 C   0  0  0  0  0  0
  -22.7729  -13.5138   21.1917 C   0  0  0  0  0  0
  -22.1665   -4.2142   21.0982 F   0  0  0  0  0  0
  -21.5626   -3.4533   25.7740 F   0  0  0  0  0  0
  -29.8699  -14.0209   20.2762 N   0  0  0  0  0  0
  -26.2774  -12.9323   20.3286 N   0  0  0  0  0  0
  -25.9277  -11.6467   20.5791 N   0  0  0  0  0  0
  -22.0373  -12.8149   22.0479 N   0  0  0  0  0  0
  -25.3887  -15.1830   20.4200 N   0  0  0  0  0  0
  -31.6804  -15.2529   20.2994 O   0  0  0  0  0  0
  -21.6622   -6.8857   21.4237 O   0  0  0  0  0  0
  -22.3432  -14.5444   20.6741 O   0  0  0  0  0  0
  -24.6631  -31.8231   23.1693 C   0  0  0  0  0  0
  -25.9309  -32.4587   23.8162 C   0  0  1  0  0  0
  -27.2288  -26.9269   20.1920 C   0  0  0  0  0  0
  -25.5972  -33.8403   24.2065 N   0  0  0  0  0  0
  -23.4780  -30.4326   21.5194 C   0  0  2  0  0  0
  -24.9332  -28.8154   20.1173 C   0  0  0  0  0  0
  -22.7664  -29.4439   22.4798 C   0  0  0  0  0  0
  -18.0320  -28.1406   22.8469 C   0  0  0  0  0  0
  -24.1496  -36.7208   23.2648 C   0  0  0  0  0  0
  -26.0468  -30.6311   21.3980 C   0  0  0  0  0  0
  -26.1175  -29.2189   20.7464 C   0  0  0  0  0  0
  -27.2600  -28.2981   20.7540 C   0  0  0  0  0  0
  -26.0117  -26.6728   19.5193 C   0  0  0  0  0  0
  -24.9060  -27.5628   19.4828 C   0  0  0  0  0  0
  -23.7181  -29.7427   20.1480 C   0  0  0  0  0  0
  -25.4138  -36.2968   24.0298 C   0  0  1  0  0  0
  -20.5943  -28.3752   23.1195 C   0  0  2  0  0  0
  -20.6796  -26.9435   22.5407 C   0  0  0  0  0  0
  -19.5771  -26.6377   21.5218 C   0  0  0  0  0  0
  -18.1953  -26.7940   22.1624 C   0  0  0  0  0  0
  -19.1580  -28.8901   23.2816 C   0  0  0  0  0  0
  -18.9490  -30.1491   23.8851 C   0  0  0  0  0  0
  -17.6484  -30.6598   24.0554 C   0  0  0  0  0  0
  -25.9101  -34.9351   23.5005 C   0  0  0  0  0  0
  -16.5375  -29.9082   23.6344 C   0  0  0  0  0  0
  -16.7302  -28.6502   23.0365 C   0  0  0  0  0  0
  -26.4554  -31.6534   25.0694 C   0  0  0  0  0  0
  -25.3677  -31.3784   26.1347 C   0  0  0  0  0  0
  -27.0447  -30.2901   24.6424 C   0  0  0  0  0  0
  -27.6039  -32.4347   25.7499 C   0  0  0  0  0  0
  -27.5571  -37.1763   24.8464 C   0  0  0  0  0  0
  -21.4335  -29.3039   22.3543 N   0  0  0  0  0  0
  -26.4280  -37.3706   23.9406 N   0  0  0  0  0  0
  -24.7507  -30.9892   22.0828 N   0  0  0  0  0  0
  -23.4211  -28.8019   23.3050 O   0  0  0  0  0  0
  -28.2556  -25.8412   20.2379 O   0  0  0  0  0  0
  -26.5717  -34.8887   22.4606 O   0  0  0  0  0  0
  -23.5701  -32.1203   23.6787 O   0  0  0  0  0  0
  -29.6749  -19.9065   19.7039 C   0  0  0  0  0  0
  -28.6359  -20.3796   21.4474 C   0  0  0  0  0  0
  -29.5523  -18.5741   20.3267 C   0  0  0  0  0  0
  -30.5944  -17.1528   18.4814 C   0  0  0  0  0  0
  -28.3448  -16.5971   19.2428 C   0  0  0  0  0  0
  -29.1504  -22.7821   20.1303 C   0  0  0  0  0  0
  -28.0418  -24.1974   20.3024 C   0  0  0  0  0  0
  -29.7485  -16.9108   19.7565 C   0  0  0  0  0  0
  -28.8342  -19.0138   21.4670 N   0  0  0  0  0  0
  -29.0873  -21.1111   20.3909 N   0  0  0  0  0  0
  -31.4514  -13.0641   19.1609 H   0  0  0  0  0  0
  -30.5277  -11.9695   20.1472 H   0  0  0  0  0  0
  -29.9318  -11.7416   17.6980 H   0  0  0  0  0  0
  -29.5311  -13.4406   17.6299 H   0  0  0  0  0  0
  -28.0805  -11.2424   19.1312 H   0  0  0  0  0  0
  -27.4167  -12.2561   17.8737 H   0  0  0  0  0  0
  -27.4511  -14.1578   19.2607 H   0  0  0  0  0  0
  -28.8358  -12.6168   21.5104 H   0  0  0  0  0  0
  -28.2642  -14.2651   21.6170 H   0  0  0  0  0  0
  -25.2736   -9.5650   22.4790 H   0  0  0  0  0  0
  -23.9981   -7.4593   22.7481 H   0  0  0  0  0  0
  -21.0835   -8.8740   19.8939 H   0  0  0  0  0  0
  -22.3692  -10.9645   19.6177 H   0  0  0  0  0  0
  -21.2007   -7.6140   23.9712 H   0  0  0  0  0  0
  -21.1476   -6.0518   25.9078 H   0  0  0  0  0  0
  -22.0605   -2.7602   23.2848 H   0  0  0  0  0  0
  -22.3996  -11.9828   22.4886 H   0  0  0  0  0  0
  -21.0985  -13.1173   22.2662 H   0  0  0  0  0  0
  -24.6132  -15.8257   20.5391 H   0  0  0  0  0  0
  -26.2293  -15.6339   20.0862 H   0  0  0  0  0  0
  -26.7382  -32.5126   23.0879 H   0  0  0  0  0  0
  -25.0049  -33.9475   25.0168 H   0  0  0  0  0  0
  -22.7917  -31.2643   21.3461 H   0  0  0  0  0  0
  -23.3769  -35.9525   23.3279 H   0  0  0  0  0  0
  -24.3572  -36.8888   22.2069 H   0  0  0  0  0  0
  -23.7244  -37.6382   23.6727 H   0  0  0  0  0  0
  -26.2234  -31.3715   20.6167 H   0  0  0  0  0  0
  -26.9079  -30.6917   22.0519 H   0  0  0  0  0  0
  -28.1597  -28.6117   21.2647 H   0  0  0  0  0  0
  -25.8858  -25.7187   19.0295 H   0  0  0  0  0  0
  -24.0068  -27.2475   18.9718 H   0  0  0  0  0  0
  -23.8712  -30.5080   19.3861 H   0  0  0  0  0  0
  -22.8284  -29.1941   19.8340 H   0  0  0  0  0  0
  -25.1341  -36.1760   25.0790 H   0  0  0  0  0  0
  -21.0024  -28.3357   24.1321 H   0  0  0  0  0  0
  -20.5681  -26.2371   23.3646 H   0  0  0  0  0  0
  -21.6660  -26.7414   22.1214 H   0  0  0  0  0  0
  -19.6931  -25.6277   21.1278 H   0  0  0  0  0  0
  -19.6707  -27.3163   20.6729 H   0  0  0  0  0  0
  -17.4224  -26.6685   21.4026 H   0  0  0  0  0  0
  -18.0343  -26.0091   22.9029 H   0  0  0  0  0  0
  -19.7966  -30.7320   24.2199 H   0  0  0  0  0  0
  -17.5035  -31.6273   24.5165 H   0  0  0  0  0  0
  -15.5374  -30.2969   23.7695 H   0  0  0  0  0  0
  -15.8702  -28.0805   22.7109 H   0  0  0  0  0  0
  -24.5873  -30.7121   25.7657 H   0  0  0  0  0  0
  -24.8849  -32.2984   26.4653 H   0  0  0  0  0  0
  -25.7907  -30.9030   27.0206 H   0  0  0  0  0  0
  -26.3110  -29.6579   24.1411 H   0  0  0  0  0  0
  -27.3957  -29.7267   25.5080 H   0  0  0  0  0  0
  -27.9060  -30.4083   23.9846 H   0  0  0  0  0  0
  -27.2600  -33.3690   26.1949 H   0  0  0  0  0  0
  -28.3915  -32.6844   25.0378 H   0  0  0  0  0  0
  -28.0633  -31.8560   26.5522 H   0  0  0  0  0  0
  -28.2570  -38.0077   24.7514 H   0  0  0  0  0  0
  -28.1085  -36.2603   24.6289 H   0  0  0  0  0  0
  -27.2283  -37.1401   25.8865 H   0  0  0  0  0  0
  -20.9597  -29.8715   21.6655 H   0  0  0  0  0  0
  -26.0126  -38.2764   24.1411 H   0  0  0  0  0  0
  -30.1451  -20.0950   18.7477 H   0  0  0  0  0  0
  -28.1449  -20.8721   22.2751 H   0  0  0  0  0  0
  -30.1055  -17.8414   17.7918 H   0  0  0  0  0  0
  -30.7807  -16.2379   17.9166 H   0  0  0  0  0  0
  -31.5635  -17.5827   18.7359 H   0  0  0  0  0  0
  -27.8969  -17.4572   18.7438 H   0  0  0  0  0  0
  -27.6990  -16.3367   20.0762 H   0  0  0  0  0  0
  -28.3680  -15.8056   18.4977 H   0  0  0  0  0  0
  -30.0058  -23.0806   20.7364 H   0  0  0  0  0  0
  -29.5262  -22.8697   19.1113 H   0  0  0  0  0  0
  -27.5674  -24.0556   21.2736 H   0  0  0  0  0  0
  -27.2406  -23.9982   19.5922 H   0  0  0  0  0  0
  1 25  1  0  0  0
  1 30  2  0  0  0
  1 78  1  0  0  0
  2  3  1  0  0  0
  2 25  1  0  0  0
  2 81  1  0  0  0
  2 82  1  0  0  0
  3  4  1  0  0  0
  3 83  1  0  0  0
  3 84  1  0  0  0
  4  5  1  0  0  0
  4 85  1  0  0  0
  4 86  1  0  0  0
  5  6  1  0  0  0
  5 26  1  0  0  0
  5 87  1  0  0  0
  6 25  1  0  0  0
  6 88  1  0  0  0
  6 89  1  0  0  0
  7  8  2  0  0  0
  7 26  1  0  0  0
  7 29  1  0  0  0
  8  9  1  0  0  0
  8 22  1  0  0  0
  9 10  1  0  0  0
  9 27  2  0  0  0
 10 11  2  0  0  0
 10 15  1  0  0  0
 11 12  1  0  0  0
 11 90  1  0  0  0
 12 13  2  0  0  0
 12 91  1  0  0  0
 13 14  1  0  0  0
 13 31  1  0  0  0
 14 15  2  0  0  0
 14 92  1  0  0  0
 15 93  1  0  0  0
 16 17  2  0  0  0
 16 21  1  0  0  0
 16 31  1  0  0  0
 17 18  1  0  0  0
 17 94  1  0  0  0
 18 19  2  0  0  0
 18 95  1  0  0  0
 19 20  1  0  0  0
 19 24  1  0  0  0
 20 21  2  0  0  0
 20 96  1  0  0  0
 21 23  1  0  0  0
 22 28  1  0  0  0
 22 32  2  0  0  0
 26 27  1  0  0  0
 28 97  1  0  0  0
 28 98  1  0  0  0
 29 99  1  0  0  0
 29100  1  0  0  0
 33 34  1  0  0  0
 33 66  1  0  0  0
 33 70  2  0  0  0
 34 36  1  0  0  0
 34 59  1  0  0  0
 34101  1  0  0  0
 35 44  2  0  0  0
 35 45  1  0  0  0
 35 68  1  0  0  0
 36 56  1  0  0  0
 36102  1  0  0  0
 37 39  1  0  0  0
 37 47  1  0  0  0
 37 66  1  0  0  0
 37103  1  0  0  0
 38 43  2  0  0  0
 38 46  1  0  0  0
 38 47  1  0  0  0
 39 64  1  0  0  0
 39 67  2  0  0  0
 40 52  1  0  0  0
 40 53  2  0  0  0
 40 58  1  0  0  0
 41104  1  0  0  0
 41105  1  0  0  0
 41106  1  0  0  0
 41 48  1  0  0  0
 42 43  1  0  0  0
 42 66  1  0  0  0
 42107  1  0  0  0
 42108  1  0  0  0
 43 44  1  0  0  0
 44109  1  0  0  0
 45 46  2  0  0  0
 45110  1  0  0  0
 46111  1  0  0  0
 47112  1  0  0  0
 47113  1  0  0  0
 48 56  1  0  0  0
 48 65  1  0  0  0
 48114  1  0  0  0
 49 50  1  0  0  0
 49 53  1  0  0  0
 49 64  1  0  0  0
 49115  1  0  0  0
 50 51  1  0  0  0
 50116  1  0  0  0
 50117  1  0  0  0
 51 52  1  0  0  0
 51118  1  0  0  0
 51119  1  0  0  0
 52120  1  0  0  0
 52121  1  0  0  0
 53 54  1  0  0  0
 54 55  2  0  0  0
 54122  1  0  0  0
 55 57  1  0  0  0
 55123  1  0  0  0
 56 69  2  0  0  0
 57 58  2  0  0  0
 57124  1  0  0  0
 58125  1  0  0  0
 59 60  1  0  0  0
 59 61  1  0  0  0
 59 62  1  0  0  0
 60126  1  0  0  0
 60127  1  0  0  0
 60128  1  0  0  0
 61129  1  0  0  0
 61130  1  0  0  0
 61131  1  0  0  0
 62132  1  0  0  0
 62133  1  0  0  0
 62134  1  0  0  0
 63 65  1  0  0  0
 63135  1  0  0  0
 63136  1  0  0  0
 63137  1  0  0  0
 64138  1  0  0  0
 65139  1  0  0  0
 68 77  1  0  0  0
 71 73  2  0  0  0
 71 80  1  0  0  0
 71140  1  0  0  0
 72 79  2  0  0  0
 72 80  1  0  0  0
 72141  1  0  0  0
 73 78  1  0  0  0
 73 79  1  0  0  0
 74142  1  0  0  0
 74143  1  0  0  0
 74144  1  0  0  0
 74 78  1  0  0  0
 75 78  1  0  0  0
 75145  1  0  0  0
 75146  1  0  0  0
 75147  1  0  0  0
 76 77  1  0  0  0
 76 80  1  0  0  0
 76148  1  0  0  0
 76149  1  0  0  0
 77150  1  0  0  0
 77151  1  0  0  0
M  ISO  4   1 100  68 101  77 101  78 100
M  END
> <chiral flag>
0

> <version>
0

> <s_m_source_file>
/data/baiqing/PycharmProjects/Reinvent-master-3.2/result/LINK_invent/BTK/process_docking_weight1_custom_sum_contain_oxygen_bond_distance_aromatic_linkinvent_7_9_3/rearranged_h_0075.sdf

> <i_m_source_file_index>
11

> <r_mmod_Potential_Energy-OPLS-2005>
1515.00024414062

> <r_mmod_Stretch_Energy-OPLS-2005>
623.818237304688

> <r_mmod_Bend_Energy-OPLS-2005>
510.129516601562

> <r_mmod_Torsional_Energy-OPLS-2005>
238.733673095703

> <r_mmod_Improper_Torsional_Energy-OPLS-2005>
19.6004428863525

> <r_mmod_Van_der_Waal_Energy-OPLS-2005>
115.434028625488

> <r_mmod_Electrostatic_Energy-OPLS-2005>
-280.954681396484

> <r_mmod_Solvation_Energy-OPLS-2005>
-212.286056518555

> <b_mmod_Minimization_Converged-OPLS-2005>
0

> <r_mmod_RMS_Derivative-OPLS-2005>
0.611807227134705

$$$$
11
                    3D
 Structure written by MMmdl.
157165  0  0  1  0            999 V2000
  -30.7001  -14.4910   20.5389 C   0  0  0  0  0  0
  -30.4295  -12.3158   19.4001 C   0  0  0  0  0  0
  -29.4903  -12.4936   18.1895 C   0  0  0  0  0  0
  -28.0146  -12.3564   18.6160 C   0  0  0  0  0  0
  -27.6631  -13.2079   19.8658 C   0  0  2  0  0  0
  -28.7143  -13.0038   20.9813 C   0  0  0  0  0  0
  -25.2604  -13.8155   20.5702 C   0  0  0  0  0  0
  -24.1860  -13.0427   20.9209 C   0  0  0  0  0  0
  -24.6423  -11.6913   20.8762 C   0  0  0  0  0  0
  -23.9093  -10.4288   21.0414 C   0  0  0  0  0  0
  -24.3643   -9.4213   21.9200 C   0  0  0  0  0  0
  -23.6299   -8.2237   22.0764 C   0  0  0  0  0  0
  -22.4281   -8.0277   21.3534 C   0  0  0  0  0  0
  -21.9932   -9.0279   20.4647 C   0  0  0  0  0  0
  -22.7276  -10.2144   20.3064 C   0  0  0  0  0  0
  -21.6840   -6.0741   22.5293 C   0  0  0  0  0  0
  -21.4010   -6.5649   23.8226 C   0  0  0  0  0  0
  -21.3652   -5.6791   24.9186 C   0  0  0  0  0  0
  -21.6058   -4.3059   24.7238 C   0  0  0  0  0  0
  -21.8822   -3.8154   23.4356 C   0  0  0  0  0  0
  -21.9188   -4.6969   22.3420 C   0  0  0  0  0  0
  -22.7879  -13.5217   21.1894 C   0  0  0  0  0  0
  -22.1663   -4.2170   21.0988 F   0  0  0  0  0  0
  -21.5622   -3.4531   25.7745 F   0  0  0  0  0  0
  -30.0398  -13.3094   20.4118 N   0  0  0  0  0  0
  -26.3044  -12.9341   20.3359 N   0  0  0  0  0  0
  -25.9354  -11.6498   20.5780 N   0  0  0  0  0  0
  -22.0509  -12.8179   22.0416 N   0  0  0  0  0  0
  -25.4253  -15.1884   20.4115 N   0  0  0  0  0  0
  -31.8484  -14.6711   20.1287 O   0  0  0  0  0  0
  -21.6625   -6.8893   21.4250 O   0  0  0  0  0  0
  -22.3561  -14.5523   20.6757 O   0  0  0  0  0  0
  -24.6137  -31.8671   23.2048 C   0  0  0  0  0  0
  -25.9016  -32.4792   23.8372 C   0  0  1  0  0  0
  -27.2419  -27.4286   20.1200 C   0  0  0  0  0  0
  -25.5856  -33.8595   24.2267 N   0  0  0  0  0  0
  -23.4055  -30.4873   21.5463 C   0  0  2  0  0  0
  -24.8582  -28.9472   20.1191 C   0  0  0  0  0  0
  -22.7420  -29.4674   22.5008 C   0  0  0  0  0  0
  -18.0268  -28.1379   22.8498 C   0  0  0  0  0  0
  -24.1514  -36.7334   23.2626 C   0  0  0  0  0  0
  -25.9347  -30.8291   21.3634 C   0  0  0  0  0  0
  -26.0157  -29.4621   20.7169 C   0  0  0  0  0  0
  -27.2120  -28.7081   20.7199 C   0  0  0  0  0  0
  -26.0727  -26.9242   19.5152 C   0  0  0  0  0  0
  -24.8793  -27.6740   19.5186 C   0  0  0  0  0  0
  -23.6184  -29.8141   20.1635 C   0  0  0  0  0  0
  -25.4117  -36.3083   24.0312 C   0  0  1  0  0  0
  -20.5878  -28.3684   23.1313 C   0  0  2  0  0  0
  -20.6784  -26.9420   22.5427 C   0  0  0  0  0  0
  -19.5756  -26.6406   21.5223 C   0  0  0  0  0  0
  -18.1923  -26.7936   22.1616 C   0  0  0  0  0  0
  -19.1525  -28.8846   23.2897 C   0  0  0  0  0  0
  -18.9448  -30.1449   23.8908 C   0  0  0  0  0  0
  -17.6455  -30.6584   24.0585 C   0  0  0  0  0  0
  -25.9041  -34.9446   23.5085 C   0  0  0  0  0  0
  -16.5338  -29.9091   23.6331 C   0  0  0  0  0  0
  -16.7267  -28.6500   23.0353 C   0  0  0  0  0  0
  -26.4444  -31.6553   25.0694 C   0  0  0  0  0  0
  -25.3668  -31.3628   26.1393 C   0  0  0  0  0  0
  -27.0286  -30.3006   24.6050 C   0  0  0  0  0  0
  -27.6059  -32.4270   25.7411 C   0  0  0  0  0  0
  -27.5606  -37.1759   24.8408 C   0  0  0  0  0  0
  -21.4158  -29.3026   22.3702 N   0  0  0  0  0  0
  -26.4273  -37.3787   23.9412 N   0  0  0  0  0  0
  -24.6689  -31.0760   22.0965 N   0  0  0  0  0  0
  -23.4170  -28.8227   23.3088 O   0  0  0  0  0  0
  -28.3915  -26.6722   20.1122 O   0  0  0  0  0  0
  -26.5678  -34.8907   22.4688 O   0  0  0  0  0  0
  -23.5337  -32.1473   23.7397 O   0  0  0  0  0  0
  -28.4738  -19.9613   20.7353 C   0  0  0  0  0  0
  -30.8286  -20.1428   20.9863 C   0  0  0  0  0  0
  -29.7295  -19.3387   20.6354 C   0  0  0  0  0  0
  -29.4353  -21.9105   21.4490 C   0  0  0  0  0  0
  -30.6650  -17.8013   18.8468 C   0  0  0  0  0  0
  -29.2291  -23.3557   21.9054 C   0  0  0  0  0  0
  -29.0074  -24.3596   20.7444 C   0  0  0  0  0  0
  -30.3430  -16.9075   21.2416 C   0  0  0  0  0  0
  -28.5100  -25.7492   21.2102 C   0  0  0  0  0  0
  -29.8436  -17.8872   20.1451 C   0  0  1  0  0  0
  -28.3359  -21.2378   21.1401 N   0  0  0  0  0  0
  -30.6748  -21.4276   21.3823 N   0  0  0  0  0  0
  -29.9531  -15.5080   21.0055 N   0  0  0  0  0  0
  -31.4702  -12.4158   19.0883 H   0  0  0  0  0  0
  -30.3321  -11.3085   19.8071 H   0  0  0  0  0  0
  -29.7198  -11.7537   17.4220 H   0  0  0  0  0  0
  -29.6530  -13.4698   17.7300 H   0  0  0  0  0  0
  -27.8323  -11.3014   18.8285 H   0  0  0  0  0  0
  -27.3551  -12.6153   17.7870 H   0  0  0  0  0  0
  -27.7006  -14.2530   19.5551 H   0  0  0  0  0  0
  -28.7017  -11.9731   21.3388 H   0  0  0  0  0  0
  -28.4857  -13.6179   21.8536 H   0  0  0  0  0  0
  -25.2789   -9.5650   22.4770 H   0  0  0  0  0  0
  -24.0008   -7.4616   22.7460 H   0  0  0  0  0  0
  -21.0873   -8.8809   19.8937 H   0  0  0  0  0  0
  -22.3763  -10.9693   19.6156 H   0  0  0  0  0  0
  -21.1999   -7.6158   23.9742 H   0  0  0  0  0  0
  -21.1467   -6.0516   25.9088 H   0  0  0  0  0  0
  -22.0603   -2.7614   23.2855 H   0  0  0  0  0  0
  -22.4129  -11.9815   22.4772 H   0  0  0  0  0  0
  -21.1136  -13.1192   22.2642 H   0  0  0  0  0  0
  -24.6550  -15.8354   20.5247 H   0  0  0  0  0  0
  -26.2683  -15.6354   20.0724 H   0  0  0  0  0  0
  -26.7108  -32.5522   23.1161 H   0  0  0  0  0  0
  -24.9915  -33.9758   25.0328 H   0  0  0  0  0  0
  -22.6922  -31.3009   21.4014 H   0  0  0  0  0  0
  -23.3755  -35.9678   23.3221 H   0  0  0  0  0  0
  -24.3645  -36.9053   22.2061 H   0  0  0  0  0  0
  -23.7273  -37.6501   23.6729 H   0  0  0  0  0  0
  -26.0486  -31.5864   20.5885 H   0  0  0  0  0  0
  -26.8217  -30.8904   21.9827 H   0  0  0  0  0  0
  -28.1067  -29.0912   21.1886 H   0  0  0  0  0  0
  -26.0898  -25.9444   19.0555 H   0  0  0  0  0  0
  -23.9897  -27.2676   19.0559 H   0  0  0  0  0  0
  -23.7162  -30.5831   19.3970 H   0  0  0  0  0  0
  -22.7432  -29.2283   19.8802 H   0  0  0  0  0  0
  -25.1284  -36.1939   25.0807 H   0  0  0  0  0  0
  -20.9953  -28.3284   24.1441 H   0  0  0  0  0  0
  -20.5772  -26.2268   23.3613 H   0  0  0  0  0  0
  -21.6650  -26.7525   22.1186 H   0  0  0  0  0  0
  -19.6953  -25.6337   21.1227 H   0  0  0  0  0  0
  -19.6706  -27.3214   20.6759 H   0  0  0  0  0  0
  -17.4229  -26.6687   21.3984 H   0  0  0  0  0  0
  -18.0303  -26.0058   22.8991 H   0  0  0  0  0  0
  -19.7920  -30.7261   24.2283 H   0  0  0  0  0  0
  -17.5013  -31.6272   24.5169 H   0  0  0  0  0  0
  -15.5340  -30.3006   23.7668 H   0  0  0  0  0  0
  -15.8651  -28.0846   22.7062 H   0  0  0  0  0  0
  -24.5932  -30.6892   25.7689 H   0  0  0  0  0  0
  -24.8685  -32.2719   26.4796 H   0  0  0  0  0  0
  -25.7970  -30.8847   27.0193 H   0  0  0  0  0  0
  -26.2834  -29.6733   24.1165 H   0  0  0  0  0  0
  -27.4136  -29.7287   25.4488 H   0  0  0  0  0  0
  -27.8620  -30.4341   23.9154 H   0  0  0  0  0  0
  -27.2790  -33.3644   26.1954 H   0  0  0  0  0  0
  -28.3867  -32.6719   25.0177 H   0  0  0  0  0  0
  -28.0743  -31.8396   26.5330 H   0  0  0  0  0  0
  -28.2478  -38.0224   24.7741 H   0  0  0  0  0  0
  -28.1283  -36.2758   24.5914 H   0  0  0  0  0  0
  -27.2369  -37.1033   25.8819 H   0  0  0  0  0  0
  -20.9332  -29.8691   21.6857 H   0  0  0  0  0  0
  -26.0154  -38.2823   24.1546 H   0  0  0  0  0  0
  -27.5599  -19.4439   20.4845 H   0  0  0  0  0  0
  -31.8405  -19.7646   20.9451 H   0  0  0  0  0  0
  -30.2796  -18.4820   18.0857 H   0  0  0  0  0  0
  -30.6342  -16.7961   18.4198 H   0  0  0  0  0  0
  -31.7119  -18.0566   19.0108 H   0  0  0  0  0  0
  -30.0751  -23.6754   22.5153 H   0  0  0  0  0  0
  -28.3677  -23.3703   22.5754 H   0  0  0  0  0  0
  -28.2671  -23.9453   20.0618 H   0  0  0  0  0  0
  -29.9278  -24.4593   20.1688 H   0  0  0  0  0  0
  -29.8804  -17.1762   22.1916 H   0  0  0  0  0  0
  -31.4208  -17.0044   21.3941 H   0  0  0  0  0  0
  -29.2082  -26.1668   21.9374 H   0  0  0  0  0  0
  -27.5610  -25.6220   21.7333 H   0  0  0  0  0  0
  -28.8287  -17.5814   19.8868 H   0  0  0  0  0  0
  -29.0033  -15.2642   21.2425 H   0  0  0  0  0  0
  1 25  1  0  0  0
  1 30  2  0  0  0
  1 83  1  0  0  0
  2  3  1  0  0  0
  2 25  1  0  0  0
  2 84  1  0  0  0
  2 85  1  0  0  0
  3  4  1  0  0  0
  3 86  1  0  0  0
  3 87  1  0  0  0
  4  5  1  0  0  0
  4 88  1  0  0  0
  4 89  1  0  0  0
  5  6  1  0  0  0
  5 26  1  0  0  0
  5 90  1  0  0  0
  6 25  1  0  0  0
  6 91  1  0  0  0
  6 92  1  0  0  0
  7  8  2  0  0  0
  7 26  1  0  0  0
  7 29  1  0  0  0
  8  9  1  0  0  0
  8 22  1  0  0  0
  9 10  1  0  0  0
  9 27  2  0  0  0
 10 11  2  0  0  0
 10 15  1  0  0  0
 11 12  1  0  0  0
 11 93  1  0  0  0
 12 13  2  0  0  0
 12 94  1  0  0  0
 13 14  1  0  0  0
 13 31  1  0  0  0
 14 15  2  0  0  0
 14 95  1  0  0  0
 15 96  1  0  0  0
 16 17  2  0  0  0
 16 21  1  0  0  0
 16 31  1  0  0  0
 17 18  1  0  0  0
 17 97  1  0  0  0
 18 19  2  0  0  0
 18 98  1  0  0  0
 19 20  1  0  0  0
 19 24  1  0  0  0
 20 21  2  0  0  0
 20 99  1  0  0  0
 21 23  1  0  0  0
 22 28  1  0  0  0
 22 32  2  0  0  0
 26 27  1  0  0  0
 28100  1  0  0  0
 28101  1  0  0  0
 29102  1  0  0  0
 29103  1  0  0  0
 33 34  1  0  0  0
 33 66  1  0  0  0
 33 70  2  0  0  0
 34 36  1  0  0  0
 34 59  1  0  0  0
 34104  1  0  0  0
 35 44  2  0  0  0
 35 45  1  0  0  0
 35 68  1  0  0  0
 36 56  1  0  0  0
 36105  1  0  0  0
 37 39  1  0  0  0
 37 47  1  0  0  0
 37 66  1  0  0  0
 37106  1  0  0  0
 38 43  2  0  0  0
 38 46  1  0  0  0
 38 47  1  0  0  0
 39 64  1  0  0  0
 39 67  2  0  0  0
 40 52  1  0  0  0
 40 53  2  0  0  0
 40 58  1  0  0  0
 41107  1  0  0  0
 41108  1  0  0  0
 41109  1  0  0  0
 41 48  1  0  0  0
 42 43  1  0  0  0
 42 66  1  0  0  0
 42110  1  0  0  0
 42111  1  0  0  0
 43 44  1  0  0  0
 44112  1  0  0  0
 45 46  2  0  0  0
 45113  1  0  0  0
 46114  1  0  0  0
 47115  1  0  0  0
 47116  1  0  0  0
 48 56  1  0  0  0
 48 65  1  0  0  0
 48117  1  0  0  0
 49 50  1  0  0  0
 49 53  1  0  0  0
 49 64  1  0  0  0
 49118  1  0  0  0
 50 51  1  0  0  0
 50119  1  0  0  0
 50120  1  0  0  0
 51 52  1  0  0  0
 51121  1  0  0  0
 51122  1  0  0  0
 52123  1  0  0  0
 52124  1  0  0  0
 53 54  1  0  0  0
 54 55  2  0  0  0
 54125  1  0  0  0
 55 57  1  0  0  0
 55126  1  0  0  0
 56 69  2  0  0  0
 57 58  2  0  0  0
 57127  1  0  0  0
 58128  1  0  0  0
 59 60  1  0  0  0
 59 61  1  0  0  0
 59 62  1  0  0  0
 60129  1  0  0  0
 60130  1  0  0  0
 60131  1  0  0  0
 61132  1  0  0  0
 61133  1  0  0  0
 61134  1  0  0  0
 62135  1  0  0  0
 62136  1  0  0  0
 62137  1  0  0  0
 63 65  1  0  0  0
 63138  1  0  0  0
 63139  1  0  0  0
 63140  1  0  0  0
 64141  1  0  0  0
 65142  1  0  0  0
 68 79  1  0  0  0
 71 73  2  0  0  0
 71 81  1  0  0  0
 71143  1  0  0  0
 72 73  1  0  0  0
 72 82  2  0  0  0
 72144  1  0  0  0
 73 80  1  0  0  0
 74 76  1  0  0  0
 74 81  2  0  0  0
 74 82  1  0  0  0
 75145  1  0  0  0
 75146  1  0  0  0
 75147  1  0  0  0
 75 80  1  0  0  0
 76 77  1  0  0  0
 76148  1  0  0  0
 76149  1  0  0  0
 77 79  1  0  0  0
 77150  1  0  0  0
 77151  1  0  0  0
 78 80  1  0  0  0
 78 83  1  0  0  0
 78152  1  0  0  0
 78153  1  0  0  0
 79154  1  0  0  0
 79155  1  0  0  0
 80156  1  0  0  0
 83157  1  0  0  0
M  ISO  4   1 100  68 101  79 101  83 100
M  END
> <chiral flag>
0

> <version>
0

> <s_m_source_file>
/data/baiqing/PycharmProjects/Reinvent-master-3.2/result/LINK_invent/BTK/process_docking_weight1_custom_sum_contain_oxygen_bond_distance_aromatic_linkinvent_7_9_3/rearranged_h_0075.sdf

> <i_m_source_file_index>
12

> <r_mmod_Potential_Energy-OPLS-2005>
-560.515319824219

> <r_mmod_Stretch_Energy-OPLS-2005>
35.6566619873047

> <r_mmod_Bend_Energy-OPLS-2005>
94.9604721069336

> <r_mmod_Torsional_Energy-OPLS-2005>
220.010009765625

> <r_mmod_Improper_Torsional_Energy-OPLS-2005>
3.3639132976532

> <r_mmod_Van_der_Waal_Energy-OPLS-2005>
148.81494140625

> <r_mmod_Electrostatic_Energy-OPLS-2005>
-849.436767578125

> <r_mmod_Solvation_Energy-OPLS-2005>
-229.507888793945

> <b_mmod_Minimization_Converged-OPLS-2005>
0

> <r_mmod_RMS_Derivative-OPLS-2005>
4.57641649246216

$$$$
12
                    3D
 Structure written by MMmdl.
162171  0  0  1  0            999 V2000
  -30.6419  -14.7232   20.4411 C   0  0  0  0  0  0
  -30.4189  -12.4312   19.4986 C   0  0  0  0  0  0
  -29.5157  -12.4978   18.2477 C   0  0  0  0  0  0
  -28.0381  -12.3301   18.6488 C   0  0  0  0  0  0
  -27.6367  -13.2415   19.8399 C   0  0  2  0  0  0
  -28.6713  -13.2007   20.9828 C   0  0  0  0  0  0
  -25.2493  -13.8225   20.5678 C   0  0  0  0  0  0
  -24.1794  -13.0458   20.9184 C   0  0  0  0  0  0
  -24.6389  -11.6936   20.8720 C   0  0  0  0  0  0
  -23.9071  -10.4305   21.0397 C   0  0  0  0  0  0
  -24.3625   -9.4221   21.9173 C   0  0  0  0  0  0
  -23.6302   -8.2254   22.0751 C   0  0  0  0  0  0
  -22.4283   -8.0284   21.3546 C   0  0  0  0  0  0
  -21.9914   -9.0255   20.4651 C   0  0  0  0  0  0
  -22.7242  -10.2137   20.3054 C   0  0  0  0  0  0
  -21.6864   -6.0739   22.5281 C   0  0  0  0  0  0
  -21.4018   -6.5642   23.8211 C   0  0  0  0  0  0
  -21.3657   -5.6791   24.9172 C   0  0  0  0  0  0
  -21.6043   -4.3056   24.7223 C   0  0  0  0  0  0
  -21.8817   -3.8148   23.4344 C   0  0  0  0  0  0
  -21.9195   -4.6966   22.3404 C   0  0  0  0  0  0
  -22.7819  -13.5230   21.1866 C   0  0  0  0  0  0
  -22.1665   -4.2151   21.0981 F   0  0  0  0  0  0
  -21.5626   -3.4539   25.7736 F   0  0  0  0  0  0
  -29.9849  -13.5130   20.4156 N   0  0  0  0  0  0
  -26.2907  -12.9447   20.3210 N   0  0  0  0  0  0
  -25.9317  -11.6581   20.5700 N   0  0  0  0  0  0
  -22.0476  -12.8210   22.0426 N   0  0  0  0  0  0
  -25.4208  -15.1948   20.4138 N   0  0  0  0  0  0
  -31.8446  -14.7511   20.1584 O   0  0  0  0  0  0
  -21.6648   -6.8882   21.4243 O   0  0  0  0  0  0
  -22.3497  -14.5534   20.6721 O   0  0  0  0  0  0
  -24.6315  -31.8565   23.2000 C   0  0  0  0  0  0
  -25.9154  -32.4760   23.8330 C   0  0  1  0  0  0
  -27.2075  -27.2621   20.1276 C   0  0  0  0  0  0
  -25.5958  -33.8560   24.2258 N   0  0  0  0  0  0
  -23.4255  -30.4832   21.5440 C   0  0  2  0  0  0
  -24.8678  -28.9327   20.1121 C   0  0  0  0  0  0
  -22.7499  -29.4622   22.4914 C   0  0  0  0  0  0
  -18.0294  -28.1389   22.8484 C   0  0  0  0  0  0
  -24.1490  -36.7279   23.2637 C   0  0  0  0  0  0
  -25.9721  -30.7718   21.3777 C   0  0  0  0  0  0
  -26.0414  -29.3950   20.7191 C   0  0  0  0  0  0
  -27.2144  -28.5739   20.7131 C   0  0  0  0  0  0
  -26.0049  -26.8685   19.4948 C   0  0  0  0  0  0
  -24.8547  -27.6775   19.4893 C   0  0  0  0  0  0
  -23.6418  -29.8226   20.1583 C   0  0  0  0  0  0
  -25.4114  -36.3069   24.0328 C   0  0  1  0  0  0
  -20.5898  -28.3698   23.1269 C   0  0  2  0  0  0
  -20.6781  -26.9419   22.5404 C   0  0  0  0  0  0
  -19.5757  -26.6389   21.5208 C   0  0  0  0  0  0
  -18.1936  -26.7935   22.1623 C   0  0  0  0  0  0
  -19.1548  -28.8862   23.2874 C   0  0  0  0  0  0
  -18.9470  -30.1459   23.8893 C   0  0  0  0  0  0
  -17.6471  -30.6592   24.0560 C   0  0  0  0  0  0
  -25.9058  -34.9443   23.5093 C   0  0  0  0  0  0
  -16.5359  -29.9089   23.6332 C   0  0  0  0  0  0
  -16.7281  -28.6508   23.0351 C   0  0  0  0  0  0
  -26.4514  -31.6585   25.0721 C   0  0  0  0  0  0
  -25.3737  -31.3753   26.1446 C   0  0  0  0  0  0
  -27.0344  -30.2996   24.6207 C   0  0  0  0  0  0
  -27.6067  -32.4322   25.7497 C   0  0  0  0  0  0
  -27.5578  -37.1794   24.8461 C   0  0  0  0  0  0
  -21.4208  -29.3050   22.3660 N   0  0  0  0  0  0
  -26.4283  -37.3772   23.9419 N   0  0  0  0  0  0
  -24.6959  -31.0548   22.0971 N   0  0  0  0  0  0
  -23.4206  -28.8156   23.3003 O   0  0  0  0  0  0
  -28.3187  -26.3874   20.1729 O   0  0  0  0  0  0
  -26.5619  -34.8919   22.4653 O   0  0  0  0  0  0
  -23.5477  -32.1385   23.7312 O   0  0  0  0  0  0
  -29.5423  -16.8409   21.6242 C   0  0  0  0  0  0
  -29.9219  -16.1142   20.4523 C   0  0  0  0  0  0
  -29.4044  -18.1039   19.2479 C   0  0  0  0  0  0
  -28.9748  -18.8203   20.4116 C   0  0  0  0  0  0
  -29.1889  -22.5048   19.4779 C   0  0  0  0  0  0
  -27.4060  -22.6331   21.1784 C   0  0  0  0  0  0
  -29.4256  -24.0671   19.6761 C   0  0  0  0  0  0
  -27.6711  -24.1783   21.3498 C   0  0  0  0  0  0
  -28.5759  -21.6890   20.6785 C   0  0  1  0  0  0
  -28.1539  -24.8938   20.0581 C   0  0  1  0  0  0
  -29.3410  -18.7232   17.8648 C   0  0  0  0  0  0
  -26.7378  -19.8063   21.0002 C   0  0  0  0  0  0
  -28.0865  -20.1581   20.3267 C   0  0  2  0  0  0
  -29.0843  -18.1502   21.6057 N   0  0  0  0  0  0
  -29.8663  -16.8101   19.2746 N   0  0  0  0  0  0
  -31.4679  -12.5165   19.2104 H   0  0  0  0  0  0
  -30.3260  -11.4615   19.9899 H   0  0  0  0  0  0
  -29.8007  -11.7245   17.5332 H   0  0  0  0  0  0
  -29.6566  -13.4536   17.7399 H   0  0  0  0  0  0
  -27.8901  -11.2832   18.9159 H   0  0  0  0  0  0
  -27.3888  -12.5177   17.7929 H   0  0  0  0  0  0
  -27.6278  -14.2593   19.4473 H   0  0  0  0  0  0
  -28.6879  -12.2186   21.4583 H   0  0  0  0  0  0
  -28.4099  -13.9186   21.7618 H   0  0  0  0  0  0
  -25.2772   -9.5706   22.4740 H   0  0  0  0  0  0
  -24.0019   -7.4650   22.7475 H   0  0  0  0  0  0
  -21.0842   -8.8769   19.8964 H   0  0  0  0  0  0
  -22.3691  -10.9665   19.6162 H   0  0  0  0  0  0
  -21.2016   -7.6151   23.9714 H   0  0  0  0  0  0
  -21.1481   -6.0525   25.9073 H   0  0  0  0  0  0
  -22.0601   -2.7612   23.2844 H   0  0  0  0  0  0
  -22.4098  -11.9863   22.4796 H   0  0  0  0  0  0
  -21.1103  -13.1241   22.2659 H   0  0  0  0  0  0
  -24.6591  -15.8529   20.5356 H   0  0  0  0  0  0
  -26.2800  -15.6356   20.1098 H   0  0  0  0  0  0
  -26.7218  -32.5406   23.1066 H   0  0  0  0  0  0
  -25.0127  -33.9694   25.0422 H   0  0  0  0  0  0
  -22.7220  -31.3063   21.4024 H   0  0  0  0  0  0
  -23.3759  -35.9601   23.3283 H   0  0  0  0  0  0
  -24.3588  -36.8914   22.2055 H   0  0  0  0  0  0
  -23.7230  -37.6473   23.6663 H   0  0  0  0  0  0
  -26.1124  -31.5341   20.6097 H   0  0  0  0  0  0
  -26.8495  -30.8176   22.0104 H   0  0  0  0  0  0
  -28.1148  -28.9257   21.1973 H   0  0  0  0  0  0
  -25.9021  -25.9193   18.9962 H   0  0  0  0  0  0
  -23.9555  -27.3205   19.0066 H   0  0  0  0  0  0
  -23.7719  -30.6009   19.4051 H   0  0  0  0  0  0
  -22.7574  -29.2623   19.8500 H   0  0  0  0  0  0
  -25.1295  -36.1909   25.0818 H   0  0  0  0  0  0
  -20.9995  -28.3278   24.1389 H   0  0  0  0  0  0
  -20.5682  -26.2311   23.3608 H   0  0  0  0  0  0
  -21.6652  -26.7448   22.1200 H   0  0  0  0  0  0
  -19.6916  -25.6298   21.1244 H   0  0  0  0  0  0
  -19.6692  -27.3190   20.6729 H   0  0  0  0  0  0
  -17.4205  -26.6679   21.4025 H   0  0  0  0  0  0
  -18.0339  -26.0081   22.9026 H   0  0  0  0  0  0
  -19.7945  -30.7272   24.2269 H   0  0  0  0  0  0
  -17.5025  -31.6275   24.5159 H   0  0  0  0  0  0
  -15.5359  -30.2986   23.7660 H   0  0  0  0  0  0
  -15.8682  -28.0821   22.7070 H   0  0  0  0  0  0
  -24.5909  -30.7102   25.7787 H   0  0  0  0  0  0
  -24.8937  -32.2933   26.4847 H   0  0  0  0  0  0
  -25.8062  -30.8955   27.0236 H   0  0  0  0  0  0
  -26.2920  -29.6758   24.1218 H   0  0  0  0  0  0
  -27.4002  -29.7252   25.4727 H   0  0  0  0  0  0
  -27.8811  -30.4257   23.9456 H   0  0  0  0  0  0
  -27.2674  -33.3623   26.2065 H   0  0  0  0  0  0
  -28.3887  -32.6884   25.0336 H   0  0  0  0  0  0
  -28.0721  -31.8454   26.5427 H   0  0  0  0  0  0
  -28.2587  -38.0101   24.7529 H   0  0  0  0  0  0
  -28.1087  -36.2638   24.6259 H   0  0  0  0  0  0
  -27.2307  -37.1411   25.8867 H   0  0  0  0  0  0
  -20.9387  -29.8785   21.6881 H   0  0  0  0  0  0
  -26.0162  -38.2843   24.1431 H   0  0  0  0  0  0
  -29.6362  -16.3842   22.5982 H   0  0  0  0  0  0
  -30.1316  -22.0406   19.1867 H   0  0  0  0  0  0
  -28.5317  -22.3856   18.6154 H   0  0  0  0  0  0
  -26.5796  -22.5569   20.4718 H   0  0  0  0  0  0
  -27.0263  -22.2557   22.1284 H   0  0  0  0  0  0
  -29.8363  -24.4761   18.7526 H   0  0  0  0  0  0
  -30.1959  -24.2200   20.4329 H   0  0  0  0  0  0
  -28.3998  -24.3357   22.1458 H   0  0  0  0  0  0
  -26.7532  -24.6557   21.6937 H   0  0  0  0  0  0
  -29.3098  -21.6318   21.4835 H   0  0  0  0  0  0
  -27.4552  -24.6712   19.2572 H   0  0  0  0  0  0
  -29.7419  -19.7367   17.8835 H   0  0  0  0  0  0
  -28.3125  -18.7609   17.5054 H   0  0  0  0  0  0
  -29.9277  -18.1503   17.1460 H   0  0  0  0  0  0
  -26.3933  -18.8191   20.6895 H   0  0  0  0  0  0
  -25.9338  -20.4921   20.7400 H   0  0  0  0  0  0
  -26.8324  -19.7891   22.0864 H   0  0  0  0  0  0
  -27.7990  -20.2277   19.2797 H   0  0  0  0  0  0
  1 25  1  0  0  0
  1 30  2  0  0  0
  1 72  1  0  0  0
  2  3  1  0  0  0
  2 25  1  0  0  0
  2 86  1  0  0  0
  2 87  1  0  0  0
  3  4  1  0  0  0
  3 88  1  0  0  0
  3 89  1  0  0  0
  4  5  1  0  0  0
  4 90  1  0  0  0
  4 91  1  0  0  0
  5  6  1  0  0  0
  5 26  1  0  0  0
  5 92  1  0  0  0
  6 25  1  0  0  0
  6 93  1  0  0  0
  6 94  1  0  0  0
  7  8  2  0  0  0
  7 26  1  0  0  0
  7 29  1  0  0  0
  8  9  1  0  0  0
  8 22  1  0  0  0
  9 10  1  0  0  0
  9 27  2  0  0  0
 10 11  2  0  0  0
 10 15  1  0  0  0
 11 12  1  0  0  0
 11 95  1  0  0  0
 12 13  2  0  0  0
 12 96  1  0  0  0
 13 14  1  0  0  0
 13 31  1  0  0  0
 14 15  2  0  0  0
 14 97  1  0  0  0
 15 98  1  0  0  0
 16 17  2  0  0  0
 16 21  1  0  0  0
 16 31  1  0  0  0
 17 18  1  0  0  0
 17 99  1  0  0  0
 18 19  2  0  0  0
 18100  1  0  0  0
 19 20  1  0  0  0
 19 24  1  0  0  0
 20 21  2  0  0  0
 20101  1  0  0  0
 21 23  1  0  0  0
 22 28  1  0  0  0
 22 32  2  0  0  0
 26 27  1  0  0  0
 28102  1  0  0  0
 28103  1  0  0  0
 29104  1  0  0  0
 29105  1  0  0  0
 33 34  1  0  0  0
 33 66  1  0  0  0
 33 70  2  0  0  0
 34 36  1  0  0  0
 34 59  1  0  0  0
 34106  1  0  0  0
 35 44  2  0  0  0
 35 45  1  0  0  0
 35 68  1  0  0  0
 36 56  1  0  0  0
 36107  1  0  0  0
 37 39  1  0  0  0
 37 47  1  0  0  0
 37 66  1  0  0  0
 37108  1  0  0  0
 38 43  2  0  0  0
 38 46  1  0  0  0
 38 47  1  0  0  0
 39 64  1  0  0  0
 39 67  2  0  0  0
 40 52  1  0  0  0
 40 53  2  0  0  0
 40 58  1  0  0  0
 41109  1  0  0  0
 41110  1  0  0  0
 41111  1  0  0  0
 41 48  1  0  0  0
 42 43  1  0  0  0
 42 66  1  0  0  0
 42112  1  0  0  0
 42113  1  0  0  0
 43 44  1  0  0  0
 44114  1  0  0  0
 45 46  2  0  0  0
 45115  1  0  0  0
 46116  1  0  0  0
 47117  1  0  0  0
 47118  1  0  0  0
 48 56  1  0  0  0
 48 65  1  0  0  0
 48119  1  0  0  0
 49 50  1  0  0  0
 49 53  1  0  0  0
 49 64  1  0  0  0
 49120  1  0  0  0
 50 51  1  0  0  0
 50121  1  0  0  0
 50122  1  0  0  0
 51 52  1  0  0  0
 51123  1  0  0  0
 51124  1  0  0  0
 52125  1  0  0  0
 52126  1  0  0  0
 53 54  1  0  0  0
 54 55  2  0  0  0
 54127  1  0  0  0
 55 57  1  0  0  0
 55128  1  0  0  0
 56 69  2  0  0  0
 57 58  2  0  0  0
 57129  1  0  0  0
 58130  1  0  0  0
 59 60  1  0  0  0
 59 61  1  0  0  0
 59 62  1  0  0  0
 60131  1  0  0  0
 60132  1  0  0  0
 60133  1  0  0  0
 61134  1  0  0  0
 61135  1  0  0  0
 61136  1  0  0  0
 62137  1  0  0  0
 62138  1  0  0  0
 62139  1  0  0  0
 63 65  1  0  0  0
 63140  1  0  0  0
 63141  1  0  0  0
 63142  1  0  0  0
 64143  1  0  0  0
 65144  1  0  0  0
 68 80  1  0  0  0
 71 72  2  0  0  0
 71 84  1  0  0  0
 71145  1  0  0  0
 72 85  1  0  0  0
 73 74  1  0  0  0
 73 81  1  0  0  0
 73 85  2  0  0  0
 74 83  1  0  0  0
 74 84  2  0  0  0
 75 77  1  0  0  0
 75146  1  0  0  0
 75147  1  0  0  0
 75 79  1  0  0  0
 76 78  1  0  0  0
 76 79  1  0  0  0
 76148  1  0  0  0
 76149  1  0  0  0
 77 80  1  0  0  0
 77150  1  0  0  0
 77151  1  0  0  0
 78 80  1  0  0  0
 78152  1  0  0  0
 78153  1  0  0  0
 79 83  1  0  0  0
 79154  1  0  0  0
 80155  1  0  0  0
 81156  1  0  0  0
 81157  1  0  0  0
 81158  1  0  0  0
 82159  1  0  0  0
 82160  1  0  0  0
 82161  1  0  0  0
 82 83  1  0  0  0
 83162  1  0  0  0
M  ISO  4   1 100  68 101  72 100  80 101
M  END
> <chiral flag>
0

> <version>
0

> <s_m_source_file>
/data/baiqing/PycharmProjects/Reinvent-master-3.2/result/LINK_invent/BTK/process_docking_weight1_custom_sum_contain_oxygen_bond_distance_aromatic_linkinvent_7_9_3/rearranged_h_0075.sdf

> <i_m_source_file_index>
13

> <r_mmod_Potential_Energy-OPLS-2005>
405.905914306641

> <r_mmod_Stretch_Energy-OPLS-2005>
123.52262878418

> <r_mmod_Bend_Energy-OPLS-2005>
194.121475219727

> <r_mmod_Torsional_Energy-OPLS-2005>
240.863357543945

> <r_mmod_Improper_Torsional_Energy-OPLS-2005>
11.3899946212769

> <r_mmod_Van_der_Waal_Energy-OPLS-2005>
145.741638183594

> <r_mmod_Electrostatic_Energy-OPLS-2005>
-192.860107421875

> <r_mmod_Solvation_Energy-OPLS-2005>
-198.205841064453

> <b_mmod_Minimization_Converged-OPLS-2005>
0

> <r_mmod_RMS_Derivative-OPLS-2005>
1.13960349559784

$$$$
13
                    3D
 Structure written by MMmdl.
167175  0  0  1  0            999 V2000
  -30.7297  -14.4653   20.5386 C   0  0  0  0  0  0
  -30.4222  -12.2926   19.4346 C   0  0  0  0  0  0
  -29.4972  -12.4899   18.2123 C   0  0  0  0  0  0
  -28.0133  -12.3878   18.6145 C   0  0  0  0  0  0
  -27.6678  -13.2179   19.8844 C   0  0  2  0  0  0
  -28.7204  -12.9979   21.0011 C   0  0  0  0  0  0
  -25.2651  -13.8203   20.5729 C   0  0  0  0  0  0
  -24.1851  -13.0467   20.9181 C   0  0  0  0  0  0
  -24.6417  -11.6958   20.8749 C   0  0  0  0  0  0
  -23.9084  -10.4334   21.0439 C   0  0  0  0  0  0
  -24.3646   -9.4243   21.9211 C   0  0  0  0  0  0
  -23.6315   -8.2269   22.0759 C   0  0  0  0  0  0
  -22.4294   -8.0309   21.3561 C   0  0  0  0  0  0
  -21.9934   -9.0281   20.4663 C   0  0  0  0  0  0
  -22.7259  -10.2158   20.3084 C   0  0  0  0  0  0
  -21.6842   -6.0788   22.5282 C   0  0  0  0  0  0
  -21.4006   -6.5683   23.8215 C   0  0  0  0  0  0
  -21.3643   -5.6801   24.9166 C   0  0  0  0  0  0
  -21.6047   -4.3070   24.7198 C   0  0  0  0  0  0
  -21.8808   -3.8177   23.4314 C   0  0  0  0  0  0
  -21.9168   -4.7020   22.3396 C   0  0  0  0  0  0
  -22.7852  -13.5294   21.1804 C   0  0  0  0  0  0
  -22.1639   -4.2224   21.0977 F   0  0  0  0  0  0
  -21.5646   -3.4552   25.7705 F   0  0  0  0  0  0
  -30.0543  -13.2880   20.4511 N   0  0  0  0  0  0
  -26.3079  -12.9376   20.3420 N   0  0  0  0  0  0
  -25.9357  -11.6524   20.5790 N   0  0  0  0  0  0
  -22.0443  -12.8318   22.0364 N   0  0  0  0  0  0
  -25.4447  -15.1884   20.4232 N   0  0  0  0  0  0
  -31.8564  -14.6296   20.0667 O   0  0  0  0  0  0
  -21.6645   -6.8919   21.4234 O   0  0  0  0  0  0
  -22.3549  -14.5576   20.6576 O   0  0  0  0  0  0
  -24.6223  -31.8646   23.2053 C   0  0  0  0  0  0
  -25.9117  -32.4787   23.8335 C   0  0  1  0  0  0
  -27.2385  -27.4276   20.0706 C   0  0  0  0  0  0
  -25.6002  -33.8584   24.2285 N   0  0  0  0  0  0
  -23.4058  -30.4899   21.5489 C   0  0  2  0  0  0
  -24.8527  -28.9611   20.1015 C   0  0  0  0  0  0
  -22.7399  -29.4644   22.4977 C   0  0  0  0  0  0
  -18.0274  -28.1373   22.8498 C   0  0  0  0  0  0
  -24.1484  -36.7267   23.2625 C   0  0  0  0  0  0
  -25.9365  -30.8306   21.3538 C   0  0  0  0  0  0
  -26.0163  -29.4684   20.6913 C   0  0  0  0  0  0
  -27.2127  -28.7078   20.6785 C   0  0  0  0  0  0
  -26.0463  -26.9296   19.5091 C   0  0  0  0  0  0
  -24.8620  -27.6886   19.5055 C   0  0  0  0  0  0
  -23.6125  -29.8254   20.1616 C   0  0  0  0  0  0
  -25.4104  -36.3074   24.0339 C   0  0  1  0  0  0
  -20.5862  -28.3666   23.1297 C   0  0  2  0  0  0
  -20.6777  -26.9405   22.5413 C   0  0  0  0  0  0
  -19.5753  -26.6398   21.5208 C   0  0  0  0  0  0
  -18.1930  -26.7920   22.1620 C   0  0  0  0  0  0
  -19.1528  -28.8846   23.2891 C   0  0  0  0  0  0
  -18.9456  -30.1455   23.8895 C   0  0  0  0  0  0
  -17.6465  -30.6599   24.0547 C   0  0  0  0  0  0
  -25.9058  -34.9452   23.5096 C   0  0  0  0  0  0
  -16.5363  -29.9091   23.6313 C   0  0  0  0  0  0
  -16.7250  -28.6499   23.0335 C   0  0  0  0  0  0
  -26.4513  -31.6528   25.0663 C   0  0  0  0  0  0
  -25.3791  -31.3674   26.1429 C   0  0  0  0  0  0
  -27.0288  -30.2957   24.6016 C   0  0  0  0  0  0
  -27.6071  -32.4236   25.7481 C   0  0  0  0  0  0
  -27.5555  -37.1774   24.8463 C   0  0  0  0  0  0
  -21.4135  -29.3030   22.3714 N   0  0  0  0  0  0
  -26.4247  -37.3789   23.9438 N   0  0  0  0  0  0
  -24.6737  -31.0725   22.0968 N   0  0  0  0  0  0
  -23.4169  -28.8182   23.3026 O   0  0  0  0  0  0
  -28.3432  -26.6043   20.1846 O   0  0  0  0  0  0
  -26.5579  -34.8934   22.4643 O   0  0  0  0  0  0
  -23.5438  -32.1406   23.7485 O   0  0  0  0  0  0
  -29.4031  -20.5552   20.2049 C   0  0  0  0  0  0
  -29.0982  -19.2085   20.2528 C   0  0  0  0  0  0
  -30.6619  -18.5401   22.1207 C   0  0  0  0  0  0
  -28.3353  -17.6226   22.0218 C   0  0  0  0  0  0
  -30.2898  -24.8047   17.4223 C   0  0  0  0  0  0
  -27.8076  -24.9795   17.3655 C   0  0  0  0  0  0
  -28.9740  -23.6740   19.2586 C   0  0  0  0  0  0
  -28.4448  -22.3761   18.5557 C   0  0  0  0  0  0
  -30.1216  -16.8646   20.3267 C   0  0  0  0  0  0
  -29.1687  -26.3237   19.0498 C   0  0  0  0  0  0
  -29.5476  -18.0612   21.1660 C   0  0  0  0  0  0
  -29.0278  -24.9361   18.3125 C   0  0  0  0  0  0
  -28.1230  -18.9702   19.2811 N   0  0  0  0  0  0
  -27.8444  -20.0649   18.6554 N   0  0  0  0  0  0
  -28.5834  -21.0600   19.1988 N   0  0  0  0  0  0
  -30.0050  -15.5232   20.9409 N   0  0  0  0  0  0
  -31.4632  -12.3837   19.1216 H   0  0  0  0  0  0
  -30.3204  -11.2861   19.8422 H   0  0  0  0  0  0
  -29.7325  -11.7478   17.4457 H   0  0  0  0  0  0
  -29.6821  -13.4682   17.7633 H   0  0  0  0  0  0
  -27.7795  -11.3367   18.7776 H   0  0  0  0  0  0
  -27.3888  -12.7071   17.7785 H   0  0  0  0  0  0
  -27.7042  -14.2707   19.6018 H   0  0  0  0  0  0
  -28.6867  -11.9587   21.3350 H   0  0  0  0  0  0
  -28.5043  -13.6050   21.8802 H   0  0  0  0  0  0
  -25.2787   -9.5724   22.4797 H   0  0  0  0  0  0
  -24.0061   -7.4670   22.7492 H   0  0  0  0  0  0
  -21.0850   -8.8792   19.8976 H   0  0  0  0  0  0
  -22.3715  -10.9718   19.6230 H   0  0  0  0  0  0
  -21.1977   -7.6193   23.9762 H   0  0  0  0  0  0
  -21.1501   -6.0515   25.9080 H   0  0  0  0  0  0
  -22.0601   -2.7647   23.2750 H   0  0  0  0  0  0
  -22.3900  -11.9993   22.4924 H   0  0  0  0  0  0
  -21.1077  -13.1415   22.2535 H   0  0  0  0  0  0
  -24.6876  -15.8487   20.5498 H   0  0  0  0  0  0
  -26.3072  -15.6350   20.1316 H   0  0  0  0  0  0
  -26.7192  -32.5442   23.1089 H   0  0  0  0  0  0
  -25.0265  -33.9717   25.0526 H   0  0  0  0  0  0
  -22.6957  -31.3093   21.4094 H   0  0  0  0  0  0
  -23.3737  -35.9596   23.3284 H   0  0  0  0  0  0
  -24.3605  -36.8904   22.2042 H   0  0  0  0  0  0
  -23.7265  -37.6504   23.6612 H   0  0  0  0  0  0
  -26.0485  -31.5988   20.5830 H   0  0  0  0  0  0
  -26.8277  -30.8816   21.9688 H   0  0  0  0  0  0
  -28.1015  -29.0836   21.1678 H   0  0  0  0  0  0
  -25.9958  -25.9211   19.1379 H   0  0  0  0  0  0
  -23.9621  -27.2676   19.0815 H   0  0  0  0  0  0
  -23.7140  -30.6035   19.4032 H   0  0  0  0  0  0
  -22.7348  -29.2521   19.8641 H   0  0  0  0  0  0
  -25.1264  -36.1896   25.0825 H   0  0  0  0  0  0
  -20.9943  -28.3254   24.1419 H   0  0  0  0  0  0
  -20.5706  -26.2277   23.3610 H   0  0  0  0  0  0
  -21.6632  -26.7486   22.1195 H   0  0  0  0  0  0
  -19.6946  -25.6319   21.1219 H   0  0  0  0  0  0
  -19.6703  -27.3227   20.6759 H   0  0  0  0  0  0
  -17.4205  -26.6680   21.4007 H   0  0  0  0  0  0
  -18.0322  -26.0041   22.9007 H   0  0  0  0  0  0
  -19.7946  -30.7245   24.2274 H   0  0  0  0  0  0
  -17.5033  -31.6251   24.5164 H   0  0  0  0  0  0
  -15.5362  -30.3004   23.7637 H   0  0  0  0  0  0
  -15.8639  -28.0821   22.7062 H   0  0  0  0  0  0
  -24.6018  -30.6937   25.7809 H   0  0  0  0  0  0
  -24.8924  -32.2840   26.4750 H   0  0  0  0  0  0
  -25.8218  -30.8983   27.0229 H   0  0  0  0  0  0
  -26.2812  -29.6779   24.1036 H   0  0  0  0  0  0
  -27.4024  -29.7128   25.4438 H   0  0  0  0  0  0
  -27.8639  -30.4232   23.9137 H   0  0  0  0  0  0
  -27.2653  -33.3536   26.2031 H   0  0  0  0  0  0
  -28.3917  -32.6832   25.0348 H   0  0  0  0  0  0
  -28.0642  -31.8370   26.5456 H   0  0  0  0  0  0
  -28.2537  -38.0088   24.7521 H   0  0  0  0  0  0
  -28.1081  -36.2642   24.6223 H   0  0  0  0  0  0
  -27.2285  -37.1346   25.8864 H   0  0  0  0  0  0
  -20.9337  -29.8718   21.6890 H   0  0  0  0  0  0
  -26.0105  -38.2841   24.1520 H   0  0  0  0  0  0
  -30.0931  -21.1656   20.7726 H   0  0  0  0  0  0
  -31.5605  -18.8444   21.5826 H   0  0  0  0  0  0
  -30.3358  -19.3954   22.7128 H   0  0  0  0  0  0
  -30.9553  -17.7577   22.8183 H   0  0  0  0  0  0
  -27.5185  -17.2585   21.3948 H   0  0  0  0  0  0
  -27.9520  -18.4631   22.6037 H   0  0  0  0  0  0
  -28.5769  -16.8233   22.7240 H   0  0  0  0  0  0
  -30.3020  -23.8836   16.8368 H   0  0  0  0  0  0
  -31.2023  -24.8044   18.0176 H   0  0  0  0  0  0
  -30.3647  -25.6363   16.7180 H   0  0  0  0  0  0
  -26.9072  -24.6058   17.8452 H   0  0  0  0  0  0
  -27.9653  -24.3620   16.4797 H   0  0  0  0  0  0
  -27.5956  -25.9864   17.0080 H   0  0  0  0  0  0
  -29.9670  -23.4963   19.6704 H   0  0  0  0  0  0
  -28.3394  -23.8860   20.1206 H   0  0  0  0  0  0
  -28.8869  -22.2779   17.5654 H   0  0  0  0  0  0
  -27.3738  -22.5018   18.3750 H   0  0  0  0  0  0
  -29.5562  -16.7773   19.3983 H   0  0  0  0  0  0
  -31.1472  -17.0860   20.0159 H   0  0  0  0  0  0
  -29.1030  -27.1422   18.3333 H   0  0  0  0  0  0
  -30.1783  -26.3865   19.4546 H   0  0  0  0  0  0
  -29.1214  -15.3036   21.3671 H   0  0  0  0  0  0
  1 25  1  0  0  0
  1 30  2  0  0  0
  1 86  1  0  0  0
  2  3  1  0  0  0
  2 25  1  0  0  0
  2 87  1  0  0  0
  2 88  1  0  0  0
  3  4  1  0  0  0
  3 89  1  0  0  0
  3 90  1  0  0  0
  4  5  1  0  0  0
  4 91  1  0  0  0
  4 92  1  0  0  0
  5  6  1  0  0  0
  5 26  1  0  0  0
  5 93  1  0  0  0
  6 25  1  0  0  0
  6 94  1  0  0  0
  6 95  1  0  0  0
  7  8  2  0  0  0
  7 26  1  0  0  0
  7 29  1  0  0  0
  8  9  1  0  0  0
  8 22  1  0  0  0
  9 10  1  0  0  0
  9 27  2  0  0  0
 10 11  2  0  0  0
 10 15  1  0  0  0
 11 12  1  0  0  0
 11 96  1  0  0  0
 12 13  2  0  0  0
 12 97  1  0  0  0
 13 14  1  0  0  0
 13 31  1  0  0  0
 14 15  2  0  0  0
 14 98  1  0  0  0
 15 99  1  0  0  0
 16 17  2  0  0  0
 16 21  1  0  0  0
 16 31  1  0  0  0
 17 18  1  0  0  0
 17100  1  0  0  0
 18 19  2  0  0  0
 18101  1  0  0  0
 19 20  1  0  0  0
 19 24  1  0  0  0
 20 21  2  0  0  0
 20102  1  0  0  0
 21 23  1  0  0  0
 22 28  1  0  0  0
 22 32  2  0  0  0
 26 27  1  0  0  0
 28103  1  0  0  0
 28104  1  0  0  0
 29105  1  0  0  0
 29106  1  0  0  0
 33 34  1  0  0  0
 33 66  1  0  0  0
 33 70  2  0  0  0
 34 36  1  0  0  0
 34 59  1  0  0  0
 34107  1  0  0  0
 35 44  2  0  0  0
 35 45  1  0  0  0
 35 68  1  0  0  0
 36 56  1  0  0  0
 36108  1  0  0  0
 37 39  1  0  0  0
 37 47  1  0  0  0
 37 66  1  0  0  0
 37109  1  0  0  0
 38 43  2  0  0  0
 38 46  1  0  0  0
 38 47  1  0  0  0
 39 64  1  0  0  0
 39 67  2  0  0  0
 40 52  1  0  0  0
 40 53  2  0  0  0
 40 58  1  0  0  0
 41110  1  0  0  0
 41111  1  0  0  0
 41112  1  0  0  0
 41 48  1  0  0  0
 42 43  1  0  0  0
 42 66  1  0  0  0
 42113  1  0  0  0
 42114  1  0  0  0
 43 44  1  0  0  0
 44115  1  0  0  0
 45 46  2  0  0  0
 45116  1  0  0  0
 46117  1  0  0  0
 47118  1  0  0  0
 47119  1  0  0  0
 48 56  1  0  0  0
 48 65  1  0  0  0
 48120  1  0  0  0
 49 50  1  0  0  0
 49 53  1  0  0  0
 49 64  1  0  0  0
 49121  1  0  0  0
 50 51  1  0  0  0
 50122  1  0  0  0
 50123  1  0  0  0
 51 52  1  0  0  0
 51124  1  0  0  0
 51125  1  0  0  0
 52126  1  0  0  0
 52127  1  0  0  0
 53 54  1  0  0  0
 54 55  2  0  0  0
 54128  1  0  0  0
 55 57  1  0  0  0
 55129  1  0  0  0
 56 69  2  0  0  0
 57 58  2  0  0  0
 57130  1  0  0  0
 58131  1  0  0  0
 59 60  1  0  0  0
 59 61  1  0  0  0
 59 62  1  0  0  0
 60132  1  0  0  0
 60133  1  0  0  0
 60134  1  0  0  0
 61135  1  0  0  0
 61136  1  0  0  0
 61137  1  0  0  0
 62138  1  0  0  0
 62139  1  0  0  0
 62140  1  0  0  0
 63 65  1  0  0  0
 63141  1  0  0  0
 63142  1  0  0  0
 63143  1  0  0  0
 64144  1  0  0  0
 65145  1  0  0  0
 68 80  1  0  0  0
 71 72  2  0  0  0
 71 85  1  0  0  0
 71146  1  0  0  0
 72 81  1  0  0  0
 72 83  1  0  0  0
 73147  1  0  0  0
 73148  1  0  0  0
 73149  1  0  0  0
 73 81  1  0  0  0
 74 81  1  0  0  0
 74150  1  0  0  0
 74151  1  0  0  0
 74152  1  0  0  0
 75153  1  0  0  0
 75154  1  0  0  0
 75155  1  0  0  0
 75 82  1  0  0  0
 76 82  1  0  0  0
 76156  1  0  0  0
 76157  1  0  0  0
 76158  1  0  0  0
 77 78  1  0  0  0
 77 82  1  0  0  0
 77159  1  0  0  0
 77160  1  0  0  0
 78 85  1  0  0  0
 78161  1  0  0  0
 78162  1  0  0  0
 79 81  1  0  0  0
 79 86  1  0  0  0
 79163  1  0  0  0
 79164  1  0  0  0
 80 82  1  0  0  0
 80165  1  0  0  0
 80166  1  0  0  0
 83 84  2  0  0  0
 84 85  1  0  0  0
 86167  1  0  0  0
M  ISO  4   1 100  68 101  80 101  86 100
M  END
> <chiral flag>
0

> <version>
0

> <s_m_source_file>
/data/baiqing/PycharmProjects/Reinvent-master-3.2/result/LINK_invent/BTK/process_docking_weight1_custom_sum_contain_oxygen_bond_distance_aromatic_linkinvent_7_9_3/rearranged_h_0075.sdf

> <i_m_source_file_index>
14

> <r_mmod_Potential_Energy-OPLS-2005>
-51.955379486084

> <r_mmod_Stretch_Energy-OPLS-2005>
47.0765228271484

> <r_mmod_Bend_Energy-OPLS-2005>
139.492111206055

> <r_mmod_Torsional_Energy-OPLS-2005>
272.993927001953

> <r_mmod_Improper_Torsional_Energy-OPLS-2005>
8.68945407867432

> <r_mmod_Van_der_Waal_Energy-OPLS-2005>
131.15705871582

> <r_mmod_Electrostatic_Energy-OPLS-2005>
-465.383575439453

> <r_mmod_Solvation_Energy-OPLS-2005>
-204.296569824219

> <b_mmod_Minimization_Converged-OPLS-2005>
0

> <r_mmod_RMS_Derivative-OPLS-2005>
6.08312177658081

$$$$
14
                    3D
 Structure written by MMmdl.
162170  0  0  1  0            999 V2000
  -30.6011  -14.7551   20.4606 C   0  0  0  0  0  0
  -30.4371  -12.4641   19.4705 C   0  0  0  0  0  0
  -29.5141  -12.5172   18.2346 C   0  0  0  0  0  0
  -28.0365  -12.3415   18.6385 C   0  0  0  0  0  0
  -27.6397  -13.2344   19.8460 C   0  0  2  0  0  0
  -28.6845  -13.1629   20.9808 C   0  0  0  0  0  0
  -25.2516  -13.8213   20.5711 C   0  0  0  0  0  0
  -24.1806  -13.0473   20.9238 C   0  0  0  0  0  0
  -24.6388  -11.6944   20.8757 C   0  0  0  0  0  0
  -23.9058  -10.4319   21.0401 C   0  0  0  0  0  0
  -24.3619   -9.4244   21.9172 C   0  0  0  0  0  0
  -23.6304   -8.2265   22.0738 C   0  0  0  0  0  0
  -22.4281   -8.0301   21.3540 C   0  0  0  0  0  0
  -21.9912   -9.0277   20.4653 C   0  0  0  0  0  0
  -22.7233  -10.2155   20.3054 C   0  0  0  0  0  0
  -21.6863   -6.0753   22.5294 C   0  0  0  0  0  0
  -21.4029   -6.5655   23.8229 C   0  0  0  0  0  0
  -21.3648   -5.6792   24.9175 C   0  0  0  0  0  0
  -21.6026   -4.3052   24.7218 C   0  0  0  0  0  0
  -21.8811   -3.8163   23.4338 C   0  0  0  0  0  0
  -21.9200   -4.6983   22.3409 C   0  0  0  0  0  0
  -22.7825  -13.5261   21.1877 C   0  0  0  0  0  0
  -22.1663   -4.2186   21.0975 F   0  0  0  0  0  0
  -21.5607   -3.4528   25.7718 F   0  0  0  0  0  0
  -29.9818  -13.5243   20.3978 N   0  0  0  0  0  0
  -26.2930  -12.9419   20.3261 N   0  0  0  0  0  0
  -25.9309  -11.6561   20.5736 N   0  0  0  0  0  0
  -22.0429  -12.8281   22.0438 N   0  0  0  0  0  0
  -25.4198  -15.1936   20.4108 N   0  0  0  0  0  0
  -31.7984  -14.8522   20.1779 O   0  0  0  0  0  0
  -21.6641   -6.8910   21.4252 O   0  0  0  0  0  0
  -22.3518  -14.5542   20.6679 O   0  0  0  0  0  0
  -24.6317  -31.8534   23.1957 C   0  0  0  0  0  0
  -25.9125  -32.4752   23.8321 C   0  0  1  0  0  0
  -27.2091  -27.2392   20.1387 C   0  0  0  0  0  0
  -25.5894  -33.8554   24.2229 N   0  0  0  0  0  0
  -23.4296  -30.4778   21.5386 C   0  0  2  0  0  0
  -24.8762  -28.9187   20.1118 C   0  0  0  0  0  0
  -22.7494  -29.4611   22.4873 C   0  0  0  0  0  0
  -18.0279  -28.1385   22.8488 C   0  0  0  0  0  0
  -24.1466  -36.7280   23.2642 C   0  0  0  0  0  0
  -25.9785  -30.7594   21.3789 C   0  0  0  0  0  0
  -26.0487  -29.3787   20.7245 C   0  0  0  0  0  0
  -27.2213  -28.5512   20.7285 C   0  0  0  0  0  0
  -26.0257  -26.8654   19.4721 C   0  0  0  0  0  0
  -24.8681  -27.6679   19.4746 C   0  0  0  0  0  0
  -23.6481  -29.8084   20.1560 C   0  0  0  0  0  0
  -25.4095  -36.3060   24.0332 C   0  0  1  0  0  0
  -20.5893  -28.3698   23.1246 C   0  0  2  0  0  0
  -20.6772  -26.9408   22.5400 C   0  0  0  0  0  0
  -19.5746  -26.6370   21.5207 C   0  0  0  0  0  0
  -18.1930  -26.7925   22.1623 C   0  0  0  0  0  0
  -19.1543  -28.8857   23.2865 C   0  0  0  0  0  0
  -18.9475  -30.1454   23.8890 C   0  0  0  0  0  0
  -17.6485  -30.6592   24.0567 C   0  0  0  0  0  0
  -25.9046  -34.9441   23.5096 C   0  0  0  0  0  0
  -16.5363  -29.9105   23.6348 C   0  0  0  0  0  0
  -16.7275  -28.6511   23.0387 C   0  0  0  0  0  0
  -26.4460  -31.6601   25.0735 C   0  0  0  0  0  0
  -25.3669  -31.3845   26.1454 C   0  0  0  0  0  0
  -27.0299  -30.2996   24.6271 C   0  0  0  0  0  0
  -27.5990  -32.4363   25.7528 C   0  0  0  0  0  0
  -27.5566  -37.1792   24.8455 C   0  0  0  0  0  0
  -21.4199  -29.3057   22.3634 N   0  0  0  0  0  0
  -26.4256  -37.3772   23.9432 N   0  0  0  0  0  0
  -24.6995  -31.0504   22.0922 N   0  0  0  0  0  0
  -23.4204  -28.8144   23.2958 O   0  0  0  0  0  0
  -28.2835  -26.3119   20.1506 O   0  0  0  0  0  0
  -26.5654  -34.8927   22.4680 O   0  0  0  0  0  0
  -23.5462  -32.1342   23.7254 O   0  0  0  0  0  0
  -29.2806  -23.3897   18.8739 C   0  0  0  0  0  0
  -28.7616  -23.6197   20.1798 C   0  0  0  0  0  0
  -29.7238  -22.0798   18.8364 C   0  0  0  0  0  0
  -30.4544  -21.4026   17.7199 C   0  0  0  0  0  0
  -26.7468  -24.6260   21.3675 C   0  0  0  0  0  0
  -29.1506  -18.4622   18.7477 C   0  0  0  0  0  0
  -27.9711  -18.5421   20.9330 C   0  0  0  0  0  0
  -29.9706  -20.1049   20.6000 C   0  0  0  0  0  0
  -30.2616  -17.3626   20.7843 C   0  0  0  0  0  0
  -28.1583  -24.9532   20.8308 C   0  0  2  0  0  0
  -29.3538  -18.6237   20.2642 C   0  0  0  0  0  0
  -28.8861  -22.4385   20.8666 N   0  0  0  0  0  0
  -29.4537  -21.4548   20.0574 N   0  0  0  0  0  0
  -29.8253  -15.8916   20.6484 N   0  0  0  0  0  0
  -31.4768  -12.5987   19.1683 H   0  0  0  0  0  0
  -30.3896  -11.4837   19.9480 H   0  0  0  0  0  0
  -29.8013  -11.7473   17.5172 H   0  0  0  0  0  0
  -29.6421  -13.4774   17.7298 H   0  0  0  0  0  0
  -27.8822  -11.2914   18.8862 H   0  0  0  0  0  0
  -27.3871  -12.5469   17.7864 H   0  0  0  0  0  0
  -27.6346  -14.2588   19.4722 H   0  0  0  0  0  0
  -28.7238  -12.1597   21.4067 H   0  0  0  0  0  0
  -28.4148  -13.8310   21.8012 H   0  0  0  0  0  0
  -25.2762   -9.5727   22.4755 H   0  0  0  0  0  0
  -24.0041   -7.4641   22.7430 H   0  0  0  0  0  0
  -21.0856   -8.8789   19.8951 H   0  0  0  0  0  0
  -22.3695  -10.9692   19.6170 H   0  0  0  0  0  0
  -21.2021   -7.6164   23.9768 H   0  0  0  0  0  0
  -21.1475   -6.0501   25.9090 H   0  0  0  0  0  0
  -22.0598   -2.7639   23.2816 H   0  0  0  0  0  0
  -22.4029  -11.9996   22.4923 H   0  0  0  0  0  0
  -21.1032  -13.1307   22.2540 H   0  0  0  0  0  0
  -24.6477  -15.8415   20.5233 H   0  0  0  0  0  0
  -26.2498  -15.6322   20.0345 H   0  0  0  0  0  0
  -26.7206  -32.5381   23.1078 H   0  0  0  0  0  0
  -24.9966  -33.9685   25.0325 H   0  0  0  0  0  0
  -22.7253  -31.2992   21.3898 H   0  0  0  0  0  0
  -23.3742  -35.9591   23.3250 H   0  0  0  0  0  0
  -24.3556  -36.8957   22.2063 H   0  0  0  0  0  0
  -23.7195  -37.6458   23.6700 H   0  0  0  0  0  0
  -26.1202  -31.5153   20.6062 H   0  0  0  0  0  0
  -26.8559  -30.8087   22.0125 H   0  0  0  0  0  0
  -28.1190  -28.8980   21.2194 H   0  0  0  0  0  0
  -25.9805  -25.9115   18.9668 H   0  0  0  0  0  0
  -23.9735  -27.3115   18.9820 H   0  0  0  0  0  0
  -23.7735  -30.5803   19.3957 H   0  0  0  0  0  0
  -22.7653  -29.2436   19.8511 H   0  0  0  0  0  0
  -25.1277  -36.1878   25.0826 H   0  0  0  0  0  0
  -21.0010  -28.3278   24.1359 H   0  0  0  0  0  0
  -20.5634  -26.2329   23.3622 H   0  0  0  0  0  0
  -21.6648  -26.7401   22.1223 H   0  0  0  0  0  0
  -19.6909  -25.6274   21.1274 H   0  0  0  0  0  0
  -19.6691  -27.3147   20.6710 H   0  0  0  0  0  0
  -17.4203  -26.6656   21.4028 H   0  0  0  0  0  0
  -18.0328  -26.0067   22.9017 H   0  0  0  0  0  0
  -19.7959  -30.7255   24.2265 H   0  0  0  0  0  0
  -17.5058  -31.6280   24.5154 H   0  0  0  0  0  0
  -15.5378  -30.3031   23.7677 H   0  0  0  0  0  0
  -15.8656  -28.0829   22.7151 H   0  0  0  0  0  0
  -24.5766  -30.7271   25.7807 H   0  0  0  0  0  0
  -24.8962  -32.3076   26.4851 H   0  0  0  0  0  0
  -25.7947  -30.9026   27.0246 H   0  0  0  0  0  0
  -26.2913  -29.6778   24.1195 H   0  0  0  0  0  0
  -27.3819  -29.7232   25.4830 H   0  0  0  0  0  0
  -27.8848  -30.4238   23.9628 H   0  0  0  0  0  0
  -27.2542  -33.3660   26.2065 H   0  0  0  0  0  0
  -28.3825  -32.6934   25.0397 H   0  0  0  0  0  0
  -28.0600  -31.8521   26.5492 H   0  0  0  0  0  0
  -28.2567  -38.0109   24.7534 H   0  0  0  0  0  0
  -28.1086  -36.2649   24.6225 H   0  0  0  0  0  0
  -27.2310  -37.1373   25.8865 H   0  0  0  0  0  0
  -20.9358  -29.8802   21.6863 H   0  0  0  0  0  0
  -26.0118  -38.2829   24.1482 H   0  0  0  0  0  0
  -29.3673  -24.1131   18.0764 H   0  0  0  0  0  0
  -31.2100  -20.7118   18.0907 H   0  0  0  0  0  0
  -30.9699  -22.1295   17.0893 H   0  0  0  0  0  0
  -29.7680  -20.8419   17.0888 H   0  0  0  0  0  0
  -26.2907  -25.4612   21.8986 H   0  0  0  0  0  0
  -26.8015  -23.8001   22.0783 H   0  0  0  0  0  0
  -26.0739  -24.3044   20.5734 H   0  0  0  0  0  0
  -28.5312  -19.2614   18.3400 H   0  0  0  0  0  0
  -28.6514  -17.5217   18.5124 H   0  0  0  0  0  0
  -30.1064  -18.4725   18.2212 H   0  0  0  0  0  0
  -27.3066  -19.3289   20.5724 H   0  0  0  0  0  0
  -28.0495  -18.6583   22.0144 H   0  0  0  0  0  0
  -27.4825  -17.5873   20.7385 H   0  0  0  0  0  0
  -31.0223  -20.0651   20.3129 H   0  0  0  0  0  0
  -30.0111  -20.2023   21.6843 H   0  0  0  0  0  0
  -31.2507  -17.4595   20.3319 H   0  0  0  0  0  0
  -30.4324  -17.5135   21.8520 H   0  0  0  0  0  0
  -28.7557  -25.1168   21.7267 H   0  0  0  0  0  0
  -28.8425  -15.7087   20.7932 H   0  0  0  0  0  0
  1 25  1  0  0  0
  1 30  2  0  0  0
  1 84  1  0  0  0
  2  3  1  0  0  0
  2 25  1  0  0  0
  2 85  1  0  0  0
  2 86  1  0  0  0
  3  4  1  0  0  0
  3 87  1  0  0  0
  3 88  1  0  0  0
  4  5  1  0  0  0
  4 89  1  0  0  0
  4 90  1  0  0  0
  5  6  1  0  0  0
  5 26  1  0  0  0
  5 91  1  0  0  0
  6 25  1  0  0  0
  6 92  1  0  0  0
  6 93  1  0  0  0
  7  8  2  0  0  0
  7 26  1  0  0  0
  7 29  1  0  0  0
  8  9  1  0  0  0
  8 22  1  0  0  0
  9 10  1  0  0  0
  9 27  2  0  0  0
 10 11  2  0  0  0
 10 15  1  0  0  0
 11 12  1  0  0  0
 11 94  1  0  0  0
 12 13  2  0  0  0
 12 95  1  0  0  0
 13 14  1  0  0  0
 13 31  1  0  0  0
 14 15  2  0  0  0
 14 96  1  0  0  0
 15 97  1  0  0  0
 16 17  2  0  0  0
 16 21  1  0  0  0
 16 31  1  0  0  0
 17 18  1  0  0  0
 17 98  1  0  0  0
 18 19  2  0  0  0
 18 99  1  0  0  0
 19 20  1  0  0  0
 19 24  1  0  0  0
 20 21  2  0  0  0
 20100  1  0  0  0
 21 23  1  0  0  0
 22 28  1  0  0  0
 22 32  2  0  0  0
 26 27  1  0  0  0
 28101  1  0  0  0
 28102  1  0  0  0
 29103  1  0  0  0
 29104  1  0  0  0
 33 34  1  0  0  0
 33 66  1  0  0  0
 33 70  2  0  0  0
 34 36  1  0  0  0
 34 59  1  0  0  0
 34105  1  0  0  0
 35 44  2  0  0  0
 35 45  1  0  0  0
 35 68  1  0  0  0
 36 56  1  0  0  0
 36106  1  0  0  0
 37 39  1  0  0  0
 37 47  1  0  0  0
 37 66  1  0  0  0
 37107  1  0  0  0
 38 43  2  0  0  0
 38 46  1  0  0  0
 38 47  1  0  0  0
 39 64  1  0  0  0
 39 67  2  0  0  0
 40 52  1  0  0  0
 40 53  2  0  0  0
 40 58  1  0  0  0
 41108  1  0  0  0
 41109  1  0  0  0
 41110  1  0  0  0
 41 48  1  0  0  0
 42 43  1  0  0  0
 42 66  1  0  0  0
 42111  1  0  0  0
 42112  1  0  0  0
 43 44  1  0  0  0
 44113  1  0  0  0
 45 46  2  0  0  0
 45114  1  0  0  0
 46115  1  0  0  0
 47116  1  0  0  0
 47117  1  0  0  0
 48 56  1  0  0  0
 48 65  1  0  0  0
 48118  1  0  0  0
 49 50  1  0  0  0
 49 53  1  0  0  0
 49 64  1  0  0  0
 49119  1  0  0  0
 50 51  1  0  0  0
 50120  1  0  0  0
 50121  1  0  0  0
 51 52  1  0  0  0
 51122  1  0  0  0
 51123  1  0  0  0
 52124  1  0  0  0
 52125  1  0  0  0
 53 54  1  0  0  0
 54 55  2  0  0  0
 54126  1  0  0  0
 55 57  1  0  0  0
 55127  1  0  0  0
 56 69  2  0  0  0
 57 58  2  0  0  0
 57128  1  0  0  0
 58129  1  0  0  0
 59 60  1  0  0  0
 59 61  1  0  0  0
 59 62  1  0  0  0
 60130  1  0  0  0
 60131  1  0  0  0
 60132  1  0  0  0
 61133  1  0  0  0
 61134  1  0  0  0
 61135  1  0  0  0
 62136  1  0  0  0
 62137  1  0  0  0
 62138  1  0  0  0
 63 65  1  0  0  0
 63139  1  0  0  0
 63140  1  0  0  0
 63141  1  0  0  0
 64142  1  0  0  0
 65143  1  0  0  0
 68 80  1  0  0  0
 71 72  1  0  0  0
 71 73  2  0  0  0
 71144  1  0  0  0
 72 80  1  0  0  0
 72 82  2  0  0  0
 73 74  1  0  0  0
 73 83  1  0  0  0
 74145  1  0  0  0
 74146  1  0  0  0
 74147  1  0  0  0
 75148  1  0  0  0
 75149  1  0  0  0
 75150  1  0  0  0
 75 80  1  0  0  0
 76151  1  0  0  0
 76152  1  0  0  0
 76153  1  0  0  0
 76 81  1  0  0  0
 77 81  1  0  0  0
 77154  1  0  0  0
 77155  1  0  0  0
 77156  1  0  0  0
 78 81  1  0  0  0
 78 83  1  0  0  0
 78157  1  0  0  0
 78158  1  0  0  0
 79 81  1  0  0  0
 79 84  1  0  0  0
 79159  1  0  0  0
 79160  1  0  0  0
 80161  1  0  0  0
 82 83  1  0  0  0
 84162  1  0  0  0
M  ISO  4   1 100  68 101  80 101  84 100
M  END
> <chiral flag>
0

> <version>
0

> <s_m_source_file>
/data/baiqing/PycharmProjects/Reinvent-master-3.2/result/LINK_invent/BTK/process_docking_weight1_custom_sum_contain_oxygen_bond_distance_aromatic_linkinvent_7_9_3/rearranged_h_0075.sdf

> <i_m_source_file_index>
15

> <r_mmod_Potential_Energy-OPLS-2005>
178.506362915039

> <r_mmod_Stretch_Energy-OPLS-2005>
143.748809814453

> <r_mmod_Bend_Energy-OPLS-2005>
194.905349731445

> <r_mmod_Torsional_Energy-OPLS-2005>
253.097961425781

> <r_mmod_Improper_Torsional_Energy-OPLS-2005>
6.39761543273926

> <r_mmod_Van_der_Waal_Energy-OPLS-2005>
109.614372253418

> <r_mmod_Electrostatic_Energy-OPLS-2005>
-417.3720703125

> <r_mmod_Solvation_Energy-OPLS-2005>
-207.267303466797

> <b_mmod_Minimization_Converged-OPLS-2005>
0

> <r_mmod_RMS_Derivative-OPLS-2005>
3.38213968276978

$$$$
15
                    3D
 Structure written by MMmdl.
174182  0  0  1  0            999 V2000
  -30.7259  -14.4793   20.5704 C   0  0  0  0  0  0
  -30.4109  -12.3100   19.4465 C   0  0  0  0  0  0
  -29.4920  -12.4703   18.2177 C   0  0  0  0  0  0
  -28.0142  -12.3234   18.6259 C   0  0  0  0  0  0
  -27.6463  -13.1961   19.8547 C   0  0  2  0  0  0
  -28.6854  -13.0512   20.9914 C   0  0  0  0  0  0
  -25.2553  -13.8116   20.5691 C   0  0  0  0  0  0
  -24.1812  -13.0413   20.9224 C   0  0  0  0  0  0
  -24.6356  -11.6881   20.8783 C   0  0  0  0  0  0
  -23.9024  -10.4277   21.0441 C   0  0  0  0  0  0
  -24.3595   -9.4194   21.9203 C   0  0  0  0  0  0
  -23.6291   -8.2214   22.0739 C   0  0  0  0  0  0
  -22.4275   -8.0251   21.3518 C   0  0  0  0  0  0
  -21.9903   -9.0223   20.4635 C   0  0  0  0  0  0
  -22.7206  -10.2121   20.3075 C   0  0  0  0  0  0
  -21.6846   -6.0733   22.5284 C   0  0  0  0  0  0
  -21.3983   -6.5644   23.8209 C   0  0  0  0  0  0
  -21.3659   -5.6809   24.9183 C   0  0  0  0  0  0
  -21.6055   -4.3076   24.7237 C   0  0  0  0  0  0
  -21.8810   -3.8153   23.4356 C   0  0  0  0  0  0
  -21.9179   -4.6962   22.3413 C   0  0  0  0  0  0
  -22.7847  -13.5227   21.1909 C   0  0  0  0  0  0
  -22.1681   -4.2147   21.0993 F   0  0  0  0  0  0
  -21.5616   -3.4555   25.7750 F   0  0  0  0  0  0
  -30.0176  -13.3279   20.4311 N   0  0  0  0  0  0
  -26.2941  -12.9256   20.3291 N   0  0  0  0  0  0
  -25.9270  -11.6427   20.5769 N   0  0  0  0  0  0
  -22.0529  -12.8200   22.0489 N   0  0  0  0  0  0
  -25.4272  -15.1811   20.4059 N   0  0  0  0  0  0
  -31.8725  -14.6227   20.1508 O   0  0  0  0  0  0
  -21.6610   -6.8870   21.4238 O   0  0  0  0  0  0
  -22.3530  -14.5525   20.6763 O   0  0  0  0  0  0
  -24.6164  -31.8682   23.2106 C   0  0  0  0  0  0
  -25.9039  -32.4816   23.8420 C   0  0  1  0  0  0
  -27.2271  -27.4367   20.1041 C   0  0  0  0  0  0
  -25.5895  -33.8613   24.2325 N   0  0  0  0  0  0
  -23.4079  -30.4916   21.5502 C   0  0  2  0  0  0
  -24.8502  -28.9573   20.1130 C   0  0  0  0  0  0
  -22.7454  -29.4691   22.5020 C   0  0  0  0  0  0
  -18.0306  -28.1368   22.8468 C   0  0  0  0  0  0
  -24.1482  -36.7315   23.2642 C   0  0  0  0  0  0
  -25.9333  -30.8344   21.3617 C   0  0  0  0  0  0
  -26.0082  -29.4692   20.7124 C   0  0  0  0  0  0
  -27.2038  -28.7139   20.7092 C   0  0  0  0  0  0
  -26.0622  -26.9397   19.4890 C   0  0  0  0  0  0
  -24.8712  -27.6926   19.4959 C   0  0  0  0  0  0
  -23.6107  -29.8214   20.1650 C   0  0  0  0  0  0
  -25.4108  -36.3107   24.0344 C   0  0  1  0  0  0
  -20.5892  -28.3651   23.1295 C   0  0  2  0  0  0
  -20.6820  -26.9426   22.5273 C   0  0  0  0  0  0
  -19.5767  -26.6543   21.5069 C   0  0  0  0  0  0
  -18.1963  -26.7973   22.1478 C   0  0  0  0  0  0
  -19.1556  -28.8814   23.2902 C   0  0  0  0  0  0
  -18.9450  -30.1409   23.8941 C   0  0  0  0  0  0
  -17.6449  -30.6514   24.0585 C   0  0  0  0  0  0
  -25.9042  -34.9478   23.5137 C   0  0  0  0  0  0
  -16.5348  -29.9024   23.6316 C   0  0  0  0  0  0
  -16.7288  -28.6465   23.0320 C   0  0  0  0  0  0
  -26.4471  -31.6602   25.0751 C   0  0  0  0  0  0
  -25.3742  -31.3684   26.1503 C   0  0  0  0  0  0
  -27.0277  -30.3053   24.6088 C   0  0  0  0  0  0
  -27.6059  -32.4323   25.7488 C   0  0  0  0  0  0
  -27.5578  -37.1808   24.8472 C   0  0  0  0  0  0
  -21.4155  -29.3097   22.3781 N   0  0  0  0  0  0
  -26.4290  -37.3787   23.9413 N   0  0  0  0  0  0
  -24.6711  -31.0812   22.0985 N   0  0  0  0  0  0
  -23.4231  -28.8206   23.3031 O   0  0  0  0  0  0
  -28.3609  -26.6599   20.1283 O   0  0  0  0  0  0
  -26.5590  -34.8932   22.4683 O   0  0  0  0  0  0
  -23.5340  -32.1412   23.7489 O   0  0  0  0  0  0
  -28.6562  -20.9896   21.8699 C   0  0  0  0  0  0
  -27.6340  -21.9083   21.8649 C   0  0  0  0  0  0
  -26.4560  -21.1043   21.6614 C   0  0  0  0  0  0
  -24.4887  -22.4524   22.5682 C   0  0  0  0  0  0
  -24.0512  -20.2375   21.5609 C   0  0  0  0  0  0
  -24.7972  -22.1054   20.0868 C   0  0  0  0  0  0
  -30.7442  -18.2775   20.1706 C   0  0  0  0  0  0
  -28.4497  -18.4306   19.2041 C   0  0  0  0  0  0
  -27.7954  -23.4038   22.1081 C   0  0  0  0  0  0
  -28.0849  -24.2785   20.8614 C   0  0  0  0  0  0
  -28.7543  -18.4113   21.7537 C   0  0  0  0  0  0
  -29.1299  -16.3086   20.3149 C   0  0  0  0  0  0
  -28.4040  -25.7482   21.2379 C   0  0  0  0  0  0
  -24.9774  -21.4781   21.4765 C   0  0  0  0  0  0
  -29.2732  -17.8606   20.3815 C   0  0  0  0  0  0
  -26.7786  -19.8161   21.5626 N   0  0  0  0  0  0
  -28.1129  -19.7320   21.7205 N   0  0  0  0  0  0
  -30.0933  -15.5341   21.1125 N   0  0  0  0  0  0
  -31.4602  -12.3938   19.1598 H   0  0  0  0  0  0
  -30.3057  -11.3184   19.8892 H   0  0  0  0  0  0
  -29.7462  -11.7220   17.4660 H   0  0  0  0  0  0
  -29.6465  -13.4459   17.7523 H   0  0  0  0  0  0
  -27.8412  -11.2710   18.8535 H   0  0  0  0  0  0
  -27.3642  -12.5652   17.7853 H   0  0  0  0  0  0
  -27.6612  -14.2203   19.4944 H   0  0  0  0  0  0
  -28.6608  -12.0458   21.4119 H   0  0  0  0  0  0
  -28.4400  -13.7195   21.8183 H   0  0  0  0  0  0
  -25.2735   -9.5656   22.4783 H   0  0  0  0  0  0
  -23.9995   -7.4585   22.7450 H   0  0  0  0  0  0
  -21.0837   -8.8737   19.8942 H   0  0  0  0  0  0
  -22.3656  -10.9662   19.6190 H   0  0  0  0  0  0
  -21.1958   -7.6143   23.9716 H   0  0  0  0  0  0
  -21.1517   -6.0543   25.9097 H   0  0  0  0  0  0
  -22.0595   -2.7615   23.2854 H   0  0  0  0  0  0
  -22.4139  -11.9785   22.4729 H   0  0  0  0  0  0
  -21.1158  -13.1184   22.2779 H   0  0  0  0  0  0
  -24.6680  -15.8434   20.5140 H   0  0  0  0  0  0
  -26.2828  -15.6138   20.0845 H   0  0  0  0  0  0
  -26.7120  -32.5516   23.1191 H   0  0  0  0  0  0
  -25.0094  -33.9791   25.0509 H   0  0  0  0  0  0
  -22.6975  -31.3082   21.4123 H   0  0  0  0  0  0
  -23.3732  -35.9656   23.3324 H   0  0  0  0  0  0
  -24.3580  -36.8911   22.2051 H   0  0  0  0  0  0
  -23.7234  -37.6532   23.6633 H   0  0  0  0  0  0
  -26.0467  -31.5980   20.5925 H   0  0  0  0  0  0
  -26.8235  -30.8859   21.9810 H   0  0  0  0  0  0
  -28.0977  -29.0936   21.1830 H   0  0  0  0  0  0
  -26.0692  -25.9686   19.0153 H   0  0  0  0  0  0
  -23.9825  -27.2926   19.0290 H   0  0  0  0  0  0
  -23.7099  -30.5914   19.3992 H   0  0  0  0  0  0
  -22.7356  -29.2343   19.8789 H   0  0  0  0  0  0
  -25.1264  -36.1993   25.0832 H   0  0  0  0  0  0
  -20.9972  -28.3110   24.1398 H   0  0  0  0  0  0
  -20.5815  -26.2161   23.3346 H   0  0  0  0  0  0
  -21.6648  -26.7589   22.0938 H   0  0  0  0  0  0
  -19.6900  -25.6529   21.0895 H   0  0  0  0  0  0
  -19.6720  -27.3498   20.6725 H   0  0  0  0  0  0
  -17.4282  -26.6896   21.3825 H   0  0  0  0  0  0
  -18.0288  -25.9979   22.8698 H   0  0  0  0  0  0
  -19.7885  -30.7234   24.2375 H   0  0  0  0  0  0
  -17.4991  -31.6173   24.5225 H   0  0  0  0  0  0
  -15.5371  -30.2940   23.7605 H   0  0  0  0  0  0
  -15.8705  -28.0796   22.6952 H   0  0  0  0  0  0
  -24.5930  -30.7012   25.7842 H   0  0  0  0  0  0
  -24.8924  -32.2819   26.4988 H   0  0  0  0  0  0
  -25.8123  -30.8837   27.0239 H   0  0  0  0  0  0
  -26.2791  -29.6850   24.1138 H   0  0  0  0  0  0
  -27.4054  -29.7254   25.4521 H   0  0  0  0  0  0
  -27.8632  -30.4398   23.9217 H   0  0  0  0  0  0
  -27.2688  -33.3617   26.2087 H   0  0  0  0  0  0
  -28.3828  -32.6896   25.0277 H   0  0  0  0  0  0
  -28.0757  -31.8436   26.5375 H   0  0  0  0  0  0
  -28.2602  -38.0096   24.7492 H   0  0  0  0  0  0
  -28.1057  -36.2623   24.6310 H   0  0  0  0  0  0
  -27.2305  -37.1483   25.8881 H   0  0  0  0  0  0
  -20.9301  -29.8831   21.7016 H   0  0  0  0  0  0
  -26.0190  -38.2872   24.1388 H   0  0  0  0  0  0
  -29.7220  -21.1202   21.9985 H   0  0  0  0  0  0
  -24.7466  -22.0869   23.5629 H   0  0  0  0  0  0
  -23.4062  -22.5753   22.5357 H   0  0  0  0  0  0
  -24.8969  -23.4508   22.4500 H   0  0  0  0  0  0
  -24.1487  -19.7249   22.5183 H   0  0  0  0  0  0
  -24.2758  -19.5105   20.7782 H   0  0  0  0  0  0
  -23.0005  -20.5064   21.4420 H   0  0  0  0  0  0
  -25.3729  -23.0237   19.9934 H   0  0  0  0  0  0
  -23.7559  -22.3511   19.8834 H   0  0  0  0  0  0
  -25.1388  -21.4236   19.3062 H   0  0  0  0  0  0
  -31.1481  -17.8613   19.2473 H   0  0  0  0  0  0
  -31.3882  -17.9391   20.9828 H   0  0  0  0  0  0
  -30.8450  -19.3613   20.1130 H   0  0  0  0  0  0
  -27.3993  -18.1443   19.2851 H   0  0  0  0  0  0
  -28.4946  -19.5215   19.1567 H   0  0  0  0  0  0
  -28.8184  -18.0708   18.2449 H   0  0  0  0  0  0
  -28.6092  -23.5573   22.8180 H   0  0  0  0  0  0
  -26.9378  -23.8131   22.6329 H   0  0  0  0  0  0
  -27.2310  -24.2484   20.1871 H   0  0  0  0  0  0
  -28.9348  -23.8726   20.3111 H   0  0  0  0  0  0
  -29.5545  -18.4417   22.4940 H   0  0  0  0  0  0
  -28.0153  -17.7189   22.1648 H   0  0  0  0  0  0
  -28.1266  -16.0369   20.6385 H   0  0  0  0  0  0
  -29.2039  -15.9956   19.2709 H   0  0  0  0  0  0
  -29.4023  -25.7935   21.6748 H   0  0  0  0  0  0
  -27.7278  -26.0725   22.0334 H   0  0  0  0  0  0
  -30.7476  -16.1533   21.5680 H   0  0  0  0  0  0
  1 25  1  0  0  0
  1 30  2  0  0  0
  1 88  1  0  0  0
  2  3  1  0  0  0
  2 25  1  0  0  0
  2 89  1  0  0  0
  2 90  1  0  0  0
  3  4  1  0  0  0
  3 91  1  0  0  0
  3 92  1  0  0  0
  4  5  1  0  0  0
  4 93  1  0  0  0
  4 94  1  0  0  0
  5  6  1  0  0  0
  5 26  1  0  0  0
  5 95  1  0  0  0
  6 25  1  0  0  0
  6 96  1  0  0  0
  6 97  1  0  0  0
  7  8  2  0  0  0
  7 26  1  0  0  0
  7 29  1  0  0  0
  8  9  1  0  0  0
  8 22  1  0  0  0
  9 10  1  0  0  0
  9 27  2  0  0  0
 10 11  2  0  0  0
 10 15  1  0  0  0
 11 12  1  0  0  0
 11 98  1  0  0  0
 12 13  2  0  0  0
 12 99  1  0  0  0
 13 14  1  0  0  0
 13 31  1  0  0  0
 14 15  2  0  0  0
 14100  1  0  0  0
 15101  1  0  0  0
 16 17  2  0  0  0
 16 21  1  0  0  0
 16 31  1  0  0  0
 17 18  1  0  0  0
 17102  1  0  0  0
 18 19  2  0  0  0
 18103  1  0  0  0
 19 20  1  0  0  0
 19 24  1  0  0  0
 20 21  2  0  0  0
 20104  1  0  0  0
 21 23  1  0  0  0
 22 28  1  0  0  0
 22 32  2  0  0  0
 26 27  1  0  0  0
 28105  1  0  0  0
 28106  1  0  0  0
 29107  1  0  0  0
 29108  1  0  0  0
 33 34  1  0  0  0
 33 66  1  0  0  0
 33 70  2  0  0  0
 34 36  1  0  0  0
 34 59  1  0  0  0
 34109  1  0  0  0
 35 44  2  0  0  0
 35 45  1  0  0  0
 35 68  1  0  0  0
 36 56  1  0  0  0
 36110  1  0  0  0
 37 39  1  0  0  0
 37 47  1  0  0  0
 37 66  1  0  0  0
 37111  1  0  0  0
 38 43  2  0  0  0
 38 46  1  0  0  0
 38 47  1  0  0  0
 39 64  1  0  0  0
 39 67  2  0  0  0
 40 52  1  0  0  0
 40 53  2  0  0  0
 40 58  1  0  0  0
 41112  1  0  0  0
 41113  1  0  0  0
 41114  1  0  0  0
 41 48  1  0  0  0
 42 43  1  0  0  0
 42 66  1  0  0  0
 42115  1  0  0  0
 42116  1  0  0  0
 43 44  1  0  0  0
 44117  1  0  0  0
 45 46  2  0  0  0
 45118  1  0  0  0
 46119  1  0  0  0
 47120  1  0  0  0
 47121  1  0  0  0
 48 56  1  0  0  0
 48 65  1  0  0  0
 48122  1  0  0  0
 49 50  1  0  0  0
 49 53  1  0  0  0
 49 64  1  0  0  0
 49123  1  0  0  0
 50 51  1  0  0  0
 50124  1  0  0  0
 50125  1  0  0  0
 51 52  1  0  0  0
 51126  1  0  0  0
 51127  1  0  0  0
 52128  1  0  0  0
 52129  1  0  0  0
 53 54  1  0  0  0
 54 55  2  0  0  0
 54130  1  0  0  0
 55 57  1  0  0  0
 55131  1  0  0  0
 56 69  2  0  0  0
 57 58  2  0  0  0
 57132  1  0  0  0
 58133  1  0  0  0
 59 60  1  0  0  0
 59 61  1  0  0  0
 59 62  1  0  0  0
 60134  1  0  0  0
 60135  1  0  0  0
 60136  1  0  0  0
 61137  1  0  0  0
 61138  1  0  0  0
 61139  1  0  0  0
 62140  1  0  0  0
 62141  1  0  0  0
 62142  1  0  0  0
 63 65  1  0  0  0
 63143  1  0  0  0
 63144  1  0  0  0
 63145  1  0  0  0
 64146  1  0  0  0
 65147  1  0  0  0
 68 83  1  0  0  0
 71 72  2  0  0  0
 71 87  1  0  0  0
 71148  1  0  0  0
 72 73  1  0  0  0
 72 79  1  0  0  0
 73 84  1  0  0  0
 73 86  2  0  0  0
 74149  1  0  0  0
 74150  1  0  0  0
 74151  1  0  0  0
 74 84  1  0  0  0
 75 84  1  0  0  0
 75152  1  0  0  0
 75153  1  0  0  0
 75154  1  0  0  0
 76 84  1  0  0  0
 76155  1  0  0  0
 76156  1  0  0  0
 76157  1  0  0  0
 77158  1  0  0  0
 77159  1  0  0  0
 77160  1  0  0  0
 77 85  1  0  0  0
 78 85  1  0  0  0
 78161  1  0  0  0
 78162  1  0  0  0
 78163  1  0  0  0
 79 80  1  0  0  0
 79164  1  0  0  0
 79165  1  0  0  0
 80 83  1  0  0  0
 80166  1  0  0  0
 80167  1  0  0  0
 81 85  1  0  0  0
 81 87  1  0  0  0
 81168  1  0  0  0
 81169  1  0  0  0
 82 85  1  0  0  0
 82 88  1  0  0  0
 82170  1  0  0  0
 82171  1  0  0  0
 83172  1  0  0  0
 83173  1  0  0  0
 86 87  1  0  0  0
 88174  1  0  0  0
M  ISO  4   1 100  68 101  83 101  88 100
M  END
> <chiral flag>
0

> <version>
0

> <s_m_source_file>
/data/baiqing/PycharmProjects/Reinvent-master-3.2/result/LINK_invent/BTK/process_docking_weight1_custom_sum_contain_oxygen_bond_distance_aromatic_linkinvent_7_9_3/rearranged_h_0075.sdf

> <i_m_source_file_index>
16

> <r_mmod_Potential_Energy-OPLS-2005>
-24.4550609588623

> <r_mmod_Stretch_Energy-OPLS-2005>
39.6353530883789

> <r_mmod_Bend_Energy-OPLS-2005>
117.939109802246

> <r_mmod_Torsional_Energy-OPLS-2005>
314.361053466797

> <r_mmod_Improper_Torsional_Energy-OPLS-2005>
7.32848453521729

> <r_mmod_Van_der_Waal_Energy-OPLS-2005>
125.591705322266

> <r_mmod_Electrostatic_Energy-OPLS-2005>
-452.466430664062

> <r_mmod_Solvation_Energy-OPLS-2005>
-194.862197875977

> <b_mmod_Minimization_Converged-OPLS-2005>
0

> <r_mmod_RMS_Derivative-OPLS-2005>
4.42611169815063

$$$$
16
                    3D
 Structure written by MMmdl.
164172  0  0  1  0            999 V2000
  -30.7417  -14.3979   20.6507 C   0  0  0  0  0  0
  -30.4196  -12.2851   19.4156 C   0  0  0  0  0  0
  -29.5011  -12.5221   18.2020 C   0  0  0  0  0  0
  -28.0193  -12.3919   18.6034 C   0  0  0  0  0  0
  -27.6700  -13.2047   19.8792 C   0  0  2  0  0  0
  -28.7043  -12.9470   20.9975 C   0  0  0  0  0  0
  -25.2642  -13.8173   20.5673 C   0  0  0  0  0  0
  -24.1883  -13.0465   20.9169 C   0  0  0  0  0  0
  -24.6419  -11.6916   20.8730 C   0  0  0  0  0  0
  -23.9069  -10.4318   21.0394 C   0  0  0  0  0  0
  -24.3626   -9.4234   21.9168 C   0  0  0  0  0  0
  -23.6302   -8.2263   22.0742 C   0  0  0  0  0  0
  -22.4272   -8.0297   21.3550 C   0  0  0  0  0  0
  -21.9913   -9.0267   20.4656 C   0  0  0  0  0  0
  -22.7239  -10.2150   20.3052 C   0  0  0  0  0  0
  -21.6864   -6.0744   22.5291 C   0  0  0  0  0  0
  -21.4019   -6.5638   23.8230 C   0  0  0  0  0  0
  -21.3668   -5.6789   24.9190 C   0  0  0  0  0  0
  -21.6037   -4.3051   24.7236 C   0  0  0  0  0  0
  -21.8813   -3.8152   23.4358 C   0  0  0  0  0  0
  -21.9195   -4.6972   22.3421 C   0  0  0  0  0  0
  -22.7906  -13.5274   21.1843 C   0  0  0  0  0  0
  -22.1666   -4.2155   21.0999 F   0  0  0  0  0  0
  -21.5630   -3.4537   25.7751 F   0  0  0  0  0  0
  -30.0455  -13.2451   20.4636 N   0  0  0  0  0  0
  -26.3073  -12.9330   20.3341 N   0  0  0  0  0  0
  -25.9344  -11.6496   20.5724 N   0  0  0  0  0  0
  -22.0517  -12.8289   22.0399 N   0  0  0  0  0  0
  -25.4410  -15.1904   20.4144 N   0  0  0  0  0  0
  -31.7990  -14.6513   20.0661 O   0  0  0  0  0  0
  -21.6640   -6.8887   21.4248 O   0  0  0  0  0  0
  -22.3608  -14.5572   20.6671 O   0  0  0  0  0  0
  -24.6141  -31.8676   23.2087 C   0  0  0  0  0  0
  -25.9042  -32.4816   23.8382 C   0  0  1  0  0  0
  -27.2522  -27.4570   20.1086 C   0  0  0  0  0  0
  -25.5921  -33.8607   24.2339 N   0  0  0  0  0  0
  -23.4029  -30.4886   21.5457 C   0  0  2  0  0  0
  -24.8567  -28.9510   20.1189 C   0  0  0  0  0  0
  -22.7406  -29.4651   22.4966 C   0  0  0  0  0  0
  -18.0282  -28.1393   22.8500 C   0  0  0  0  0  0
  -24.1488  -36.7300   23.2638 C   0  0  0  0  0  0
  -25.9253  -30.8455   21.3496 C   0  0  0  0  0  0
  -26.0111  -29.4738   20.7139 C   0  0  0  0  0  0
  -27.2140  -28.7338   20.7095 C   0  0  0  0  0  0
  -26.0852  -26.9384   19.5108 C   0  0  0  0  0  0
  -24.8863  -27.6789   19.5177 C   0  0  0  0  0  0
  -23.6142  -29.8125   20.1621 C   0  0  0  0  0  0
  -25.4096  -36.3092   24.0341 C   0  0  1  0  0  0
  -20.5880  -28.3666   23.1320 C   0  0  2  0  0  0
  -20.6767  -26.9404   22.5417 C   0  0  0  0  0  0
  -19.5741  -26.6411   21.5216 C   0  0  0  0  0  0
  -18.1922  -26.7957   22.1623 C   0  0  0  0  0  0
  -19.1538  -28.8845   23.2919 C   0  0  0  0  0  0
  -18.9465  -30.1461   23.8917 C   0  0  0  0  0  0
  -17.6465  -30.6598   24.0584 C   0  0  0  0  0  0
  -25.9026  -34.9468   23.5131 C   0  0  0  0  0  0
  -16.5357  -29.9095   23.6335 C   0  0  0  0  0  0
  -16.7274  -28.6521   23.0341 C   0  0  0  0  0  0
  -26.4509  -31.6579   25.0679 C   0  0  0  0  0  0
  -25.3814  -31.3666   26.1457 C   0  0  0  0  0  0
  -27.0302  -30.3036   24.5974 C   0  0  0  0  0  0
  -27.6123  -32.4263   25.7412 C   0  0  0  0  0  0
  -27.5573  -37.1774   24.8478 C   0  0  0  0  0  0
  -21.4141  -29.3021   22.3708 N   0  0  0  0  0  0
  -26.4277  -37.3781   23.9442 N   0  0  0  0  0  0
  -24.6665  -31.0809   22.0958 N   0  0  0  0  0  0
  -23.4202  -28.8198   23.3000 O   0  0  0  0  0  0
  -28.4131  -26.7227   20.0828 O   0  0  0  0  0  0
  -26.5571  -34.8926   22.4680 O   0  0  0  0  0  0
  -23.5337  -32.1392   23.7509 O   0  0  0  0  0  0
  -30.0783  -19.0583   22.2628 C   0  0  0  0  0  0
  -30.5627  -21.1021   22.1387 C   0  0  0  0  0  0
  -31.1479  -19.3940   19.1642 C   0  0  0  0  0  0
  -28.1241  -22.6418   21.6232 C   0  0  0  0  0  0
  -29.5962  -17.6689   21.9194 C   0  0  0  0  0  0
  -30.7157  -22.5174   21.6268 C   0  0  0  0  0  0
  -29.4857  -24.6331   20.7872 C   0  0  0  0  0  0
  -29.9684  -20.0286   19.9155 C   0  0  0  0  0  0
  -30.7106  -16.6071   21.8334 C   0  0  0  0  0  0
  -28.5314  -25.7919   21.1604 C   0  0  0  0  0  0
  -29.4515  -23.4221   21.7613 C   0  0  1  0  0  0
  -30.3939  -19.4362   23.5099 N   0  0  0  0  0  0
  -30.7148  -20.7730   23.4285 N   0  0  0  0  0  0
  -30.1990  -20.0574   21.3570 N   0  0  0  0  0  0
  -30.1851  -15.2736   21.5008 N   0  0  0  0  0  0
  -31.4674  -12.3757   19.1234 H   0  0  0  0  0  0
  -30.3064  -11.2633   19.7848 H   0  0  0  0  0  0
  -29.7388  -11.8140   17.4077 H   0  0  0  0  0  0
  -29.6931  -13.5138   17.7908 H   0  0  0  0  0  0
  -27.8135  -11.3349   18.7698 H   0  0  0  0  0  0
  -27.3788  -12.7006   17.7766 H   0  0  0  0  0  0
  -27.7273  -14.2602   19.6112 H   0  0  0  0  0  0
  -28.6660  -11.9022   21.3088 H   0  0  0  0  0  0
  -28.4539  -13.5208   21.8901 H   0  0  0  0  0  0
  -25.2776   -9.5722   22.4746 H   0  0  0  0  0  0
  -24.0027   -7.4654   22.7459 H   0  0  0  0  0  0
  -21.0834   -8.8791   19.8981 H   0  0  0  0  0  0
  -22.3686  -10.9683   19.6172 H   0  0  0  0  0  0
  -21.1997   -7.6144   23.9741 H   0  0  0  0  0  0
  -21.1499   -6.0516   25.9093 H   0  0  0  0  0  0
  -22.0581   -2.7611   23.2862 H   0  0  0  0  0  0
  -22.4084  -11.9954   22.4827 H   0  0  0  0  0  0
  -21.1138  -13.1363   22.2560 H   0  0  0  0  0  0
  -24.6837  -15.8542   20.5329 H   0  0  0  0  0  0
  -26.2984  -15.6247   20.1001 H   0  0  0  0  0  0
  -26.7098  -32.5584   23.1144 H   0  0  0  0  0  0
  -25.0121  -33.9767   25.0517 H   0  0  0  0  0  0
  -22.6920  -31.3035   21.4006 H   0  0  0  0  0  0
  -23.3735  -35.9650   23.3312 H   0  0  0  0  0  0
  -24.3593  -36.8902   22.2053 H   0  0  0  0  0  0
  -23.7244  -37.6518   23.6622 H   0  0  0  0  0  0
  -26.0137  -31.5999   20.5665 H   0  0  0  0  0  0
  -26.8235  -30.9224   21.9510 H   0  0  0  0  0  0
  -28.1077  -29.1401   21.1646 H   0  0  0  0  0  0
  -26.1047  -25.9605   19.0475 H   0  0  0  0  0  0
  -24.0005  -27.2652   19.0584 H   0  0  0  0  0  0
  -23.7232  -30.5837   19.3995 H   0  0  0  0  0  0
  -22.7425  -29.2244   19.8675 H   0  0  0  0  0  0
  -25.1262  -36.1948   25.0822 H   0  0  0  0  0  0
  -20.9988  -28.3221   24.1433 H   0  0  0  0  0  0
  -20.5675  -26.2261   23.3601 H   0  0  0  0  0  0
  -21.6634  -26.7432   22.1207 H   0  0  0  0  0  0
  -19.6900  -25.6335   21.1204 H   0  0  0  0  0  0
  -19.6704  -27.3257   20.6785 H   0  0  0  0  0  0
  -17.4210  -26.6762   21.4005 H   0  0  0  0  0  0
  -18.0296  -26.0088   22.8996 H   0  0  0  0  0  0
  -19.7932  -30.7293   24.2286 H   0  0  0  0  0  0
  -17.5004  -31.6273   24.5192 H   0  0  0  0  0  0
  -15.5353  -30.2999   23.7639 H   0  0  0  0  0  0
  -15.8686  -28.0849   22.7008 H   0  0  0  0  0  0
  -24.6055  -30.6914   25.7842 H   0  0  0  0  0  0
  -24.8923  -32.2804   26.4837 H   0  0  0  0  0  0
  -25.8236  -30.8942   27.0240 H   0  0  0  0  0  0
  -26.2783  -29.6790   24.1144 H   0  0  0  0  0  0
  -27.4252  -29.7271   25.4350 H   0  0  0  0  0  0
  -27.8539  -30.4393   23.8962 H   0  0  0  0  0  0
  -27.2798  -33.3568   26.2016 H   0  0  0  0  0  0
  -28.3909  -32.6805   25.0206 H   0  0  0  0  0  0
  -28.0818  -31.8359   26.5297 H   0  0  0  0  0  0
  -28.2608  -38.0056   24.7501 H   0  0  0  0  0  0
  -28.1043  -36.2585   24.6298 H   0  0  0  0  0  0
  -27.2303  -37.1430   25.8889 H   0  0  0  0  0  0
  -20.9301  -29.8728   21.6919 H   0  0  0  0  0  0
  -26.0166  -38.2848   24.1496 H   0  0  0  0  0  0
  -32.1050  -19.7653   19.5351 H   0  0  0  0  0  0
  -31.0975  -19.6159   18.0982 H   0  0  0  0  0  0
  -31.1501  -18.3094   19.2742 H   0  0  0  0  0  0
  -27.2603  -23.2574   21.8680 H   0  0  0  0  0  0
  -28.0789  -21.7867   22.2991 H   0  0  0  0  0  0
  -27.9842  -22.2663   20.6079 H   0  0  0  0  0  0
  -29.0354  -17.6949   20.9854 H   0  0  0  0  0  0
  -28.8732  -17.3715   22.6804 H   0  0  0  0  0  0
  -31.0588  -22.4828   20.5936 H   0  0  0  0  0  0
  -31.5419  -22.9801   22.1682 H   0  0  0  0  0  0
  -30.5016  -25.0306   20.7261 H   0  0  0  0  0  0
  -29.2483  -24.2781   19.7833 H   0  0  0  0  0  0
  -29.0409  -19.4952   19.7044 H   0  0  0  0  0  0
  -29.8001  -21.0419   19.5536 H   0  0  0  0  0  0
  -31.2303  -16.5412   22.7893 H   0  0  0  0  0  0
  -31.4561  -16.9274   21.1050 H   0  0  0  0  0  0
  -28.9133  -26.3158   22.0379 H   0  0  0  0  0  0
  -27.5476  -25.4075   21.4360 H   0  0  0  0  0  0
  -29.4751  -23.8072   22.7807 H   0  0  0  0  0  0
  -29.3263  -14.9792   21.9461 H   0  0  0  0  0  0
  1 25  1  0  0  0
  1 30  2  0  0  0
  1 85  1  0  0  0
  2  3  1  0  0  0
  2 25  1  0  0  0
  2 86  1  0  0  0
  2 87  1  0  0  0
  3  4  1  0  0  0
  3 88  1  0  0  0
  3 89  1  0  0  0
  4  5  1  0  0  0
  4 90  1  0  0  0
  4 91  1  0  0  0
  5  6  1  0  0  0
  5 26  1  0  0  0
  5 92  1  0  0  0
  6 25  1  0  0  0
  6 93  1  0  0  0
  6 94  1  0  0  0
  7  8  2  0  0  0
  7 26  1  0  0  0
  7 29  1  0  0  0
  8  9  1  0  0  0
  8 22  1  0  0  0
  9 10  1  0  0  0
  9 27  2  0  0  0
 10 11  2  0  0  0
 10 15  1  0  0  0
 11 12  1  0  0  0
 11 95  1  0  0  0
 12 13  2  0  0  0
 12 96  1  0  0  0
 13 14  1  0  0  0
 13 31  1  0  0  0
 14 15  2  0  0  0
 14 97  1  0  0  0
 15 98  1  0  0  0
 16 17  2  0  0  0
 16 21  1  0  0  0
 16 31  1  0  0  0
 17 18  1  0  0  0
 17 99  1  0  0  0
 18 19  2  0  0  0
 18100  1  0  0  0
 19 20  1  0  0  0
 19 24  1  0  0  0
 20 21  2  0  0  0
 20101  1  0  0  0
 21 23  1  0  0  0
 22 28  1  0  0  0
 22 32  2  0  0  0
 26 27  1  0  0  0
 28102  1  0  0  0
 28103  1  0  0  0
 29104  1  0  0  0
 29105  1  0  0  0
 33 34  1  0  0  0
 33 66  1  0  0  0
 33 70  2  0  0  0
 34 36  1  0  0  0
 34 59  1  0  0  0
 34106  1  0  0  0
 35 44  2  0  0  0
 35 45  1  0  0  0
 35 68  1  0  0  0
 36 56  1  0  0  0
 36107  1  0  0  0
 37 39  1  0  0  0
 37 47  1  0  0  0
 37 66  1  0  0  0
 37108  1  0  0  0
 38 43  2  0  0  0
 38 46  1  0  0  0
 38 47  1  0  0  0
 39 64  1  0  0  0
 39 67  2  0  0  0
 40 52  1  0  0  0
 40 53  2  0  0  0
 40 58  1  0  0  0
 41109  1  0  0  0
 41110  1  0  0  0
 41111  1  0  0  0
 41 48  1  0  0  0
 42 43  1  0  0  0
 42 66  1  0  0  0
 42112  1  0  0  0
 42113  1  0  0  0
 43 44  1  0  0  0
 44114  1  0  0  0
 45 46  2  0  0  0
 45115  1  0  0  0
 46116  1  0  0  0
 47117  1  0  0  0
 47118  1  0  0  0
 48 56  1  0  0  0
 48 65  1  0  0  0
 48119  1  0  0  0
 49 50  1  0  0  0
 49 53  1  0  0  0
 49 64  1  0  0  0
 49120  1  0  0  0
 50 51  1  0  0  0
 50121  1  0  0  0
 50122  1  0  0  0
 51 52  1  0  0  0
 51123  1  0  0  0
 51124  1  0  0  0
 52125  1  0  0  0
 52126  1  0  0  0
 53 54  1  0  0  0
 54 55  2  0  0  0
 54127  1  0  0  0
 55 57  1  0  0  0
 55128  1  0  0  0
 56 69  2  0  0  0
 57 58  2  0  0  0
 57129  1  0  0  0
 58130  1  0  0  0
 59 60  1  0  0  0
 59 61  1  0  0  0
 59 62  1  0  0  0
 60131  1  0  0  0
 60132  1  0  0  0
 60133  1  0  0  0
 61134  1  0  0  0
 61135  1  0  0  0
 61136  1  0  0  0
 62137  1  0  0  0
 62138  1  0  0  0
 62139  1  0  0  0
 63 65  1  0  0  0
 63140  1  0  0  0
 63141  1  0  0  0
 63142  1  0  0  0
 64143  1  0  0  0
 65144  1  0  0  0
 68 80  1  0  0  0
 71 75  1  0  0  0
 71 82  2  0  0  0
 71 84  1  0  0  0
 72 76  1  0  0  0
 72 83  2  0  0  0
 72 84  1  0  0  0
 73 78  1  0  0  0
 73145  1  0  0  0
 73146  1  0  0  0
 73147  1  0  0  0
 74148  1  0  0  0
 74149  1  0  0  0
 74150  1  0  0  0
 74 81  1  0  0  0
 75 79  1  0  0  0
 75151  1  0  0  0
 75152  1  0  0  0
 76 81  1  0  0  0
 76153  1  0  0  0
 76154  1  0  0  0
 77 80  1  0  0  0
 77 81  1  0  0  0
 77155  1  0  0  0
 77156  1  0  0  0
 78 84  1  0  0  0
 78157  1  0  0  0
 78158  1  0  0  0
 79 85  1  0  0  0
 79159  1  0  0  0
 79160  1  0  0  0
 80161  1  0  0  0
 80162  1  0  0  0
 81163  1  0  0  0
 82 83  1  0  0  0
 85164  1  0  0  0
M  ISO  4   1 100  68 101  80 101  85 100
M  END
> <chiral flag>
0

> <version>
0

> <s_m_source_file>
/data/baiqing/PycharmProjects/Reinvent-master-3.2/result/LINK_invent/BTK/process_docking_weight1_custom_sum_contain_oxygen_bond_distance_aromatic_linkinvent_7_9_3/rearranged_h_0075.sdf

> <i_m_source_file_index>
17

> <r_mmod_Potential_Energy-OPLS-2005>
-75.3300399780273

> <r_mmod_Stretch_Energy-OPLS-2005>
35.636833190918

> <r_mmod_Bend_Energy-OPLS-2005>
99.1528549194336

> <r_mmod_Torsional_Energy-OPLS-2005>
232.039764404297

> <r_mmod_Improper_Torsional_Energy-OPLS-2005>
1.98682236671448

> <r_mmod_Van_der_Waal_Energy-OPLS-2005>
125.671295166016

> <r_mmod_Electrostatic_Energy-OPLS-2005>
-338.621856689453

> <r_mmod_Solvation_Energy-OPLS-2005>
-238.453811645508

> <b_mmod_Minimization_Converged-OPLS-2005>
0

> <r_mmod_RMS_Derivative-OPLS-2005>
3.13337326049805

$$$$
17
                    3D
 Structure written by MMmdl.
168176  0  0  1  0            999 V2000
  -30.5707  -14.9310   20.5194 C   0  0  0  0  0  0
  -30.4467  -12.5883   19.5251 C   0  0  0  0  0  0
  -29.5327  -12.5795   18.2755 C   0  0  0  0  0  0
  -28.0575  -12.3683   18.6644 C   0  0  0  0  0  0
  -27.6485  -13.2432   19.8786 C   0  0  2  0  0  0
  -28.6918  -13.1716   21.0142 C   0  0  0  0  0  0
  -25.2521  -13.8183   20.5778 C   0  0  0  0  0  0
  -24.1817  -13.0439   20.9232 C   0  0  0  0  0  0
  -24.6417  -11.6921   20.8777 C   0  0  0  0  0  0
  -23.9088  -10.4320   21.0439 C   0  0  0  0  0  0
  -24.3647   -9.4223   21.9203 C   0  0  0  0  0  0
  -23.6293   -8.2276   22.0782 C   0  0  0  0  0  0
  -22.4271   -8.0313   21.3557 C   0  0  0  0  0  0
  -21.9905   -9.0302   20.4662 C   0  0  0  0  0  0
  -22.7264  -10.2167   20.3066 C   0  0  0  0  0  0
  -21.6860   -6.0742   22.5275 C   0  0  0  0  0  0
  -21.4023   -6.5635   23.8211 C   0  0  0  0  0  0
  -21.3670   -5.6798   24.9173 C   0  0  0  0  0  0
  -21.6044   -4.3059   24.7220 C   0  0  0  0  0  0
  -21.8828   -3.8141   23.4341 C   0  0  0  0  0  0
  -21.9191   -4.6964   22.3390 C   0  0  0  0  0  0
  -22.7844  -13.5234   21.1884 C   0  0  0  0  0  0
  -22.1657   -4.2153   21.0965 F   0  0  0  0  0  0
  -21.5651   -3.4535   25.7732 F   0  0  0  0  0  0
  -29.9695  -13.6606   20.4618 N   0  0  0  0  0  0
  -26.2988  -12.9430   20.3405 N   0  0  0  0  0  0
  -25.9369  -11.6558   20.5784 N   0  0  0  0  0  0
  -22.0469  -12.8219   22.0404 N   0  0  0  0  0  0
  -25.4198  -15.1911   20.4229 N   0  0  0  0  0  0
  -31.7010  -14.9698   20.0188 O   0  0  0  0  0  0
  -21.6631   -6.8899   21.4247 O   0  0  0  0  0  0
  -22.3544  -14.5580   20.6774 O   0  0  0  0  0  0
  -24.6418  -31.8477   23.1871 C   0  0  0  0  0  0
  -25.9200  -32.4728   23.8266 C   0  0  1  0  0  0
  -27.2280  -27.1574   20.1617 C   0  0  0  0  0  0
  -25.5954  -33.8527   24.2190 N   0  0  0  0  0  0
  -23.4445  -30.4625   21.5337 C   0  0  2  0  0  0
  -24.8975  -28.8872   20.1164 C   0  0  0  0  0  0
  -22.7590  -29.4556   22.4895 C   0  0  0  0  0  0
  -18.0342  -28.1315   22.8480 C   0  0  0  0  0  0
  -24.1473  -36.7248   23.2626 C   0  0  0  0  0  0
  -25.9978  -30.7334   21.3757 C   0  0  0  0  0  0
  -26.0756  -29.3409   20.7269 C   0  0  0  0  0  0
  -27.2440  -28.4931   20.7278 C   0  0  0  0  0  0
  -26.0229  -26.7912   19.5239 C   0  0  0  0  0  0
  -24.8824  -27.6255   19.4988 C   0  0  0  0  0  0
  -23.6708  -29.7849   20.1550 C   0  0  0  0  0  0
  -25.4120  -36.3058   24.0306 C   0  0  1  0  0  0
  -20.5934  -28.3738   23.1292 C   0  0  2  0  0  0
  -20.6856  -26.9421   22.5522 C   0  0  0  0  0  0
  -19.5870  -26.6305   21.5302 C   0  0  0  0  0  0
  -18.2042  -26.7820   22.1701 C   0  0  0  0  0  0
  -19.1564  -28.8848   23.2853 C   0  0  0  0  0  0
  -18.9443  -30.1455   23.8831 C   0  0  0  0  0  0
  -17.6433  -30.6568   24.0460 C   0  0  0  0  0  0
  -25.9084  -34.9437   23.5067 C   0  0  0  0  0  0
  -16.5353  -29.8999   23.6285 C   0  0  0  0  0  0
  -16.7306  -28.6405   23.0335 C   0  0  0  0  0  0
  -26.4516  -31.6564   25.0681 C   0  0  0  0  0  0
  -25.3666  -31.3785   26.1351 C   0  0  0  0  0  0
  -27.0369  -30.2965   24.6200 C   0  0  0  0  0  0
  -27.6060  -32.4295   25.7452 C   0  0  0  0  0  0
  -27.5572  -37.1789   24.8470 C   0  0  0  0  0  0
  -21.4277  -29.3058   22.3681 N   0  0  0  0  0  0
  -26.4280  -37.3770   23.9427 N   0  0  0  0  0  0
  -24.7145  -31.0359   22.0885 N   0  0  0  0  0  0
  -23.4258  -28.8096   23.3017 O   0  0  0  0  0  0
  -28.3100  -26.2128   20.1614 O   0  0  0  0  0  0
  -26.5672  -34.8931   22.4637 O   0  0  0  0  0  0
  -23.5544  -32.1367   23.7118 O   0  0  0  0  0  0
  -29.2616  -21.9075   22.0414 C   0  0  0  0  0  0
  -29.2046  -20.5640   20.0601 C   0  0  0  0  0  0
  -29.0651  -21.9209   20.6440 C   0  0  0  0  0  0
  -29.5396  -20.7062   22.7353 C   0  0  0  0  0  0
  -29.4872  -19.3278   20.8280 C   0  0  0  0  0  0
  -29.8737  -20.7449   24.2122 C   0  0  0  0  0  0
  -28.3527  -17.4474   19.4733 C   0  0  0  0  0  0
  -28.2061  -23.1409   18.5303 C   0  0  0  0  0  0
  -30.3463  -23.8388   19.5746 C   0  0  0  0  0  0
  -28.9158  -16.1418   22.1988 C   0  0  0  0  0  0
  -31.2831  -16.8192   22.0365 C   0  0  0  0  0  0
  -28.1445  -24.7185   20.5655 C   0  0  0  0  0  0
  -29.6305  -17.7693   20.2673 C   0  0  2  0  0  0
  -28.9075  -23.3811   19.8787 C   0  0  0  0  0  0
  -30.0536  -16.3939   21.1846 C   0  0  0  0  0  0
  -29.6089  -19.4813   22.1638 N   0  0  0  0  0  0
  -31.4831  -12.7306   19.2156 H   0  0  0  0  0  0
  -30.4359  -11.6133   20.0171 H   0  0  0  0  0  0
  -29.8534  -11.8139   17.5692 H   0  0  0  0  0  0
  -29.6316  -13.5349   17.7587 H   0  0  0  0  0  0
  -27.9208  -11.3137   18.9003 H   0  0  0  0  0  0
  -27.4105  -12.5819   17.8133 H   0  0  0  0  0  0
  -27.6420  -14.2709   19.5240 H   0  0  0  0  0  0
  -28.7905  -12.1455   21.3723 H   0  0  0  0  0  0
  -28.3595  -13.7049   21.8948 H   0  0  0  0  0  0
  -25.2808   -9.5682   22.4760 H   0  0  0  0  0  0
  -24.0007   -7.4661   22.7506 H   0  0  0  0  0  0
  -21.0830   -8.8848   19.8954 H   0  0  0  0  0  0
  -22.3757  -10.9733   19.6170 H   0  0  0  0  0  0
  -21.2026   -7.6146   23.9705 H   0  0  0  0  0  0
  -21.1474   -6.0530   25.9079 H   0  0  0  0  0  0
  -22.0583   -2.7597   23.2844 H   0  0  0  0  0  0
  -22.4053  -11.9846   22.4756 H   0  0  0  0  0  0
  -21.1123  -13.1342   22.2664 H   0  0  0  0  0  0
  -24.6646  -15.8488   20.5794 H   0  0  0  0  0  0
  -26.2664  -15.6252   20.0807 H   0  0  0  0  0  0
  -26.7269  -32.5362   23.1009 H   0  0  0  0  0  0
  -25.0067  -33.9639   25.0306 H   0  0  0  0  0  0
  -22.7439  -31.2869   21.3788 H   0  0  0  0  0  0
  -23.3769  -35.9543   23.3294 H   0  0  0  0  0  0
  -24.3538  -36.8875   22.2039 H   0  0  0  0  0  0
  -23.7213  -37.6428   23.6660 H   0  0  0  0  0  0
  -26.1324  -31.4833   20.5940 H   0  0  0  0  0  0
  -26.8727  -30.7990   22.0099 H   0  0  0  0  0  0
  -28.1497  -28.8418   21.2075 H   0  0  0  0  0  0
  -25.9539  -25.8242   19.0457 H   0  0  0  0  0  0
  -23.9827  -27.2751   19.0109 H   0  0  0  0  0  0
  -23.8003  -30.5531   19.3916 H   0  0  0  0  0  0
  -22.7854  -29.2192   19.8553 H   0  0  0  0  0  0
  -25.1306  -36.1880   25.0797 H   0  0  0  0  0  0
  -20.9985  -28.3419   24.1435 H   0  0  0  0  0  0
  -20.5739  -26.2357   23.3767 H   0  0  0  0  0  0
  -21.6750  -26.7480   22.1380 H   0  0  0  0  0  0
  -19.7143  -25.6204   21.1380 H   0  0  0  0  0  0
  -19.6772  -27.3116   20.6832 H   0  0  0  0  0  0
  -17.4287  -26.6452   21.4152 H   0  0  0  0  0  0
  -18.0522  -26.0001   22.9166 H   0  0  0  0  0  0
  -19.7895  -30.7290   24.2193 H   0  0  0  0  0  0
  -17.4976  -31.6277   24.5005 H   0  0  0  0  0  0
  -15.5343  -30.2846   23.7631 H   0  0  0  0  0  0
  -15.8734  -28.0693   22.7070 H   0  0  0  0  0  0
  -24.5859  -30.7116   25.7673 H   0  0  0  0  0  0
  -24.8823  -32.2978   26.4642 H   0  0  0  0  0  0
  -25.7900  -30.9053   27.0209 H   0  0  0  0  0  0
  -26.2988  -29.6704   24.1170 H   0  0  0  0  0  0
  -27.3988  -29.7243   25.4749 H   0  0  0  0  0  0
  -27.8876  -30.4235   23.9508 H   0  0  0  0  0  0
  -27.2685  -33.3624   26.1965 H   0  0  0  0  0  0
  -28.3887  -32.6786   25.0278 H   0  0  0  0  0  0
  -28.0679  -31.8436   26.5403 H   0  0  0  0  0  0
  -28.2604  -38.0069   24.7511 H   0  0  0  0  0  0
  -28.1056  -36.2609   24.6308 H   0  0  0  0  0  0
  -27.2281  -37.1444   25.8866 H   0  0  0  0  0  0
  -20.9484  -29.8800   21.6905 H   0  0  0  0  0  0
  -26.0161  -38.2824   24.1456 H   0  0  0  0  0  0
  -29.2604  -22.8378   22.5922 H   0  0  0  0  0  0
  -29.1119  -20.4660   18.9875 H   0  0  0  0  0  0
  -29.1709  -21.3744   24.7539 H   0  0  0  0  0  0
  -30.8724  -21.1618   24.3511 H   0  0  0  0  0  0
  -29.8586  -19.7500   24.6616 H   0  0  0  0  0  0
  -28.1989  -18.1629   18.6658 H   0  0  0  0  0  0
  -27.4758  -17.5022   20.1142 H   0  0  0  0  0  0
  -28.3919  -16.4525   19.0353 H   0  0  0  0  0  0
  -28.7587  -22.4437   17.8956 H   0  0  0  0  0  0
  -28.1097  -24.0710   17.9695 H   0  0  0  0  0  0
  -27.2061  -22.7369   18.6767 H   0  0  0  0  0  0
  -30.8839  -23.1005   18.9798 H   0  0  0  0  0  0
  -30.9079  -23.9957   20.4959 H   0  0  0  0  0  0
  -30.3564  -24.7753   19.0151 H   0  0  0  0  0  0
  -28.6545  -17.0454   22.7488 H   0  0  0  0  0  0
  -29.1918  -15.3959   22.9459 H   0  0  0  0  0  0
  -28.0002  -15.8210   21.7077 H   0  0  0  0  0  0
  -32.0475  -17.2868   21.4177 H   0  0  0  0  0  0
  -31.7542  -15.9733   22.5390 H   0  0  0  0  0  0
  -31.0300  -17.5210   22.8280 H   0  0  0  0  0  0
  -28.4531  -24.7223   21.6096 H   0  0  0  0  0  0
  -27.0799  -24.4946   20.6103 H   0  0  0  0  0  0
  -30.4223  -17.8484   19.5229 H   0  0  0  0  0  0
  1 25  1  0  0  0
  1 30  2  0  0  0
  1 85  1  0  0  0
  2  3  1  0  0  0
  2 25  1  0  0  0
  2 87  1  0  0  0
  2 88  1  0  0  0
  3  4  1  0  0  0
  3 89  1  0  0  0
  3 90  1  0  0  0
  4  5  1  0  0  0
  4 91  1  0  0  0
  4 92  1  0  0  0
  5  6  1  0  0  0
  5 26  1  0  0  0
  5 93  1  0  0  0
  6 25  1  0  0  0
  6 94  1  0  0  0
  6 95  1  0  0  0
  7  8  2  0  0  0
  7 26  1  0  0  0
  7 29  1  0  0  0
  8  9  1  0  0  0
  8 22  1  0  0  0
  9 10  1  0  0  0
  9 27  2  0  0  0
 10 11  2  0  0  0
 10 15  1  0  0  0
 11 12  1  0  0  0
 11 96  1  0  0  0
 12 13  2  0  0  0
 12 97  1  0  0  0
 13 14  1  0  0  0
 13 31  1  0  0  0
 14 15  2  0  0  0
 14 98  1  0  0  0
 15 99  1  0  0  0
 16 17  2  0  0  0
 16 21  1  0  0  0
 16 31  1  0  0  0
 17 18  1  0  0  0
 17100  1  0  0  0
 18 19  2  0  0  0
 18101  1  0  0  0
 19 20  1  0  0  0
 19 24  1  0  0  0
 20 21  2  0  0  0
 20102  1  0  0  0
 21 23  1  0  0  0
 22 28  1  0  0  0
 22 32  2  0  0  0
 26 27  1  0  0  0
 28103  1  0  0  0
 28104  1  0  0  0
 29105  1  0  0  0
 29106  1  0  0  0
 33 34  1  0  0  0
 33 66  1  0  0  0
 33 70  2  0  0  0
 34 36  1  0  0  0
 34 59  1  0  0  0
 34107  1  0  0  0
 35 44  2  0  0  0
 35 45  1  0  0  0
 35 68  1  0  0  0
 36 56  1  0  0  0
 36108  1  0  0  0
 37 39  1  0  0  0
 37 47  1  0  0  0
 37 66  1  0  0  0
 37109  1  0  0  0
 38 43  2  0  0  0
 38 46  1  0  0  0
 38 47  1  0  0  0
 39 64  1  0  0  0
 39 67  2  0  0  0
 40 52  1  0  0  0
 40 53  2  0  0  0
 40 58  1  0  0  0
 41110  1  0  0  0
 41111  1  0  0  0
 41112  1  0  0  0
 41 48  1  0  0  0
 42 43  1  0  0  0
 42 66  1  0  0  0
 42113  1  0  0  0
 42114  1  0  0  0
 43 44  1  0  0  0
 44115  1  0  0  0
 45 46  2  0  0  0
 45116  1  0  0  0
 46117  1  0  0  0
 47118  1  0  0  0
 47119  1  0  0  0
 48 56  1  0  0  0
 48 65  1  0  0  0
 48120  1  0  0  0
 49 50  1  0  0  0
 49 53  1  0  0  0
 49 64  1  0  0  0
 49121  1  0  0  0
 50 51  1  0  0  0
 50122  1  0  0  0
 50123  1  0  0  0
 51 52  1  0  0  0
 51124  1  0  0  0
 51125  1  0  0  0
 52126  1  0  0  0
 52127  1  0  0  0
 53 54  1  0  0  0
 54 55  2  0  0  0
 54128  1  0  0  0
 55 57  1  0  0  0
 55129  1  0  0  0
 56 69  2  0  0  0
 57 58  2  0  0  0
 57130  1  0  0  0
 58131  1  0  0  0
 59 60  1  0  0  0
 59 61  1  0  0  0
 59 62  1  0  0  0
 60132  1  0  0  0
 60133  1  0  0  0
 60134  1  0  0  0
 61135  1  0  0  0
 61136  1  0  0  0
 61137  1  0  0  0
 62138  1  0  0  0
 62139  1  0  0  0
 62140  1  0  0  0
 63 65  1  0  0  0
 63141  1  0  0  0
 63142  1  0  0  0
 63143  1  0  0  0
 64144  1  0  0  0
 65145  1  0  0  0
 68 82  1  0  0  0
 71 73  2  0  0  0
 71 74  1  0  0  0
 71146  1  0  0  0
 72 73  1  0  0  0
 72 75  2  0  0  0
 72147  1  0  0  0
 73 84  1  0  0  0
 74 76  1  0  0  0
 74 86  2  0  0  0
 75 83  1  0  0  0
 75 86  1  0  0  0
 76148  1  0  0  0
 76149  1  0  0  0
 76150  1  0  0  0
 77151  1  0  0  0
 77152  1  0  0  0
 77153  1  0  0  0
 77 83  1  0  0  0
 78154  1  0  0  0
 78155  1  0  0  0
 78156  1  0  0  0
 78 84  1  0  0  0
 79 84  1  0  0  0
 79157  1  0  0  0
 79158  1  0  0  0
 79159  1  0  0  0
 80160  1  0  0  0
 80161  1  0  0  0
 80162  1  0  0  0
 80 85  1  0  0  0
 81 85  1  0  0  0
 81163  1  0  0  0
 81164  1  0  0  0
 81165  1  0  0  0
 82 84  1  0  0  0
 82166  1  0  0  0
 82167  1  0  0  0
 83 85  1  0  0  0
 83168  1  0  0  0
M  ISO  4   1 100  68 101  82 101  85 100
M  END
> <chiral flag>
0

> <version>
0

> <s_m_source_file>
/data/baiqing/PycharmProjects/Reinvent-master-3.2/result/LINK_invent/BTK/process_docking_weight1_custom_sum_contain_oxygen_bond_distance_aromatic_linkinvent_7_9_3/rearranged_h_0075.sdf

> <i_m_source_file_index>
18

> <r_mmod_Potential_Energy-OPLS-2005>
399.014678955078

> <r_mmod_Stretch_Energy-OPLS-2005>
282.088745117188

> <r_mmod_Bend_Energy-OPLS-2005>
286.064208984375

> <r_mmod_Torsional_Energy-OPLS-2005>
212.858779907227

> <r_mmod_Improper_Torsional_Energy-OPLS-2005>
2.73789930343628

> <r_mmod_Van_der_Waal_Energy-OPLS-2005>
139.39599609375

> <r_mmod_Electrostatic_Energy-OPLS-2005>
-499.0537109375

> <r_mmod_Solvation_Energy-OPLS-2005>
-184.949401855469

> <b_mmod_Minimization_Converged-OPLS-2005>
0

> <r_mmod_RMS_Derivative-OPLS-2005>
4.29885721206665

$$$$
18
                    3D
 Structure written by MMmdl.
163171  0  0  1  0            999 V2000
  -30.6701  -14.6125   20.5331 C   0  0  0  0  0  0
  -30.4273  -12.3941   19.4335 C   0  0  0  0  0  0
  -29.4957  -12.5130   18.2101 C   0  0  0  0  0  0
  -28.0188  -12.3659   18.6256 C   0  0  0  0  0  0
  -27.6525  -13.2265   19.8615 C   0  0  2  0  0  0
  -28.7017  -13.0800   20.9855 C   0  0  0  0  0  0
  -25.2538  -13.8193   20.5665 C   0  0  0  0  0  0
  -24.1834  -13.0452   20.9159 C   0  0  0  0  0  0
  -24.6426  -11.6928   20.8742 C   0  0  0  0  0  0
  -23.9095  -10.4302   21.0420 C   0  0  0  0  0  0
  -24.3634   -9.4210   21.9205 C   0  0  0  0  0  0
  -23.6296   -8.2246   22.0773 C   0  0  0  0  0  0
  -22.4271   -8.0279   21.3557 C   0  0  0  0  0  0
  -21.9926   -9.0268   20.4660 C   0  0  0  0  0  0
  -22.7271  -10.2143   20.3071 C   0  0  0  0  0  0
  -21.6849   -6.0721   22.5274 C   0  0  0  0  0  0
  -21.4021   -6.5631   23.8206 C   0  0  0  0  0  0
  -21.3656   -5.6787   24.9173 C   0  0  0  0  0  0
  -21.6019   -4.3045   24.7222 C   0  0  0  0  0  0
  -21.8820   -3.8137   23.4346 C   0  0  0  0  0  0
  -21.9206   -4.6948   22.3404 C   0  0  0  0  0  0
  -22.7852  -13.5226   21.1821 C   0  0  0  0  0  0
  -22.1666   -4.2134   21.0982 F   0  0  0  0  0  0
  -21.5643   -3.4541   25.7740 F   0  0  0  0  0  0
  -30.0098  -13.4196   20.4099 N   0  0  0  0  0  0
  -26.2986  -12.9416   20.3302 N   0  0  0  0  0  0
  -25.9366  -11.6562   20.5781 N   0  0  0  0  0  0
  -22.0504  -12.8216   22.0362 N   0  0  0  0  0  0
  -25.4197  -15.1925   20.4053 N   0  0  0  0  0  0
  -31.8326  -14.7224   20.1392 O   0  0  0  0  0  0
  -21.6636   -6.8875   21.4233 O   0  0  0  0  0  0
  -22.3541  -14.5540   20.6670 O   0  0  0  0  0  0
  -24.6266  -31.8606   23.2025 C   0  0  0  0  0  0
  -25.9109  -32.4774   23.8370 C   0  0  1  0  0  0
  -27.2189  -27.3161   20.1134 C   0  0  0  0  0  0
  -25.5917  -33.8580   24.2262 N   0  0  0  0  0  0
  -23.4189  -30.4879   21.5446 C   0  0  2  0  0  0
  -24.8643  -28.9453   20.1101 C   0  0  0  0  0  0
  -22.7477  -29.4633   22.4903 C   0  0  0  0  0  0
  -18.0287  -28.1400   22.8455 C   0  0  0  0  0  0
  -24.1489  -36.7333   23.2632 C   0  0  0  0  0  0
  -25.9617  -30.7894   21.3763 C   0  0  0  0  0  0
  -26.0354  -29.4168   20.7190 C   0  0  0  0  0  0
  -27.2156  -28.6131   20.7183 C   0  0  0  0  0  0
  -26.0298  -26.9167   19.4560 C   0  0  0  0  0  0
  -24.8655  -27.7008   19.4690 C   0  0  0  0  0  0
  -23.6321  -29.8249   20.1600 C   0  0  0  0  0  0
  -25.4115  -36.3085   24.0299 C   0  0  1  0  0  0
  -20.5890  -28.3709   23.1259 C   0  0  2  0  0  0
  -20.6775  -26.9419   22.5406 C   0  0  0  0  0  0
  -19.5758  -26.6375   21.5201 C   0  0  0  0  0  0
  -18.1926  -26.7930   22.1602 C   0  0  0  0  0  0
  -19.1537  -28.8865   23.2866 C   0  0  0  0  0  0
  -18.9460  -30.1466   23.8887 C   0  0  0  0  0  0
  -17.6460  -30.6587   24.0560 C   0  0  0  0  0  0
  -25.9064  -34.9445   23.5091 C   0  0  0  0  0  0
  -16.5354  -29.9084   23.6340 C   0  0  0  0  0  0
  -16.7276  -28.6518   23.0319 C   0  0  0  0  0  0
  -26.4507  -31.6589   25.0752 C   0  0  0  0  0  0
  -25.3733  -31.3691   26.1469 C   0  0  0  0  0  0
  -27.0383  -30.3012   24.6235 C   0  0  0  0  0  0
  -27.6047  -32.4346   25.7539 C   0  0  0  0  0  0
  -27.5575  -37.1817   24.8441 C   0  0  0  0  0  0
  -21.4193  -29.3068   22.3649 N   0  0  0  0  0  0
  -26.4284  -37.3782   23.9397 N   0  0  0  0  0  0
  -24.6876  -31.0622   22.0973 N   0  0  0  0  0  0
  -23.4204  -28.8147   23.2961 O   0  0  0  0  0  0
  -28.3114  -26.4330   20.1951 O   0  0  0  0  0  0
  -26.5643  -34.8910   22.4667 O   0  0  0  0  0  0
  -23.5427  -32.1412   23.7345 O   0  0  0  0  0  0
  -29.6083  -20.0772   19.5691 C   0  0  0  0  0  0
  -29.0189  -21.0052   20.4832 C   0  0  0  0  0  0
  -29.1778  -19.3244   22.1208 C   0  0  0  0  0  0
  -29.7535  -18.3803   21.1957 C   0  0  0  0  0  0
  -29.8657  -20.4494   18.1238 C   0  0  0  0  0  0
  -27.4299  -18.7687   23.8786 C   0  0  0  0  0  0
  -31.9263  -17.1755   21.7062 C   0  0  0  0  0  0
  -28.9163  -19.0519   23.5995 C   0  0  0  0  0  0
  -28.3664  -22.3718   20.0581 C   0  0  0  0  0  0
  -28.9484  -23.7953   20.4720 C   0  0  0  0  0  0
  -28.0195  -24.9925   19.9876 C   0  0  0  0  0  0
  -30.3952  -16.9952   21.6147 C   0  0  2  0  0  0
  -29.9588  -18.7968   19.9153 N   0  0  0  0  0  0
  -28.8070  -20.5925   21.7565 N   0  0  0  0  0  0
  -29.9539  -15.6892   20.9888 N   0  0  0  0  0  0
  -31.4672  -12.5055   19.1194 H   0  0  0  0  0  0
  -30.3571  -11.3991   19.8764 H   0  0  0  0  0  0
  -29.7528  -11.7621   17.4611 H   0  0  0  0  0  0
  -29.6406  -13.4826   17.7312 H   0  0  0  0  0  0
  -27.8403  -11.3128   18.8429 H   0  0  0  0  0  0
  -27.3700  -12.6216   17.7868 H   0  0  0  0  0  0
  -27.6750  -14.2650   19.5289 H   0  0  0  0  0  0
  -28.7138  -12.0607   21.3741 H   0  0  0  0  0  0
  -28.4561  -13.7227   21.8322 H   0  0  0  0  0  0
  -25.2808   -9.5661   22.4761 H   0  0  0  0  0  0
  -23.9985   -7.4643   22.7522 H   0  0  0  0  0  0
  -21.0852   -8.8809   19.8976 H   0  0  0  0  0  0
  -22.3762  -10.9675   19.6152 H   0  0  0  0  0  0
  -21.2006   -7.6145   23.9690 H   0  0  0  0  0  0
  -21.1472   -6.0536   25.9071 H   0  0  0  0  0  0
  -22.0602   -2.7598   23.2865 H   0  0  0  0  0  0
  -22.4158  -11.9877   22.4728 H   0  0  0  0  0  0
  -21.1112  -13.1230   22.2584 H   0  0  0  0  0  0
  -24.6461  -15.8388   20.5108 H   0  0  0  0  0  0
  -26.2530  -15.6316   20.0367 H   0  0  0  0  0  0
  -26.7169  -32.5439   23.1116 H   0  0  0  0  0  0
  -24.9971  -33.9729   25.0330 H   0  0  0  0  0  0
  -22.7095  -31.3059   21.4010 H   0  0  0  0  0  0
  -23.3725  -35.9696   23.3292 H   0  0  0  0  0  0
  -24.3552  -36.8994   22.2049 H   0  0  0  0  0  0
  -23.7295  -37.6536   23.6703 H   0  0  0  0  0  0
  -26.0953  -31.5469   20.6029 H   0  0  0  0  0  0
  -26.8413  -30.8376   22.0066 H   0  0  0  0  0  0
  -28.1098  -28.9650   21.2156 H   0  0  0  0  0  0
  -25.9591  -25.9750   18.9323 H   0  0  0  0  0  0
  -23.9750  -27.3344   18.9784 H   0  0  0  0  0  0
  -23.7511  -30.6002   19.4028 H   0  0  0  0  0  0
  -22.7508  -29.2561   19.8592 H   0  0  0  0  0  0
  -25.1309  -36.1915   25.0788 H   0  0  0  0  0  0
  -21.0003  -28.3309   24.1374 H   0  0  0  0  0  0
  -20.5644  -26.2332   23.3625 H   0  0  0  0  0  0
  -21.6651  -26.7425   22.1229 H   0  0  0  0  0  0
  -19.6947  -25.6284   21.1243 H   0  0  0  0  0  0
  -19.6707  -27.3170   20.6719 H   0  0  0  0  0  0
  -17.4207  -26.6646   21.3994 H   0  0  0  0  0  0
  -18.0335  -26.0075   22.9007 H   0  0  0  0  0  0
  -19.7947  -30.7272   24.2227 H   0  0  0  0  0  0
  -17.5033  -31.6255   24.5190 H   0  0  0  0  0  0
  -15.5357  -30.2976   23.7708 H   0  0  0  0  0  0
  -15.8671  -28.0869   22.7003 H   0  0  0  0  0  0
  -24.5907  -30.7049   25.7785 H   0  0  0  0  0  0
  -24.8915  -32.2833   26.4950 H   0  0  0  0  0  0
  -25.8063  -30.8829   27.0217 H   0  0  0  0  0  0
  -26.2995  -29.6702   24.1284 H   0  0  0  0  0  0
  -27.4092  -29.7328   25.4771 H   0  0  0  0  0  0
  -27.8841  -30.4294   23.9483 H   0  0  0  0  0  0
  -27.2641  -33.3618   26.2157 H   0  0  0  0  0  0
  -28.3850  -32.6951   25.0383 H   0  0  0  0  0  0
  -28.0737  -31.8464   26.5429 H   0  0  0  0  0  0
  -28.2577  -38.0129   24.7496 H   0  0  0  0  0  0
  -28.1089  -36.2654   24.6260 H   0  0  0  0  0  0
  -27.2285  -37.1466   25.8839 H   0  0  0  0  0  0
  -20.9353  -29.8832   21.6904 H   0  0  0  0  0  0
  -26.0150  -38.2852   24.1390 H   0  0  0  0  0  0
  -28.9519  -20.3472   17.5388 H   0  0  0  0  0  0
  -30.6278  -19.8067   17.6807 H   0  0  0  0  0  0
  -30.2196  -21.4777   18.0484 H   0  0  0  0  0  0
  -27.2512  -18.6111   24.9423 H   0  0  0  0  0  0
  -27.0839  -17.8831   23.3431 H   0  0  0  0  0  0
  -26.8019  -19.6057   23.5651 H   0  0  0  0  0  0
  -32.1764  -18.0204   22.3492 H   0  0  0  0  0  0
  -32.3628  -17.3765   20.7268 H   0  0  0  0  0  0
  -32.4243  -16.3023   22.1288 H   0  0  0  0  0  0
  -29.2129  -19.9390   24.1617 H   0  0  0  0  0  0
  -29.5425  -18.2636   24.0090 H   0  0  0  0  0  0
  -27.3424  -22.3208   20.4274 H   0  0  0  0  0  0
  -28.2481  -22.3678   18.9748 H   0  0  0  0  0  0
  -29.9524  -23.9130   20.0643 H   0  0  0  0  0  0
  -29.0464  -23.8387   21.5565 H   0  0  0  0  0  0
  -27.0577  -24.7838   20.4597 H   0  0  0  0  0  0
  -27.8763  -24.8561   18.9151 H   0  0  0  0  0  0
  -30.0777  -16.8099   22.6369 H   0  0  0  0  0  0
  -28.9708  -15.4944   21.1054 H   0  0  0  0  0  0
  1 25  1  0  0  0
  1 30  2  0  0  0
  1 85  1  0  0  0
  2  3  1  0  0  0
  2 25  1  0  0  0
  2 86  1  0  0  0
  2 87  1  0  0  0
  3  4  1  0  0  0
  3 88  1  0  0  0
  3 89  1  0  0  0
  4  5  1  0  0  0
  4 90  1  0  0  0
  4 91  1  0  0  0
  5  6  1  0  0  0
  5 26  1  0  0  0
  5 92  1  0  0  0
  6 25  1  0  0  0
  6 93  1  0  0  0
  6 94  1  0  0  0
  7  8  2  0  0  0
  7 26  1  0  0  0
  7 29  1  0  0  0
  8  9  1  0  0  0
  8 22  1  0  0  0
  9 10  1  0  0  0
  9 27  2  0  0  0
 10 11  2  0  0  0
 10 15  1  0  0  0
 11 12  1  0  0  0
 11 95  1  0  0  0
 12 13  2  0  0  0
 12 96  1  0  0  0
 13 14  1  0  0  0
 13 31  1  0  0  0
 14 15  2  0  0  0
 14 97  1  0  0  0
 15 98  1  0  0  0
 16 17  2  0  0  0
 16 21  1  0  0  0
 16 31  1  0  0  0
 17 18  1  0  0  0
 17 99  1  0  0  0
 18 19  2  0  0  0
 18100  1  0  0  0
 19 20  1  0  0  0
 19 24  1  0  0  0
 20 21  2  0  0  0
 20101  1  0  0  0
 21 23  1  0  0  0
 22 28  1  0  0  0
 22 32  2  0  0  0
 26 27  1  0  0  0
 28102  1  0  0  0
 28103  1  0  0  0
 29104  1  0  0  0
 29105  1  0  0  0
 33 34  1  0  0  0
 33 66  1  0  0  0
 33 70  2  0  0  0
 34 36  1  0  0  0
 34 59  1  0  0  0
 34106  1  0  0  0
 35 44  2  0  0  0
 35 45  1  0  0  0
 35 68  1  0  0  0
 36 56  1  0  0  0
 36107  1  0  0  0
 37 39  1  0  0  0
 37 47  1  0  0  0
 37 66  1  0  0  0
 37108  1  0  0  0
 38 43  2  0  0  0
 38 46  1  0  0  0
 38 47  1  0  0  0
 39 64  1  0  0  0
 39 67  2  0  0  0
 40 52  1  0  0  0
 40 53  2  0  0  0
 40 58  1  0  0  0
 41109  1  0  0  0
 41110  1  0  0  0
 41111  1  0  0  0
 41 48  1  0  0  0
 42 43  1  0  0  0
 42 66  1  0  0  0
 42112  1  0  0  0
 42113  1  0  0  0
 43 44  1  0  0  0
 44114  1  0  0  0
 45 46  2  0  0  0
 45115  1  0  0  0
 46116  1  0  0  0
 47117  1  0  0  0
 47118  1  0  0  0
 48 56  1  0  0  0
 48 65  1  0  0  0
 48119  1  0  0  0
 49 50  1  0  0  0
 49 53  1  0  0  0
 49 64  1  0  0  0
 49120  1  0  0  0
 50 51  1  0  0  0
 50121  1  0  0  0
 50122  1  0  0  0
 51 52  1  0  0  0
 51123  1  0  0  0
 51124  1  0  0  0
 52125  1  0  0  0
 52126  1  0  0  0
 53 54  1  0  0  0
 54 55  2  0  0  0
 54127  1  0  0  0
 55 57  1  0  0  0
 55128  1  0  0  0
 56 69  2  0  0  0
 57 58  2  0  0  0
 57129  1  0  0  0
 58130  1  0  0  0
 59 60  1  0  0  0
 59 61  1  0  0  0
 59 62  1  0  0  0
 60131  1  0  0  0
 60132  1  0  0  0
 60133  1  0  0  0
 61134  1  0  0  0
 61135  1  0  0  0
 61136  1  0  0  0
 62137  1  0  0  0
 62138  1  0  0  0
 62139  1  0  0  0
 63 65  1  0  0  0
 63140  1  0  0  0
 63141  1  0  0  0
 63142  1  0  0  0
 64143  1  0  0  0
 65144  1  0  0  0
 68 81  1  0  0  0
 71 72  2  0  0  0
 71 75  1  0  0  0
 71 83  1  0  0  0
 72 79  1  0  0  0
 72 84  1  0  0  0
 73 74  1  0  0  0
 73 78  1  0  0  0
 73 84  2  0  0  0
 74 82  1  0  0  0
 74 83  2  0  0  0
 75145  1  0  0  0
 75146  1  0  0  0
 75147  1  0  0  0
 76 78  1  0  0  0
 76148  1  0  0  0
 76149  1  0  0  0
 76150  1  0  0  0
 77151  1  0  0  0
 77152  1  0  0  0
 77153  1  0  0  0
 77 82  1  0  0  0
 78154  1  0  0  0
 78155  1  0  0  0
 79 80  1  0  0  0
 79156  1  0  0  0
 79157  1  0  0  0
 80 81  1  0  0  0
 80158  1  0  0  0
 80159  1  0  0  0
 81160  1  0  0  0
 81161  1  0  0  0
 82 85  1  0  0  0
 82162  1  0  0  0
 85163  1  0  0  0
M  ISO  4   1 100  68 101  81 101  85 100
M  END
> <chiral flag>
0

> <version>
0

> <s_m_source_file>
/data/baiqing/PycharmProjects/Reinvent-master-3.2/result/LINK_invent/BTK/process_docking_weight1_custom_sum_contain_oxygen_bond_distance_aromatic_linkinvent_7_9_3/rearranged_h_0075.sdf

> <i_m_source_file_index>
19

> <r_mmod_Potential_Energy-OPLS-2005>
37.0988998413086

> <r_mmod_Stretch_Energy-OPLS-2005>
86.7146911621094

> <r_mmod_Bend_Energy-OPLS-2005>
165.544555664062

> <r_mmod_Torsional_Energy-OPLS-2005>
185.580551147461

> <r_mmod_Improper_Torsional_Energy-OPLS-2005>
5.59947490692139

> <r_mmod_Van_der_Waal_Energy-OPLS-2005>
156.764205932617

> <r_mmod_Electrostatic_Energy-OPLS-2005>
-389.918365478516

> <r_mmod_Solvation_Energy-OPLS-2005>
-221.391693115234

> <b_mmod_Minimization_Converged-OPLS-2005>
0

> <r_mmod_RMS_Derivative-OPLS-2005>
3.43280482292175

$$$$
20
                    3D
 Structure written by MMmdl.
161169  0  0  1  0            999 V2000
  -30.6935  -14.4761   20.6347 C   0  0  0  0  0  0
  -30.4367  -12.3306   19.4093 C   0  0  0  0  0  0
  -29.4962  -12.5257   18.2017 C   0  0  0  0  0  0
  -28.0186  -12.3745   18.6180 C   0  0  0  0  0  0
  -27.6676  -13.2021   19.8834 C   0  0  2  0  0  0
  -28.7134  -12.9544   20.9944 C   0  0  0  0  0  0
  -25.2619  -13.8140   20.5687 C   0  0  0  0  0  0
  -24.1859  -13.0427   20.9175 C   0  0  0  0  0  0
  -24.6405  -11.6894   20.8730 C   0  0  0  0  0  0
  -23.9060  -10.4286   21.0400 C   0  0  0  0  0  0
  -24.3614   -9.4202   21.9178 C   0  0  0  0  0  0
  -23.6290   -8.2238   22.0748 C   0  0  0  0  0  0
  -22.4270   -8.0278   21.3543 C   0  0  0  0  0  0
  -21.9905   -9.0250   20.4647 C   0  0  0  0  0  0
  -22.7232  -10.2128   20.3053 C   0  0  0  0  0  0
  -21.6852   -6.0732   22.5276 C   0  0  0  0  0  0
  -21.4016   -6.5635   23.8208 C   0  0  0  0  0  0
  -21.3661   -5.6789   24.9168 C   0  0  0  0  0  0
  -21.6046   -4.3052   24.7222 C   0  0  0  0  0  0
  -21.8820   -3.8143   23.4343 C   0  0  0  0  0  0
  -21.9195   -4.6961   22.3399 C   0  0  0  0  0  0
  -22.7881  -13.5232   21.1835 C   0  0  0  0  0  0
  -22.1660   -4.2148   21.0978 F   0  0  0  0  0  0
  -21.5634   -3.4535   25.7734 F   0  0  0  0  0  0
  -30.0380  -13.2934   20.4494 N   0  0  0  0  0  0
  -26.3066  -12.9306   20.3410 N   0  0  0  0  0  0
  -25.9338  -11.6469   20.5782 N   0  0  0  0  0  0
  -22.0516  -12.8236   22.0403 N   0  0  0  0  0  0
  -25.4346  -15.1855   20.4073 N   0  0  0  0  0  0
  -31.7836  -14.6980   20.0922 O   0  0  0  0  0  0
  -21.6641   -6.8871   21.4237 O   0  0  0  0  0  0
  -22.3569  -14.5538   20.6676 O   0  0  0  0  0  0
  -24.6164  -31.8676   23.2105 C   0  0  0  0  0  0
  -25.9048  -32.4821   23.8399 C   0  0  1  0  0  0
  -27.2309  -27.4148   20.0943 C   0  0  0  0  0  0
  -25.5888  -33.8619   24.2322 N   0  0  0  0  0  0
  -23.4045  -30.4936   21.5514 C   0  0  2  0  0  0
  -24.8486  -28.9625   20.1117 C   0  0  0  0  0  0
  -22.7418  -29.4662   22.4983 C   0  0  0  0  0  0
  -18.0275  -28.1378   22.8496 C   0  0  0  0  0  0
  -24.1484  -36.7317   23.2641 C   0  0  0  0  0  0
  -25.9369  -30.8262   21.3688 C   0  0  0  0  0  0
  -26.0112  -29.4615   20.7122 C   0  0  0  0  0  0
  -27.2022  -28.6952   20.7018 C   0  0  0  0  0  0
  -26.0467  -26.9482   19.4711 C   0  0  0  0  0  0
  -24.8631  -27.7061   19.4882 C   0  0  0  0  0  0
  -23.6120  -29.8304   20.1646 C   0  0  0  0  0  0
  -25.4105  -36.3114   24.0340 C   0  0  1  0  0  0
  -20.5867  -28.3666   23.1308 C   0  0  2  0  0  0
  -20.6761  -26.9400   22.5415 C   0  0  0  0  0  0
  -19.5738  -26.6385   21.5213 C   0  0  0  0  0  0
  -18.1920  -26.7921   22.1629 C   0  0  0  0  0  0
  -19.1526  -28.8840   23.2901 C   0  0  0  0  0  0
  -18.9454  -30.1445   23.8916 C   0  0  0  0  0  0
  -17.6457  -30.6586   24.0566 C   0  0  0  0  0  0
  -25.9034  -34.9477   23.5132 C   0  0  0  0  0  0
  -16.5347  -29.9091   23.6325 C   0  0  0  0  0  0
  -16.7264  -28.6506   23.0352 C   0  0  0  0  0  0
  -26.4465  -31.6609   25.0736 C   0  0  0  0  0  0
  -25.3721  -31.3726   26.1482 C   0  0  0  0  0  0
  -27.0295  -30.3046   24.6132 C   0  0  0  0  0  0
  -27.6039  -32.4333   25.7488 C   0  0  0  0  0  0
  -27.5580  -37.1813   24.8466 C   0  0  0  0  0  0
  -21.4145  -29.3035   22.3713 N   0  0  0  0  0  0
  -26.4294  -37.3796   23.9406 N   0  0  0  0  0  0
  -24.6709  -31.0768   22.1012 N   0  0  0  0  0  0
  -23.4187  -28.8201   23.3024 O   0  0  0  0  0  0
  -28.3951  -26.6588   20.1407 O   0  0  0  0  0  0
  -26.5608  -34.8930   22.4701 O   0  0  0  0  0  0
  -23.5352  -32.1428   23.7492 O   0  0  0  0  0  0
  -29.6290  -18.0003   20.4951 C   0  0  0  0  0  0
  -30.3860  -17.0279   21.1153 C   0  0  0  0  0  0
  -31.5760  -18.9292   20.9927 C   0  0  0  0  0  0
  -32.7219  -19.8787   21.1251 C   0  0  0  0  0  0
  -30.8252  -24.9091   20.0011 C   0  0  0  0  0  0
  -30.0506  -15.5962   21.5057 C   0  0  0  0  0  0
  -29.9980  -21.7423   20.5724 C   0  0  0  0  0  0
  -29.2652  -22.8915   19.8196 C   0  0  0  0  0  0
  -29.9700  -20.4175   19.7525 C   0  0  0  0  0  0
  -28.3035  -25.2609   19.7913 C   0  0  0  0  0  0
  -29.4355  -24.3500   20.3494 C   0  0  2  0  0  0
  -30.3745  -19.1582   20.4345 N   0  0  0  0  0  0
  -31.5725  -17.6554   21.4171 N   0  3  0  0  0  0
  -31.4778  -12.4519   19.1026 H   0  0  0  0  0  0
  -30.3589  -11.3115   19.7924 H   0  0  0  0  0  0
  -29.7378  -11.8085   17.4162 H   0  0  0  0  0  0
  -29.6567  -13.5153   17.7707 H   0  0  0  0  0  0
  -27.8332  -11.3163   18.8063 H   0  0  0  0  0  0
  -27.3652  -12.6558   17.7916 H   0  0  0  0  0  0
  -27.7180  -14.2545   19.6025 H   0  0  0  0  0  0
  -28.7030  -11.9033   21.2852 H   0  0  0  0  0  0
  -28.4682  -13.4946   21.9083 H   0  0  0  0  0  0
  -25.2762   -9.5678   22.4748 H   0  0  0  0  0  0
  -24.0006   -7.4630   22.7464 H   0  0  0  0  0  0
  -21.0836   -8.8765   19.8955 H   0  0  0  0  0  0
  -22.3689  -10.9667   19.6163 H   0  0  0  0  0  0
  -21.2004   -7.6141   23.9710 H   0  0  0  0  0  0
  -21.1486   -6.0517   25.9073 H   0  0  0  0  0  0
  -22.0601   -2.7607   23.2842 H   0  0  0  0  0  0
  -22.4120  -11.9900   22.4809 H   0  0  0  0  0  0
  -21.1132  -13.1260   22.2592 H   0  0  0  0  0  0
  -24.6641  -15.8374   20.5043 H   0  0  0  0  0  0
  -26.2814  -15.6231   20.0681 H   0  0  0  0  0  0
  -26.7120  -32.5528   23.1164 H   0  0  0  0  0  0
  -25.0004  -33.9776   25.0445 H   0  0  0  0  0  0
  -22.6943  -31.3118   21.4147 H   0  0  0  0  0  0
  -23.3742  -35.9656   23.3318 H   0  0  0  0  0  0
  -24.3578  -36.8918   22.2053 H   0  0  0  0  0  0
  -23.7246  -37.6530   23.6646 H   0  0  0  0  0  0
  -26.0573  -31.5930   20.6023 H   0  0  0  0  0  0
  -26.8223  -30.8743   21.9912 H   0  0  0  0  0  0
  -28.0966  -29.0750   21.1759 H   0  0  0  0  0  0
  -26.0064  -25.9966   18.9623 H   0  0  0  0  0  0
  -23.9719  -27.3190   19.0134 H   0  0  0  0  0  0
  -23.7200  -30.6069   19.4067 H   0  0  0  0  0  0
  -22.7347  -29.2517   19.8694 H   0  0  0  0  0  0
  -25.1287  -36.1978   25.0834 H   0  0  0  0  0  0
  -20.9968  -28.3232   24.1425 H   0  0  0  0  0  0
  -20.5658  -26.2279   23.3607 H   0  0  0  0  0  0
  -21.6630  -26.7435   22.1208 H   0  0  0  0  0  0
  -19.6895  -25.6302   21.1233 H   0  0  0  0  0  0
  -19.6671  -27.3205   20.6752 H   0  0  0  0  0  0
  -17.4185  -26.6674   21.4033 H   0  0  0  0  0  0
  -18.0318  -26.0061   22.9024 H   0  0  0  0  0  0
  -19.7933  -30.7249   24.2295 H   0  0  0  0  0  0
  -17.5018  -31.6267   24.5160 H   0  0  0  0  0  0
  -15.5352  -30.3003   23.7635 H   0  0  0  0  0  0
  -15.8663  -28.0830   22.7061 H   0  0  0  0  0  0
  -24.5876  -30.7099   25.7814 H   0  0  0  0  0  0
  -24.8939  -32.2891   26.4949 H   0  0  0  0  0  0
  -25.8062  -30.8869   27.0232 H   0  0  0  0  0  0
  -26.2851  -29.6816   24.1163 H   0  0  0  0  0  0
  -27.4027  -29.7278   25.4606 H   0  0  0  0  0  0
  -27.8704  -30.4359   23.9318 H   0  0  0  0  0  0
  -27.2653  -33.3613   26.2110 H   0  0  0  0  0  0
  -28.3817  -32.6931   25.0294 H   0  0  0  0  0  0
  -28.0749  -31.8439   26.5368 H   0  0  0  0  0  0
  -28.2611  -38.0096   24.7502 H   0  0  0  0  0  0
  -28.1060  -36.2630   24.6304 H   0  0  0  0  0  0
  -27.2299  -37.1483   25.8870 H   0  0  0  0  0  0
  -20.9303  -29.8760   21.6941 H   0  0  0  0  0  0
  -26.0186  -38.2877   24.1398 H   0  0  0  0  0  0
  -28.6251  -17.9500   20.0939 H   0  0  0  0  0  0
  -32.8266  -20.4435   20.1995 H   0  0  0  0  0  0
  -33.6333  -19.3112   21.3131 H   0  0  0  0  0  0
  -32.5238  -20.5477   21.9624 H   0  0  0  0  0  0
  -31.6205  -24.3149   20.4512 H   0  0  0  0  0  0
  -30.9410  -25.9305   20.3658 H   0  0  0  0  0  0
  -30.9910  -24.9247   18.9231 H   0  0  0  0  0  0
  -28.9656  -15.5273   21.4713 H   0  0  0  0  0  0
  -30.3368  -15.4316   22.5444 H   0  0  0  0  0  0
  -29.5289  -21.5915   21.5460 H   0  0  0  0  0  0
  -31.0282  -22.0331   20.7699 H   0  0  0  0  0  0
  -28.2028  -22.6417   19.8156 H   0  0  0  0  0  0
  -29.5637  -22.8756   18.7698 H   0  0  0  0  0  0
  -30.6022  -20.5173   18.8695 H   0  0  0  0  0  0
  -28.9580  -20.2580   19.3788 H   0  0  0  0  0  0
  -27.3741  -24.8422   20.1807 H   0  0  0  0  0  0
  -28.2634  -25.1806   18.7036 H   0  0  0  0  0  0
  -29.3361  -24.3369   21.4361 H   0  0  0  0  0  0
  -32.3567  -17.2167   21.8882 H   0  0  0  0  0  0
  1 25  1  0  0  0
  1 30  2  0  0  0
  1 76  1  0  0  0
  2  3  1  0  0  0
  2 25  1  0  0  0
  2 84  1  0  0  0
  2 85  1  0  0  0
  3  4  1  0  0  0
  3 86  1  0  0  0
  3 87  1  0  0  0
  4  5  1  0  0  0
  4 88  1  0  0  0
  4 89  1  0  0  0
  5  6  1  0  0  0
  5 26  1  0  0  0
  5 90  1  0  0  0
  6 25  1  0  0  0
  6 91  1  0  0  0
  6 92  1  0  0  0
  7  8  2  0  0  0
  7 26  1  0  0  0
  7 29  1  0  0  0
  8  9  1  0  0  0
  8 22  1  0  0  0
  9 10  1  0  0  0
  9 27  2  0  0  0
 10 11  2  0  0  0
 10 15  1  0  0  0
 11 12  1  0  0  0
 11 93  1  0  0  0
 12 13  2  0  0  0
 12 94  1  0  0  0
 13 14  1  0  0  0
 13 31  1  0  0  0
 14 15  2  0  0  0
 14 95  1  0  0  0
 15 96  1  0  0  0
 16 17  2  0  0  0
 16 21  1  0  0  0
 16 31  1  0  0  0
 17 18  1  0  0  0
 17 97  1  0  0  0
 18 19  2  0  0  0
 18 98  1  0  0  0
 19 20  1  0  0  0
 19 24  1  0  0  0
 20 21  2  0  0  0
 20 99  1  0  0  0
 21 23  1  0  0  0
 22 28  1  0  0  0
 22 32  2  0  0  0
 26 27  1  0  0  0
 28100  1  0  0  0
 28101  1  0  0  0
 29102  1  0  0  0
 29103  1  0  0  0
 33 34  1  0  0  0
 33 66  1  0  0  0
 33 70  2  0  0  0
 34 36  1  0  0  0
 34 59  1  0  0  0
 34104  1  0  0  0
 35 44  2  0  0  0
 35 45  1  0  0  0
 35 68  1  0  0  0
 36 56  1  0  0  0
 36105  1  0  0  0
 37 39  1  0  0  0
 37 47  1  0  0  0
 37 66  1  0  0  0
 37106  1  0  0  0
 38 43  2  0  0  0
 38 46  1  0  0  0
 38 47  1  0  0  0
 39 64  1  0  0  0
 39 67  2  0  0  0
 40 52  1  0  0  0
 40 53  2  0  0  0
 40 58  1  0  0  0
 41107  1  0  0  0
 41108  1  0  0  0
 41109  1  0  0  0
 41 48  1  0  0  0
 42 43  1  0  0  0
 42 66  1  0  0  0
 42110  1  0  0  0
 42111  1  0  0  0
 43 44  1  0  0  0
 44112  1  0  0  0
 45 46  2  0  0  0
 45113  1  0  0  0
 46114  1  0  0  0
 47115  1  0  0  0
 47116  1  0  0  0
 48 56  1  0  0  0
 48 65  1  0  0  0
 48117  1  0  0  0
 49 50  1  0  0  0
 49 53  1  0  0  0
 49 64  1  0  0  0
 49118  1  0  0  0
 50 51  1  0  0  0
 50119  1  0  0  0
 50120  1  0  0  0
 51 52  1  0  0  0
 51121  1  0  0  0
 51122  1  0  0  0
 52123  1  0  0  0
 52124  1  0  0  0
 53 54  1  0  0  0
 54 55  2  0  0  0
 54125  1  0  0  0
 55 57  1  0  0  0
 55126  1  0  0  0
 56 69  2  0  0  0
 57 58  2  0  0  0
 57127  1  0  0  0
 58128  1  0  0  0
 59 60  1  0  0  0
 59 61  1  0  0  0
 59 62  1  0  0  0
 60129  1  0  0  0
 60130  1  0  0  0
 60131  1  0  0  0
 61132  1  0  0  0
 61133  1  0  0  0
 61134  1  0  0  0
 62135  1  0  0  0
 62136  1  0  0  0
 62137  1  0  0  0
 63 65  1  0  0  0
 63138  1  0  0  0
 63139  1  0  0  0
 63140  1  0  0  0
 64141  1  0  0  0
 65142  1  0  0  0
 68 80  1  0  0  0
 71 72  2  0  0  0
 71 82  1  0  0  0
 71143  1  0  0  0
 72 76  1  0  0  0
 72 83  1  0  0  0
 73 74  1  0  0  0
 73 82  1  0  0  0
 73 83  2  0  0  0
 74144  1  0  0  0
 74145  1  0  0  0
 74146  1  0  0  0
 75147  1  0  0  0
 75148  1  0  0  0
 75149  1  0  0  0
 75 81  1  0  0  0
 76150  1  0  0  0
 76151  1  0  0  0
 77 78  1  0  0  0
 77 79  1  0  0  0
 77152  1  0  0  0
 77153  1  0  0  0
 78 81  1  0  0  0
 78154  1  0  0  0
 78155  1  0  0  0
 79 82  1  0  0  0
 79156  1  0  0  0
 79157  1  0  0  0
 80 81  1  0  0  0
 80158  1  0  0  0
 80159  1  0  0  0
 81160  1  0  0  0
 83161  1  0  0  0
M  CHG  1  83   1
M  ISO  4   1 100  68 101  76 100  80 101
M  END
> <chiral flag>
0

> <version>
0

> <s_m_source_file>
/data/baiqing/PycharmProjects/Reinvent-master-3.2/result/LINK_invent/BTK/process_docking_weight1_custom_sum_contain_oxygen_bond_distance_aromatic_linkinvent_7_9_3/rearranged_h_0075.sdf

> <i_m_source_file_index>
20

> <r_mmod_Potential_Energy-OPLS-2005>
-31.9309425354004

> <r_mmod_Stretch_Energy-OPLS-2005>
41.9372215270996

> <r_mmod_Bend_Energy-OPLS-2005>
107.514205932617

> <r_mmod_Torsional_Energy-OPLS-2005>
183.151245117188

> <r_mmod_Improper_Torsional_Energy-OPLS-2005>
2.44040942192078

> <r_mmod_Van_der_Waal_Energy-OPLS-2005>
129.248062133789

> <r_mmod_Electrostatic_Energy-OPLS-2005>
-114.825668334961

> <r_mmod_Solvation_Energy-OPLS-2005>
-395.615814208984

> <b_mmod_Minimization_Converged-OPLS-2005>
0

> <r_mmod_RMS_Derivative-OPLS-2005>
1.03945910930634

$$$$
21
                    3D
 Structure written by MMmdl.
170178  0  0  1  0            999 V2000
  -29.7063  -15.8729   20.9017 C   0  0  0  0  0  0
  -30.2967  -13.3460   19.7980 C   0  0  0  0  0  0
  -29.5614  -12.8321   18.5011 C   0  0  0  0  0  0
  -28.1460  -12.3471   18.8254 C   0  0  0  0  0  0
  -27.5346  -13.2990   19.8713 C   0  0  2  0  0  0
  -28.4037  -13.5594   21.1132 C   0  0  0  0  0  0
  -25.1896  -13.8222   20.5691 C   0  0  0  0  0  0
  -24.1363  -13.0360   20.9258 C   0  0  0  0  0  0
  -24.6087  -11.6879   20.8723 C   0  0  0  0  0  0
  -23.8911  -10.4240   21.0422 C   0  0  0  0  0  0
  -24.3543   -9.4180   21.9186 C   0  0  0  0  0  0
  -23.6250   -8.2196   22.0755 C   0  0  0  0  0  0
  -22.4235   -8.0224   21.3540 C   0  0  0  0  0  0
  -21.9824   -9.0174   20.4650 C   0  0  0  0  0  0
  -22.7112  -10.2063   20.3056 C   0  0  0  0  0  0
  -21.6837   -6.0705   22.5287 C   0  0  0  0  0  0
  -21.3996   -6.5619   23.8216 C   0  0  0  0  0  0
  -21.3656   -5.6781   24.9185 C   0  0  0  0  0  0
  -21.6056   -4.3046   24.7244 C   0  0  0  0  0  0
  -21.8812   -3.8124   23.4369 C   0  0  0  0  0  0
  -21.9180   -4.6933   22.3418 C   0  0  0  0  0  0
  -22.7452  -13.5134   21.1965 C   0  0  0  0  0  0
  -22.1655   -4.2124   21.0994 F   0  0  0  0  0  0
  -21.5638   -3.4538   25.7760 F   0  0  0  0  0  0
  -29.4909  -14.4063   20.6573 N   0  0  0  0  0  0
  -26.2165  -12.9459   20.2995 N   0  0  0  0  0  0
  -25.8962  -11.6567   20.5552 N   0  0  0  0  0  0
  -22.0164  -12.8120   22.0561 N   0  0  0  0  0  0
  -25.3603  -15.1980   20.4280 N   0  0  0  0  0  0
  -30.8846  -15.9196   20.4228 O   0  0  0  0  0  0
  -21.6612   -6.8829   21.4243 O   0  0  0  0  0  0
  -22.3167  -14.5467   20.6842 O   0  0  0  0  0  0
  -24.8079  -31.8511   23.2880 C   0  0  0  0  0  0
  -26.0341  -32.5166   23.9075 C   0  0  1  0  0  0
  -26.0241  -27.3458   20.1959 C   0  0  0  0  0  0
  -25.6569  -33.8856   24.2753 N   0  0  0  0  0  0
  -24.0012  -30.0212   21.8349 C   0  0  2  0  0  0
  -25.1774  -29.6522   19.6724 C   0  0  0  0  0  0
  -23.9619  -28.3771   22.4802 C   0  0  0  0  0  0
  -18.1824  -27.8413   22.7872 C   0  0  0  0  0  0
  -24.1508  -36.7323   23.2563 C   0  0  0  0  0  0
  -26.2931  -30.7646   21.5904 C   0  0  0  0  0  0
  -26.2193  -29.6377   20.5934 C   0  0  0  0  0  0
  -26.7803  -28.3862   20.8171 C   0  0  0  0  0  0
  -25.9930  -27.4984   18.8460 C   0  0  0  0  0  0
  -25.1865  -28.6475   18.6424 C   0  0  0  0  0  0
  -24.0048  -30.4112   20.2569 C   0  0  0  0  0  0
  -25.4103  -36.3172   24.0310 C   0  0  1  0  0  0
  -20.9307  -27.0960   22.7557 C   0  0  2  0  0  0
  -20.4884  -26.0360   21.8937 C   0  0  0  0  0  0
  -19.2540  -26.3843   21.1171 C   0  0  0  0  0  0
  -18.0554  -26.5663   22.0335 C   0  0  0  0  0  0
  -19.5193  -28.2453   23.1348 C   0  0  0  0  0  0
  -19.3823  -29.6193   23.6925 C   0  0  0  0  0  0
  -18.1549  -30.3459   23.9407 C   0  0  0  0  0  0
  -25.9148  -34.9585   23.5186 C   0  0  0  0  0  0
  -16.9081  -29.7902   23.6219 C   0  0  0  0  0  0
  -16.9474  -28.5293   23.0237 C   0  0  0  0  0  0
  -26.5184  -31.6894   25.1549 C   0  0  0  0  0  0
  -25.4007  -31.3769   26.1807 C   0  0  0  0  0  0
  -27.1627  -30.3429   24.7499 C   0  0  0  0  0  0
  -27.6307  -32.4892   25.8539 C   0  0  0  0  0  0
  -27.5562  -37.1848   24.8464 C   0  0  0  0  0  0
  -22.7842  -27.2113   22.3724 N   0  0  0  0  0  0
  -26.4272  -37.3866   23.9398 N   0  0  0  0  0  0
  -25.0398  -30.8870   22.3512 N   0  0  0  0  0  0
  -24.7307  -28.2963   23.3919 O   0  0  0  0  0  0
  -24.5586  -27.1944   20.3626 O   0  0  0  0  0  0
  -26.5507  -34.8959   22.4626 O   0  0  0  0  0  0
  -23.6851  -32.1595   23.7383 O   0  0  0  0  0  0
  -26.5108  -20.2196   21.9651 C   0  0  0  0  0  0
  -27.7040  -19.1992   22.1701 C   0  0  0  0  0  0
  -27.3361  -21.2538   23.6040 C   0  0  0  0  0  0
  -27.7355  -22.0951   24.7624 C   0  0  0  0  0  0
  -27.7492  -16.9181   24.1698 C   0  0  0  0  0  0
  -30.1351  -18.4103   21.5988 C   0  0  0  0  0  0
  -29.0266  -16.9624   23.3205 C   0  0  0  0  0  0
  -23.1480  -26.5739   24.6311 C   0  0  0  0  0  0
  -22.1624  -28.5756   24.1198 C   0  0  0  0  0  0
  -24.4922  -25.0253   23.9203 C   0  0  0  0  0  0
  -21.7026  -29.1514   21.8017 C   0  0  0  0  0  0
  -24.9328  -23.0629   23.1793 C   0  0  0  0  0  0
  -22.8714  -28.1169   20.2145 C   0  0  0  0  0  0
  -28.8873  -17.5174   21.8676 C   0  0  2  0  0  0
  -26.2334  -21.5530   22.8447 N   0  0  0  0  0  0
  -28.0576  -20.0773   23.2457 N   0  3  0  0  0  0
  -31.2623  -13.7484   19.4958 H   0  0  0  0  0  0
  -30.5618  -12.4924   20.4225 H   0  0  0  0  0  0
  -30.1364  -12.0453   18.0131 H   0  0  0  0  0  0
  -29.5019  -13.6569   17.7894 H   0  0  0  0  0  0
  -28.2010  -11.3363   19.2310 H   0  0  0  0  0  0
  -27.5309  -12.2987   17.9261 H   0  0  0  0  0  0
  -27.4288  -14.2447   19.3373 H   0  0  0  0  0  0
  -28.7271  -12.6359   21.5950 H   0  0  0  0  0  0
  -27.8413  -14.1113   21.8684 H   0  0  0  0  0  0
  -25.2696   -9.5693   22.4748 H   0  0  0  0  0  0
  -23.9986   -7.4592   22.7461 H   0  0  0  0  0  0
  -21.0761   -8.8656   19.8969 H   0  0  0  0  0  0
  -22.3547  -10.9593   19.6167 H   0  0  0  0  0  0
  -21.1974   -7.6131   23.9708 H   0  0  0  0  0  0
  -21.1496   -6.0526   25.9090 H   0  0  0  0  0  0
  -22.0596   -2.7590   23.2877 H   0  0  0  0  0  0
  -22.3802  -11.9778   22.4927 H   0  0  0  0  0  0
  -21.0790  -13.1142   22.2830 H   0  0  0  0  0  0
  -24.5883  -15.8445   20.5436 H   0  0  0  0  0  0
  -26.1906  -15.6377   20.0524 H   0  0  0  0  0  0
  -26.8650  -32.5807   23.2035 H   0  0  0  0  0  0
  -25.0706  -33.9980   25.0891 H   0  0  0  0  0  0
  -23.2308  -30.6097   22.2630 H   0  0  0  0  0  0
  -23.3786  -35.9638   23.3204 H   0  0  0  0  0  0
  -24.3649  -36.8897   22.1984 H   0  0  0  0  0  0
  -23.7218  -37.6529   23.6531 H   0  0  0  0  0  0
  -26.4883  -31.6835   21.0413 H   0  0  0  0  0  0
  -27.1619  -30.5929   22.2078 H   0  0  0  0  0  0
  -27.3996  -28.1995   21.6810 H   0  0  0  0  0  0
  -25.8097  -26.6587   18.1877 H   0  0  0  0  0  0
  -24.4832  -28.6640   17.8232 H   0  0  0  0  0  0
  -24.2325  -31.4727   20.1360 H   0  0  0  0  0  0
  -23.0628  -30.4197   19.7184 H   0  0  0  0  0  0
  -25.1222  -36.2036   25.0783 H   0  0  0  0  0  0
  -20.8751  -26.5795   23.7108 H   0  0  0  0  0  0
  -21.2679  -25.7369   21.1913 H   0  0  0  0  0  0
  -20.2965  -25.1245   22.4653 H   0  0  0  0  0  0
  -19.0408  -25.5719   20.4208 H   0  0  0  0  0  0
  -19.4063  -27.2679   20.4949 H   0  0  0  0  0  0
  -17.1539  -26.5865   21.4188 H   0  0  0  0  0  0
  -17.9277  -25.7444   22.7361 H   0  0  0  0  0  0
  -20.2674  -30.1888   23.9356 H   0  0  0  0  0  0
  -18.1990  -31.3319   24.3805 H   0  0  0  0  0  0
  -15.9710  -30.2938   23.8102 H   0  0  0  0  0  0
  -16.0157  -28.0748   22.7122 H   0  0  0  0  0  0
  -24.6681  -30.6659   25.7965 H   0  0  0  0  0  0
  -24.8644  -32.2772   26.4839 H   0  0  0  0  0  0
  -25.8134  -30.9304   27.0855 H   0  0  0  0  0  0
  -26.4879  -29.6868   24.2180 H   0  0  0  0  0  0
  -27.4840  -29.7860   25.6310 H   0  0  0  0  0  0
  -28.0573  -30.4917   24.1450 H   0  0  0  0  0  0
  -27.2569  -33.4192   26.2875 H   0  0  0  0  0  0
  -28.4274  -32.7519   25.1555 H   0  0  0  0  0  0
  -28.0825  -31.9197   26.6663 H   0  0  0  0  0  0
  -28.2547  -38.0177   24.7535 H   0  0  0  0  0  0
  -28.1103  -36.2707   24.6256 H   0  0  0  0  0  0
  -27.2292  -37.1419   25.8874 H   0  0  0  0  0  0
  -23.2092  -26.3365   22.6503 H   0  0  0  0  0  0
  -26.0164  -38.2934   24.1404 H   0  0  0  0  0  0
  -25.7685  -20.0495   21.2000 H   0  0  0  0  0  0
  -28.6413  -21.6839   25.2038 H   0  0  0  0  0  0
  -27.9166  -23.1084   24.4056 H   0  0  0  0  0  0
  -26.9236  -22.0844   25.4901 H   0  0  0  0  0  0
  -26.8831  -16.6019   23.5907 H   0  0  0  0  0  0
  -27.8705  -16.2166   24.9952 H   0  0  0  0  0  0
  -27.5271  -17.8825   24.6220 H   0  0  0  0  0  0
  -31.0928  -17.8985   21.6737 H   0  0  0  0  0  0
  -30.2459  -19.2221   22.3118 H   0  0  0  0  0  0
  -30.0719  -18.8660   20.6120 H   0  0  0  0  0  0
  -29.4395  -15.9513   23.3202 H   0  0  0  0  0  0
  -29.7690  -17.5377   23.8785 H   0  0  0  0  0  0
  -23.7006  -26.8734   25.5213 H   0  0  0  0  0  0
  -22.3470  -25.9787   25.0766 H   0  0  0  0  0  0
  -22.7781  -29.3772   24.5373 H   0  0  0  0  0  0
  -21.3347  -28.6576   24.8156 H   0  0  0  0  0  0
  -24.9983  -24.8763   24.8743 H   0  0  0  0  0  0
  -25.2168  -25.6188   23.3643 H   0  0  0  0  0  0
  -21.5014  -30.2127   21.6465 H   0  0  0  0  0  0
  -20.7236  -28.9754   21.3582 H   0  0  0  0  0  0
  -24.1455  -22.4952   23.6762 H   0  0  0  0  0  0
  -24.5589  -23.1862   22.1613 H   0  0  0  0  0  0
  -22.7002  -28.5284   19.2210 H   0  0  0  0  0  0
  -22.2485  -27.2481   19.9923 H   0  0  0  0  0  0
  -28.8684  -19.8344   23.8012 H   0  0  0  0  0  0
  1 25  1  0  0  0
  1 30  2  0  0  0
  1 84  1  0  0  0
  2  3  1  0  0  0
  2 25  1  0  0  0
  2 87  1  0  0  0
  2 88  1  0  0  0
  3  4  1  0  0  0
  3 89  1  0  0  0
  3 90  1  0  0  0
  4  5  1  0  0  0
  4 91  1  0  0  0
  4 92  1  0  0  0
  5  6  1  0  0  0
  5 26  1  0  0  0
  5 93  1  0  0  0
  6 25  1  0  0  0
  6 94  1  0  0  0
  6 95  1  0  0  0
  7  8  2  0  0  0
  7 26  1  0  0  0
  7 29  1  0  0  0
  8  9  1  0  0  0
  8 22  1  0  0  0
  9 10  1  0  0  0
  9 27  2  0  0  0
 10 11  2  0  0  0
 10 15  1  0  0  0
 11 12  1  0  0  0
 11 96  1  0  0  0
 12 13  2  0  0  0
 12 97  1  0  0  0
 13 14  1  0  0  0
 13 31  1  0  0  0
 14 15  2  0  0  0
 14 98  1  0  0  0
 15 99  1  0  0  0
 16 17  2  0  0  0
 16 21  1  0  0  0
 16 31  1  0  0  0
 17 18  1  0  0  0
 17100  1  0  0  0
 18 19  2  0  0  0
 18101  1  0  0  0
 19 20  1  0  0  0
 19 24  1  0  0  0
 20 21  2  0  0  0
 20102  1  0  0  0
 21 23  1  0  0  0
 22 28  1  0  0  0
 22 32  2  0  0  0
 26 27  1  0  0  0
 28103  1  0  0  0
 28104  1  0  0  0
 29105  1  0  0  0
 29106  1  0  0  0
 33 34  1  0  0  0
 33 66  1  0  0  0
 33 70  2  0  0  0
 34 36  1  0  0  0
 34 59  1  0  0  0
 34107  1  0  0  0
 35 44  2  0  0  0
 35 45  1  0  0  0
 35 68  1  0  0  0
 36 56  1  0  0  0
 36108  1  0  0  0
 37 39  1  0  0  0
 37 47  1  0  0  0
 37 66  1  0  0  0
 37109  1  0  0  0
 38 43  2  0  0  0
 38 46  1  0  0  0
 38 47  1  0  0  0
 39 64  1  0  0  0
 39 67  2  0  0  0
 40 52  1  0  0  0
 40 53  2  0  0  0
 40 58  1  0  0  0
 41110  1  0  0  0
 41111  1  0  0  0
 41112  1  0  0  0
 41 48  1  0  0  0
 42 43  1  0  0  0
 42 66  1  0  0  0
 42113  1  0  0  0
 42114  1  0  0  0
 43 44  1  0  0  0
 44115  1  0  0  0
 45 46  2  0  0  0
 45116  1  0  0  0
 46117  1  0  0  0
 47118  1  0  0  0
 47119  1  0  0  0
 48 56  1  0  0  0
 48 65  1  0  0  0
 48120  1  0  0  0
 49 50  1  0  0  0
 49 53  1  0  0  0
 49 64  1  0  0  0
 49121  1  0  0  0
 50 51  1  0  0  0
 50122  1  0  0  0
 50123  1  0  0  0
 51 52  1  0  0  0
 51124  1  0  0  0
 51125  1  0  0  0
 52126  1  0  0  0
 52127  1  0  0  0
 53 54  1  0  0  0
 54 55  2  0  0  0
 54128  1  0  0  0
 55 57  1  0  0  0
 55129  1  0  0  0
 56 69  2  0  0  0
 57 58  2  0  0  0
 57130  1  0  0  0
 58131  1  0  0  0
 59 60  1  0  0  0
 59 61  1  0  0  0
 59 62  1  0  0  0
 60132  1  0  0  0
 60133  1  0  0  0
 60134  1  0  0  0
 61135  1  0  0  0
 61136  1  0  0  0
 61137  1  0  0  0
 62138  1  0  0  0
 62139  1  0  0  0
 62140  1  0  0  0
 63 65  1  0  0  0
 63141  1  0  0  0
 63142  1  0  0  0
 63143  1  0  0  0
 64144  1  0  0  0
 65145  1  0  0  0
 68 83  1  0  0  0
 71 72  2  0  0  0
 71 85  1  0  0  0
 71146  1  0  0  0
 72 84  1  0  0  0
 72 86  1  0  0  0
 73 74  1  0  0  0
 73 85  1  0  0  0
 73 86  2  0  0  0
 74147  1  0  0  0
 74148  1  0  0  0
 74149  1  0  0  0
 75 77  1  0  0  0
 75150  1  0  0  0
 75151  1  0  0  0
 75152  1  0  0  0
 76153  1  0  0  0
 76154  1  0  0  0
 76155  1  0  0  0
 76 84  1  0  0  0
 77 84  1  0  0  0
 77156  1  0  0  0
 77157  1  0  0  0
 78 79  1  0  0  0
 78 80  1  0  0  0
 78158  1  0  0  0
 78159  1  0  0  0
 79 81  1  0  0  0
 79160  1  0  0  0
 79161  1  0  0  0
 80 82  1  0  0  0
 80162  1  0  0  0
 80163  1  0  0  0
 81 83  1  0  0  0
 81164  1  0  0  0
 81165  1  0  0  0
 82 85  1  0  0  0
 82166  1  0  0  0
 82167  1  0  0  0
 83168  1  0  0  0
 83169  1  0  0  0
 86170  1  0  0  0
M  CHG  1  86   1
M  ISO  4   1 100  68 101  83 101  84 100
M  END
> <chiral flag>
0

> <version>
0

> <s_m_source_file>
/data/baiqing/PycharmProjects/Reinvent-master-3.2/result/LINK_invent/BTK/process_docking_weight1_custom_sum_contain_oxygen_bond_distance_aromatic_linkinvent_7_9_3/rearranged_h_0075.sdf

> <i_m_source_file_index>
21

> <r_mmod_Potential_Energy-OPLS-2005>
14397.34375

> <r_mmod_Stretch_Energy-OPLS-2005>
5769.35888671875

> <r_mmod_Bend_Energy-OPLS-2005>
1829.89489746094

> <r_mmod_Torsional_Energy-OPLS-2005>
589.854797363281

> <r_mmod_Improper_Torsional_Energy-OPLS-2005>
68.5825271606445

> <r_mmod_Van_der_Waal_Energy-OPLS-2005>
1778.54943847656

> <r_mmod_Electrostatic_Energy-OPLS-2005>
-126.780387878418

> <r_mmod_Solvation_Energy-OPLS-2005>
-360.231475830078

> <b_mmod_Minimization_Converged-OPLS-2005>
0

> <r_mmod_RMS_Derivative-OPLS-2005>
7.79322910308838

$$$$
22
                    3D
 Structure written by MMmdl.
146154  0  0  1  0            999 V2000
  -30.3096  -15.5774   20.3365 C   0  0  0  0  0  0
  -30.4379  -13.0239   19.5563 C   0  0  0  0  0  0
  -29.5543  -12.6566   18.3276 C   0  0  0  0  0  0
  -28.1188  -12.3113   18.7554 C   0  0  0  0  0  0
  -27.6001  -13.3058   19.8189 C   0  0  2  0  0  0
  -28.6225  -13.5882   20.9463 C   0  0  0  0  0  0
  -25.2205  -13.8204   20.5687 C   0  0  0  0  0  0
  -24.1654  -13.0349   20.9267 C   0  0  0  0  0  0
  -24.6411  -11.6895   20.8775 C   0  0  0  0  0  0
  -23.9122  -10.4253   21.0407 C   0  0  0  0  0  0
  -24.3654   -9.4174   21.9192 C   0  0  0  0  0  0
  -23.6309   -8.2222   22.0760 C   0  0  0  0  0  0
  -22.4289   -8.0270   21.3549 C   0  0  0  0  0  0
  -21.9941   -9.0243   20.4644 C   0  0  0  0  0  0
  -22.7291  -10.2107   20.3054 C   0  0  0  0  0  0
  -21.6848   -6.0734   22.5283 C   0  0  0  0  0  0
  -21.4012   -6.5639   23.8215 C   0  0  0  0  0  0
  -21.3661   -5.6792   24.9178 C   0  0  0  0  0  0
  -21.6045   -4.3056   24.7225 C   0  0  0  0  0  0
  -21.8820   -3.8147   23.4346 C   0  0  0  0  0  0
  -21.9192   -4.6964   22.3404 C   0  0  0  0  0  0
  -22.7667  -13.5078   21.1922 C   0  0  0  0  0  0
  -22.1662   -4.2150   21.0982 F   0  0  0  0  0  0
  -21.5631   -3.4539   25.7739 F   0  0  0  0  0  0
  -29.8250  -14.1964   20.3260 N   0  0  0  0  0  0
  -26.2757  -12.9609   20.3225 N   0  0  0  0  0  0
  -25.9371  -11.6676   20.5738 N   0  0  0  0  0  0
  -22.0358  -12.8064   22.0500 N   0  0  0  0  0  0
  -25.3481  -15.1921   20.3977 N   0  0  0  0  0  0
  -31.5324  -15.5341   20.1054 O   0  0  0  0  0  0
  -21.6635   -6.8881   21.4248 O   0  0  0  0  0  0
  -22.3335  -14.5385   20.6778 O   0  0  0  0  0  0
  -24.6790  -31.8037   23.1539 C   0  0  0  0  0  0
  -25.9392  -32.4486   23.8067 C   0  0  1  0  0  0
  -27.2315  -26.7374   20.2185 C   0  0  0  0  0  0
  -25.5987  -33.8309   24.1962 N   0  0  0  0  0  0
  -23.5029  -30.4053   21.5070 C   0  0  2  0  0  0
  -24.9594  -28.7472   20.1213 C   0  0  0  0  0  0
  -22.7738  -29.4334   22.4727 C   0  0  0  0  0  0
  -18.0331  -28.1420   22.8457 C   0  0  0  0  0  0
  -24.1494  -36.7160   23.2652 C   0  0  0  0  0  0
  -26.0802  -30.5467   21.4137 C   0  0  0  0  0  0
  -26.1446  -29.1130   20.7696 C   0  0  0  0  0  0
  -27.2628  -28.1346   20.7875 C   0  0  0  0  0  0
  -26.0150  -26.5712   19.5083 C   0  0  0  0  0  0
  -24.9307  -27.5007   19.4692 C   0  0  0  0  0  0
  -23.7547  -29.6999   20.1424 C   0  0  0  0  0  0
  -25.4145  -36.2909   24.0284 C   0  0  1  0  0  0
  -20.5964  -28.3774   23.1155 C   0  0  2  0  0  0
  -20.6800  -26.9438   22.5408 C   0  0  0  0  0  0
  -19.5779  -26.6372   21.5216 C   0  0  0  0  0  0
  -18.1959  -26.7949   22.1618 C   0  0  0  0  0  0
  -19.1597  -28.8920   23.2788 C   0  0  0  0  0  0
  -18.9505  -30.1504   23.8833 C   0  0  0  0  0  0
  -17.6497  -30.6605   24.0550 C   0  0  0  0  0  0
  -25.9121  -34.9297   23.4960 C   0  0  0  0  0  0
  -16.5385  -29.9089   23.6350 C   0  0  0  0  0  0
  -16.7312  -28.6510   23.0367 C   0  0  0  0  0  0
  -26.4585  -31.6507   25.0675 C   0  0  0  0  0  0
  -25.3659  -31.3819   26.1296 C   0  0  0  0  0  0
  -27.0512  -30.2850   24.6552 C   0  0  0  0  0  0
  -27.6041  -32.4358   25.7490 C   0  0  0  0  0  0
  -27.5566  -37.1738   24.8466 C   0  0  0  0  0  0
  -21.4390  -29.3028   22.3480 N   0  0  0  0  0  0
  -26.4274  -37.3665   23.9407 N   0  0  0  0  0  0
  -24.7771  -30.9513   22.0775 N   0  0  0  0  0  0
  -23.4200  -28.7933   23.3058 O   0  0  0  0  0  0
  -28.2668  -25.5930   20.2514 O   0  0  0  0  0  0
  -26.5760  -34.8871   22.4577 O   0  0  0  0  0  0
  -23.5820  -32.1096   23.6518 O   0  0  0  0  0  0
  -28.6136  -21.7348   19.2096 C   0  0  0  0  0  0
  -29.0498  -21.8336   21.3569 C   0  0  0  0  0  0
  -29.0606  -20.8088   20.2844 C   0  0  0  0  0  0
  -28.2536  -24.0271   20.2903 C   0  0  0  0  0  0
  -28.0303  -17.0519   20.0876 C   0  0  0  0  0  0
  -29.7956  -19.0997   20.1936 C   0  0  0  0  0  0
  -29.4744  -17.2428   20.5304 C   0  0  2  0  0  0
  -28.2809  -23.1565   19.2042 N   0  0  0  0  0  0
  -28.7182  -23.2537   21.3527 N   0  0  0  0  0  0
  -31.4400  -13.2678   19.2034 H   0  0  0  0  0  0
  -30.5716  -12.1568   20.2050 H   0  0  0  0  0  0
  -29.9935  -11.8247   17.7760 H   0  0  0  0  0  0
  -29.5316  -13.5036   17.6402 H   0  0  0  0  0  0
  -28.1265  -11.3028   19.1705 H   0  0  0  0  0  0
  -27.4543  -12.2848   17.8907 H   0  0  0  0  0  0
  -27.4749  -14.2397   19.2706 H   0  0  0  0  0  0
  -28.8565  -12.6813   21.5061 H   0  0  0  0  0  0
  -28.2050  -14.2848   21.6738 H   0  0  0  0  0  0
  -25.2793   -9.5642   22.4777 H   0  0  0  0  0  0
  -24.0007   -7.4609   22.7477 H   0  0  0  0  0  0
  -21.0878   -8.8771   19.8941 H   0  0  0  0  0  0
  -22.3759  -10.9653   19.6165 H   0  0  0  0  0  0
  -21.2003   -7.6147   23.9713 H   0  0  0  0  0  0
  -21.1482   -6.0525   25.9079 H   0  0  0  0  0  0
  -22.0597   -2.7608   23.2840 H   0  0  0  0  0  0
  -22.4015  -11.9745   22.4895 H   0  0  0  0  0  0
  -21.0975  -13.1063   22.2732 H   0  0  0  0  0  0
  -24.5570  -15.8178   20.5036 H   0  0  0  0  0  0
  -26.1734  -15.6557   20.0424 H   0  0  0  0  0  0
  -26.7468  -32.4968   23.0774 H   0  0  0  0  0  0
  -25.0045  -33.9348   25.0054 H   0  0  0  0  0  0
  -22.8267  -31.2417   21.3184 H   0  0  0  0  0  0
  -23.3775  -35.9471   23.3273 H   0  0  0  0  0  0
  -24.3559  -36.8863   22.2074 H   0  0  0  0  0  0
  -23.7235  -37.6323   23.6753 H   0  0  0  0  0  0
  -26.2795  -31.2704   20.6222 H   0  0  0  0  0  0
  -26.9334  -30.6147   22.0764 H   0  0  0  0  0  0
  -28.1611  -28.4265   21.3133 H   0  0  0  0  0  0
  -25.8684  -25.6319   18.9935 H   0  0  0  0  0  0
  -24.0373  -27.2151   18.9309 H   0  0  0  0  0  0
  -23.9273  -30.4589   19.3785 H   0  0  0  0  0  0
  -22.8598  -29.1643   19.8209 H   0  0  0  0  0  0
  -25.1354  -36.1676   25.0773 H   0  0  0  0  0  0
  -21.0044  -28.3398   24.1282 H   0  0  0  0  0  0
  -20.5667  -26.2394   23.3663 H   0  0  0  0  0  0
  -21.6663  -26.7386   22.1225 H   0  0  0  0  0  0
  -19.6936  -25.6265   21.1291 H   0  0  0  0  0  0
  -19.6728  -27.3144   20.6717 H   0  0  0  0  0  0
  -17.4230  -26.6688   21.4021 H   0  0  0  0  0  0
  -18.0348  -26.0108   22.9029 H   0  0  0  0  0  0
  -19.7981  -30.7334   24.2177 H   0  0  0  0  0  0
  -17.5050  -31.6280   24.5163 H   0  0  0  0  0  0
  -15.5384  -30.2973   23.7715 H   0  0  0  0  0  0
  -15.8709  -28.0808   22.7125 H   0  0  0  0  0  0
  -24.5860  -30.7154   25.7595 H   0  0  0  0  0  0
  -24.8827  -32.3040   26.4534 H   0  0  0  0  0  0
  -25.7838  -30.9099   27.0196 H   0  0  0  0  0  0
  -26.3221  -29.6470   24.1548 H   0  0  0  0  0  0
  -27.3959  -29.7292   25.5281 H   0  0  0  0  0  0
  -27.9195  -30.3987   24.0059 H   0  0  0  0  0  0
  -27.2589  -33.3727   26.1874 H   0  0  0  0  0  0
  -28.3949  -32.6808   25.0387 H   0  0  0  0  0  0
  -28.0601  -31.8612   26.5561 H   0  0  0  0  0  0
  -28.2555  -38.0059   24.7514 H   0  0  0  0  0  0
  -28.1089  -36.2580   24.6297 H   0  0  0  0  0  0
  -27.2277  -37.1380   25.8867 H   0  0  0  0  0  0
  -20.9687  -29.8678   21.6545 H   0  0  0  0  0  0
  -26.0105  -38.2715   24.1421 H   0  0  0  0  0  0
  -28.5847  -21.3159   18.2147 H   0  0  0  0  0  0
  -29.4151  -21.5095   22.3201 H   0  0  0  0  0  0
  -27.9596  -16.8869   19.0120 H   0  0  0  0  0  0
  -27.4144  -17.9143   20.3439 H   0  0  0  0  0  0
  -27.6175  -16.1980   20.6076 H   0  0  0  0  0  0
  -30.7453  -19.2610   20.7051 H   0  0  0  0  0  0
  -30.0896  -19.0779   19.1438 H   0  0  0  0  0  0
  -29.4201  -17.2542   21.6193 H   0  0  0  0  0  0
  1 25  1  0  0  0
  1 30  2  0  0  0
  1 77  1  0  0  0
  2  3  1  0  0  0
  2 25  1  0  0  0
  2 80  1  0  0  0
  2 81  1  0  0  0
  3  4  1  0  0  0
  3 82  1  0  0  0
  3 83  1  0  0  0
  4  5  1  0  0  0
  4 84  1  0  0  0
  4 85  1  0  0  0
  5  6  1  0  0  0
  5 26  1  0  0  0
  5 86  1  0  0  0
  6 25  1  0  0  0
  6 87  1  0  0  0
  6 88  1  0  0  0
  7  8  2  0  0  0
  7 26  1  0  0  0
  7 29  1  0  0  0
  8  9  1  0  0  0
  8 22  1  0  0  0
  9 10  1  0  0  0
  9 27  2  0  0  0
 10 11  2  0  0  0
 10 15  1  0  0  0
 11 12  1  0  0  0
 11 89  1  0  0  0
 12 13  2  0  0  0
 12 90  1  0  0  0
 13 14  1  0  0  0
 13 31  1  0  0  0
 14 15  2  0  0  0
 14 91  1  0  0  0
 15 92  1  0  0  0
 16 17  2  0  0  0
 16 21  1  0  0  0
 16 31  1  0  0  0
 17 18  1  0  0  0
 17 93  1  0  0  0
 18 19  2  0  0  0
 18 94  1  0  0  0
 19 20  1  0  0  0
 19 24  1  0  0  0
 20 21  2  0  0  0
 20 95  1  0  0  0
 21 23  1  0  0  0
 22 28  1  0  0  0
 22 32  2  0  0  0
 26 27  1  0  0  0
 28 96  1  0  0  0
 28 97  1  0  0  0
 29 98  1  0  0  0
 29 99  1  0  0  0
 33 34  1  0  0  0
 33 66  1  0  0  0
 33 70  2  0  0  0
 34 36  1  0  0  0
 34 59  1  0  0  0
 34100  1  0  0  0
 35 44  2  0  0  0
 35 45  1  0  0  0
 35 68  1  0  0  0
 36 56  1  0  0  0
 36101  1  0  0  0
 37 39  1  0  0  0
 37 47  1  0  0  0
 37 66  1  0  0  0
 37102  1  0  0  0
 38 43  2  0  0  0
 38 46  1  0  0  0
 38 47  1  0  0  0
 39 64  1  0  0  0
 39 67  2  0  0  0
 40 52  1  0  0  0
 40 53  2  0  0  0
 40 58  1  0  0  0
 41103  1  0  0  0
 41104  1  0  0  0
 41105  1  0  0  0
 41 48  1  0  0  0
 42 43  1  0  0  0
 42 66  1  0  0  0
 42106  1  0  0  0
 42107  1  0  0  0
 43 44  1  0  0  0
 44108  1  0  0  0
 45 46  2  0  0  0
 45109  1  0  0  0
 46110  1  0  0  0
 47111  1  0  0  0
 47112  1  0  0  0
 48 56  1  0  0  0
 48 65  1  0  0  0
 48113  1  0  0  0
 49 50  1  0  0  0
 49 53  1  0  0  0
 49 64  1  0  0  0
 49114  1  0  0  0
 50 51  1  0  0  0
 50115  1  0  0  0
 50116  1  0  0  0
 51 52  1  0  0  0
 51117  1  0  0  0
 51118  1  0  0  0
 52119  1  0  0  0
 52120  1  0  0  0
 53 54  1  0  0  0
 54 55  2  0  0  0
 54121  1  0  0  0
 55 57  1  0  0  0
 55122  1  0  0  0
 56 69  2  0  0  0
 57 58  2  0  0  0
 57123  1  0  0  0
 58124  1  0  0  0
 59 60  1  0  0  0
 59 61  1  0  0  0
 59 62  1  0  0  0
 60125  1  0  0  0
 60126  1  0  0  0
 60127  1  0  0  0
 61128  1  0  0  0
 61129  1  0  0  0
 61130  1  0  0  0
 62131  1  0  0  0
 62132  1  0  0  0
 62133  1  0  0  0
 63 65  1  0  0  0
 63134  1  0  0  0
 63135  1  0  0  0
 63136  1  0  0  0
 64137  1  0  0  0
 65138  1  0  0  0
 68 74  1  0  0  0
 71 73  2  0  0  0
 71 78  1  0  0  0
 71139  1  0  0  0
 72 73  1  0  0  0
 72 79  2  0  0  0
 72140  1  0  0  0
 73 76  1  0  0  0
 74 78  2  0  0  0
 74 79  1  0  0  0
 75141  1  0  0  0
 75142  1  0  0  0
 75143  1  0  0  0
 75 77  1  0  0  0
 76 77  1  0  0  0
 76144  1  0  0  0
 76145  1  0  0  0
 77146  1  0  0  0
M  ISO  4   1 100  68 101  74 101  77 100
M  END
> <chiral flag>
0

> <version>
0

> <s_m_source_file>
/data/baiqing/PycharmProjects/Reinvent-master-3.2/result/LINK_invent/BTK/process_docking_weight1_custom_sum_contain_oxygen_bond_distance_aromatic_linkinvent_7_9_3/rearranged_h_0075.sdf

> <i_m_source_file_index>
22

> <r_mmod_Potential_Energy-OPLS-2005>
1838.81872558594

> <r_mmod_Stretch_Energy-OPLS-2005>
894.000610351562

> <r_mmod_Bend_Energy-OPLS-2005>
660.742431640625

> <r_mmod_Torsional_Energy-OPLS-2005>
223.142944335938

> <r_mmod_Improper_Torsional_Energy-OPLS-2005>
9.89588069915771

> <r_mmod_Van_der_Waal_Energy-OPLS-2005>
138.056030273438

> <r_mmod_Electrostatic_Energy-OPLS-2005>
-671.736511230469

> <r_mmod_Solvation_Energy-OPLS-2005>
-213.459091186523

> <b_mmod_Minimization_Converged-OPLS-2005>
0

> <r_mmod_RMS_Derivative-OPLS-2005>
0.555682957172394

$$$$
23
                    3D
 Structure written by MMmdl.
167175  0  0  1  0            999 V2000
  -30.6527  -14.5853   20.4366 C   0  0  0  0  0  0
  -30.4356  -12.3348   19.4613 C   0  0  0  0  0  0
  -29.5158  -12.4649   18.2274 C   0  0  0  0  0  0
  -28.0389  -12.3192   18.6423 C   0  0  0  0  0  0
  -27.6650  -13.2104   19.8577 C   0  0  2  0  0  0
  -28.7092  -13.0859   20.9913 C   0  0  0  0  0  0
  -25.2642  -13.8190   20.5649 C   0  0  0  0  0  0
  -24.1882  -13.0428   20.9209 C   0  0  0  0  0  0
  -24.6462  -11.6925   20.8725 C   0  0  0  0  0  0
  -23.9098  -10.4287   21.0371 C   0  0  0  0  0  0
  -24.3644   -9.4216   21.9162 C   0  0  0  0  0  0
  -23.6305   -8.2256   22.0738 C   0  0  0  0  0  0
  -22.4268   -8.0307   21.3554 C   0  0  0  0  0  0
  -21.9908   -9.0281   20.4664 C   0  0  0  0  0  0
  -22.7243  -10.2167   20.3035 C   0  0  0  0  0  0
  -21.6887   -6.0738   22.5290 C   0  0  0  0  0  0
  -21.4056   -6.5620   23.8233 C   0  0  0  0  0  0
  -21.3660   -5.6749   24.9177 C   0  0  0  0  0  0
  -21.6053   -4.3013   24.7217 C   0  0  0  0  0  0
  -21.8820   -3.8137   23.4327 C   0  0  0  0  0  0
  -21.9200   -4.6964   22.3397 C   0  0  0  0  0  0
  -22.7924  -13.5249   21.1870 C   0  0  0  0  0  0
  -22.1659   -4.2141   21.0973 F   0  0  0  0  0  0
  -21.5613   -3.4501   25.7737 F   0  0  0  0  0  0
  -30.0317  -13.3749   20.4224 N   0  0  0  0  0  0
  -26.3072  -12.9344   20.3318 N   0  0  0  0  0  0
  -25.9397  -11.6502   20.5751 N   0  0  0  0  0  0
  -22.0557  -12.8220   22.0429 N   0  0  0  0  0  0
  -25.4294  -15.1892   20.4002 N   0  0  0  0  0  0
  -31.8153  -14.7368   20.0603 O   0  0  0  0  0  0
  -21.6658   -6.8882   21.4237 O   0  0  0  0  0  0
  -22.3584  -14.5507   20.6658 O   0  0  0  0  0  0
  -24.6163  -31.8690   23.2200 C   0  0  0  0  0  0
  -25.9065  -32.4823   23.8449 C   0  0  1  0  0  0
  -27.1845  -27.3850   20.0986 C   0  0  0  0  0  0
  -25.5958  -33.8647   24.2380 N   0  0  0  0  0  0
  -23.4006  -30.5037   21.5546 C   0  0  2  0  0  0
  -24.8442  -28.9855   20.1028 C   0  0  0  0  0  0
  -22.7404  -29.4678   22.4933 C   0  0  0  0  0  0
  -18.0240  -28.1376   22.8415 C   0  0  0  0  0  0
  -24.1494  -36.7322   23.2631 C   0  0  0  0  0  0
  -25.9397  -30.8225   21.3817 C   0  0  0  0  0  0
  -26.0084  -29.4582   20.7196 C   0  0  0  0  0  0
  -27.1865  -28.6638   20.7172 C   0  0  0  0  0  0
  -26.0138  -26.9797   19.4169 C   0  0  0  0  0  0
  -24.8427  -27.7496   19.4448 C   0  0  0  0  0  0
  -23.6123  -29.8616   20.1602 C   0  0  0  0  0  0
  -25.4112  -36.3114   24.0339 C   0  0  1  0  0  0
  -20.5843  -28.3692   23.1257 C   0  0  2  0  0  0
  -20.6752  -26.9421   22.5374 C   0  0  0  0  0  0
  -19.5769  -26.6375   21.5153 C   0  0  0  0  0  0
  -18.1931  -26.7904   22.1570 C   0  0  0  0  0  0
  -19.1482  -28.8836   23.2849 C   0  0  0  0  0  0
  -18.9438  -30.1417   23.8899 C   0  0  0  0  0  0
  -17.6459  -30.6586   24.0541 C   0  0  0  0  0  0
  -25.9024  -34.9491   23.5120 C   0  0  0  0  0  0
  -16.5341  -29.9083   23.6329 C   0  0  0  0  0  0
  -16.7235  -28.6508   23.0317 C   0  0  0  0  0  0
  -26.4499  -31.6586   25.0765 C   0  0  0  0  0  0
  -25.3756  -31.3698   26.1500 C   0  0  0  0  0  0
  -27.0305  -30.3012   24.6139 C   0  0  0  0  0  0
  -27.6094  -32.4276   25.7519 C   0  0  0  0  0  0
  -27.5572  -37.1843   24.8450 C   0  0  0  0  0  0
  -21.4122  -29.3078   22.3689 N   0  0  0  0  0  0
  -26.4279  -37.3813   23.9385 N   0  0  0  0  0  0
  -24.6704  -31.0779   22.1110 N   0  0  0  0  0  0
  -23.4161  -28.8131   23.2907 O   0  0  0  0  0  0
  -28.2837  -26.5372   20.1471 O   0  0  0  0  0  0
  -26.5545  -34.8949   22.4664 O   0  0  0  0  0  0
  -23.5369  -32.1445   23.7616 O   0  0  0  0  0  0
  -30.5312  -22.1864   18.1030 C   0  0  0  0  0  0
  -30.7834  -19.9893   17.1349 C   0  0  0  0  0  0
  -31.1156  -21.3424   17.1327 C   0  0  0  0  0  0
  -29.5854  -21.6572   19.0214 C   0  0  0  0  0  0
  -29.4595  -20.2241   19.0287 C   0  0  0  0  0  0
  -32.0448  -21.8379   16.0408 C   0  0  0  0  0  0
  -30.8595  -18.8637   21.3256 C   0  0  0  0  0  0
  -28.7210  -17.8146   22.0774 C   0  0  0  0  0  0
  -28.6559  -22.6303   19.8149 C   0  0  0  0  0  0
  -28.6844  -19.3406   20.0208 C   0  0  0  0  0  0
  -29.1081  -24.1226   20.0952 C   0  0  0  0  0  0
  -29.9528  -16.9899   19.9664 C   0  0  0  0  0  0
  -27.9780  -25.1416   20.4710 C   0  0  0  0  0  0
  -29.5317  -18.2512   20.8268 C   0  0  0  0  0  0
  -30.0054  -19.4493   18.0702 N   0  0  0  0  0  0
  -29.8281  -15.6498   20.6013 N   0  0  0  0  0  0
  -31.4833  -12.4121   19.1660 H   0  0  0  0  0  0
  -30.3306  -11.3513   19.9223 H   0  0  0  0  0  0
  -29.7677  -11.6945   17.5009 H   0  0  0  0  0  0
  -29.6876  -13.4157   17.7205 H   0  0  0  0  0  0
  -27.8678  -11.2728   18.8934 H   0  0  0  0  0  0
  -27.3901  -12.5342   17.7927 H   0  0  0  0  0  0
  -27.6821  -14.2374   19.4938 H   0  0  0  0  0  0
  -28.7149  -12.0821   21.4147 H   0  0  0  0  0  0
  -28.4722  -13.7622   21.8139 H   0  0  0  0  0  0
  -25.2819   -9.5679   22.4704 H   0  0  0  0  0  0
  -24.0039   -7.4620   22.7407 H   0  0  0  0  0  0
  -21.0855   -8.8807   19.8980 H   0  0  0  0  0  0
  -22.3705  -10.9691   19.6118 H   0  0  0  0  0  0
  -21.2065   -7.6133   23.9737 H   0  0  0  0  0  0
  -21.1477   -6.0484   25.9084 H   0  0  0  0  0  0
  -22.0589   -2.7602   23.2843 H   0  0  0  0  0  0
  -22.4215  -11.9927   22.4829 H   0  0  0  0  0  0
  -21.1184  -13.1288   22.2616 H   0  0  0  0  0  0
  -24.6426  -15.8235   20.4964 H   0  0  0  0  0  0
  -26.2310  -15.6312   19.9705 H   0  0  0  0  0  0
  -26.7102  -32.5528   23.1193 H   0  0  0  0  0  0
  -25.0244  -33.9816   25.0592 H   0  0  0  0  0  0
  -22.6907  -31.3218   21.4260 H   0  0  0  0  0  0
  -23.3752  -35.9644   23.3280 H   0  0  0  0  0  0
  -24.3594  -36.8937   22.2039 H   0  0  0  0  0  0
  -23.7247  -37.6541   23.6641 H   0  0  0  0  0  0
  -26.0544  -31.5938   20.6192 H   0  0  0  0  0  0
  -26.8295  -30.8749   21.9955 H   0  0  0  0  0  0
  -28.0770  -29.0164   21.2192 H   0  0  0  0  0  0
  -25.9827  -26.0727   18.8331 H   0  0  0  0  0  0
  -23.9562  -27.4002   18.9382 H   0  0  0  0  0  0
  -23.7441  -30.6494   19.4166 H   0  0  0  0  0  0
  -22.7338  -29.2948   19.8479 H   0  0  0  0  0  0
  -25.1289  -36.1974   25.0828 H   0  0  0  0  0  0
  -20.9900  -28.3250   24.1402 H   0  0  0  0  0  0
  -20.5596  -26.2314   23.3556 H   0  0  0  0  0  0
  -21.6636  -26.7448   22.1223 H   0  0  0  0  0  0
  -19.6959  -25.6270   21.1223 H   0  0  0  0  0  0
  -19.6723  -27.3138   20.6638 H   0  0  0  0  0  0
  -17.4184  -26.6543   21.3995 H   0  0  0  0  0  0
  -18.0428  -26.0055   22.9002 H   0  0  0  0  0  0
  -19.7923  -30.7185   24.2317 H   0  0  0  0  0  0
  -17.5037  -31.6278   24.5126 H   0  0  0  0  0  0
  -15.5349  -30.3021   23.7676 H   0  0  0  0  0  0
  -15.8608  -28.0866   22.7049 H   0  0  0  0  0  0
  -24.5891  -30.7100   25.7830 H   0  0  0  0  0  0
  -24.9009  -32.2867   26.5029 H   0  0  0  0  0  0
  -25.8119  -30.8790   27.0197 H   0  0  0  0  0  0
  -26.2878  -29.6820   24.1103 H   0  0  0  0  0  0
  -27.3945  -29.7237   25.4647 H   0  0  0  0  0  0
  -27.8784  -30.4328   23.9400 H   0  0  0  0  0  0
  -27.2723  -33.3540   26.2191 H   0  0  0  0  0  0
  -28.3878  -32.6866   25.0322 H   0  0  0  0  0  0
  -28.0766  -31.8297   26.5348 H   0  0  0  0  0  0
  -28.2587  -38.0150   24.7510 H   0  0  0  0  0  0
  -28.1068  -36.2686   24.6241 H   0  0  0  0  0  0
  -27.2287  -37.1460   25.8854 H   0  0  0  0  0  0
  -20.9258  -29.8867   21.6999 H   0  0  0  0  0  0
  -26.0157  -38.2868   24.1415 H   0  0  0  0  0  0
  -30.7853  -23.2320   18.1011 H   0  0  0  0  0  0
  -31.1585  -19.3207   16.3763 H   0  0  0  0  0  0
  -32.5237  -22.7821   16.2861 H   0  0  0  0  0  0
  -31.5034  -21.9448   15.1021 H   0  0  0  0  0  0
  -32.8340  -21.1078   15.8453 H   0  0  0  0  0  0
  -30.7155  -19.6389   22.0757 H   0  0  0  0  0  0
  -31.4325  -19.3001   20.5053 H   0  0  0  0  0  0
  -31.4903  -18.0918   21.7635 H   0  0  0  0  0  0
  -27.8126  -17.2776   21.8082 H   0  0  0  0  0  0
  -29.3017  -17.1443   22.7116 H   0  0  0  0  0  0
  -28.4416  -18.6733   22.6932 H   0  0  0  0  0  0
  -28.3104  -22.1675   20.7376 H   0  0  0  0  0  0
  -27.7663  -22.6995   19.1877 H   0  0  0  0  0  0
  -27.8983  -18.8451   19.4426 H   0  0  0  0  0  0
  -28.1498  -19.9870   20.7172 H   0  0  0  0  0  0
  -29.5729  -24.5501   19.2113 H   0  0  0  0  0  0
  -29.8617  -24.1318   20.8820 H   0  0  0  0  0  0
  -30.9821  -17.1128   19.6197 H   0  0  0  0  0  0
  -29.3623  -16.9668   19.0490 H   0  0  0  0  0  0
  -27.7475  -25.0925   21.5364 H   0  0  0  0  0  0
  -27.0648  -24.7762   20.0075 H   0  0  0  0  0  0
  -28.9044  -15.4369   20.9389 H   0  0  0  0  0  0
  1 25  1  0  0  0
  1 30  2  0  0  0
  1 86  1  0  0  0
  2  3  1  0  0  0
  2 25  1  0  0  0
  2 87  1  0  0  0
  2 88  1  0  0  0
  3  4  1  0  0  0
  3 89  1  0  0  0
  3 90  1  0  0  0
  4  5  1  0  0  0
  4 91  1  0  0  0
  4 92  1  0  0  0
  5  6  1  0  0  0
  5 26  1  0  0  0
  5 93  1  0  0  0
  6 25  1  0  0  0
  6 94  1  0  0  0
  6 95  1  0  0  0
  7  8  2  0  0  0
  7 26  1  0  0  0
  7 29  1  0  0  0
  8  9  1  0  0  0
  8 22  1  0  0  0
  9 10  1  0  0  0
  9 27  2  0  0  0
 10 11  2  0  0  0
 10 15  1  0  0  0
 11 12  1  0  0  0
 11 96  1  0  0  0
 12 13  2  0  0  0
 12 97  1  0  0  0
 13 14  1  0  0  0
 13 31  1  0  0  0
 14 15  2  0  0  0
 14 98  1  0  0  0
 15 99  1  0  0  0
 16 17  2  0  0  0
 16 21  1  0  0  0
 16 31  1  0  0  0
 17 18  1  0  0  0
 17100  1  0  0  0
 18 19  2  0  0  0
 18101  1  0  0  0
 19 20  1  0  0  0
 19 24  1  0  0  0
 20 21  2  0  0  0
 20102  1  0  0  0
 21 23  1  0  0  0
 22 28  1  0  0  0
 22 32  2  0  0  0
 26 27  1  0  0  0
 28103  1  0  0  0
 28104  1  0  0  0
 29105  1  0  0  0
 29106  1  0  0  0
 33 34  1  0  0  0
 33 66  1  0  0  0
 33 70  2  0  0  0
 34 36  1  0  0  0
 34 59  1  0  0  0
 34107  1  0  0  0
 35 44  2  0  0  0
 35 45  1  0  0  0
 35 68  1  0  0  0
 36 56  1  0  0  0
 36108  1  0  0  0
 37 39  1  0  0  0
 37 47  1  0  0  0
 37 66  1  0  0  0
 37109  1  0  0  0
 38 43  2  0  0  0
 38 46  1  0  0  0
 38 47  1  0  0  0
 39 64  1  0  0  0
 39 67  2  0  0  0
 40 52  1  0  0  0
 40 53  2  0  0  0
 40 58  1  0  0  0
 41110  1  0  0  0
 41111  1  0  0  0
 41112  1  0  0  0
 41 48  1  0  0  0
 42 43  1  0  0  0
 42 66  1  0  0  0
 42113  1  0  0  0
 42114  1  0  0  0
 43 44  1  0  0  0
 44115  1  0  0  0
 45 46  2  0  0  0
 45116  1  0  0  0
 46117  1  0  0  0
 47118  1  0  0  0
 47119  1  0  0  0
 48 56  1  0  0  0
 48 65  1  0  0  0
 48120  1  0  0  0
 49 50  1  0  0  0
 49 53  1  0  0  0
 49 64  1  0  0  0
 49121  1  0  0  0
 50 51  1  0  0  0
 50122  1  0  0  0
 50123  1  0  0  0
 51 52  1  0  0  0
 51124  1  0  0  0
 51125  1  0  0  0
 52126  1  0  0  0
 52127  1  0  0  0
 53 54  1  0  0  0
 54 55  2  0  0  0
 54128  1  0  0  0
 55 57  1  0  0  0
 55129  1  0  0  0
 56 69  2  0  0  0
 57 58  2  0  0  0
 57130  1  0  0  0
 58131  1  0  0  0
 59 60  1  0  0  0
 59 61  1  0  0  0
 59 62  1  0  0  0
 60132  1  0  0  0
 60133  1  0  0  0
 60134  1  0  0  0
 61135  1  0  0  0
 61136  1  0  0  0
 61137  1  0  0  0
 62138  1  0  0  0
 62139  1  0  0  0
 62140  1  0  0  0
 63 65  1  0  0  0
 63141  1  0  0  0
 63142  1  0  0  0
 63143  1  0  0  0
 64144  1  0  0  0
 65145  1  0  0  0
 68 83  1  0  0  0
 71 73  2  0  0  0
 71 74  1  0  0  0
 71146  1  0  0  0
 72 73  1  0  0  0
 72 85  2  0  0  0
 72147  1  0  0  0
 73 76  1  0  0  0
 74 75  2  0  0  0
 74 79  1  0  0  0
 75 80  1  0  0  0
 75 85  1  0  0  0
 76148  1  0  0  0
 76149  1  0  0  0
 76150  1  0  0  0
 77151  1  0  0  0
 77152  1  0  0  0
 77153  1  0  0  0
 77 84  1  0  0  0
 78 84  1  0  0  0
 78154  1  0  0  0
 78155  1  0  0  0
 78156  1  0  0  0
 79 81  1  0  0  0
 79157  1  0  0  0
 79158  1  0  0  0
 80 84  1  0  0  0
 80159  1  0  0  0
 80160  1  0  0  0
 81 83  1  0  0  0
 81161  1  0  0  0
 81162  1  0  0  0
 82 84  1  0  0  0
 82 86  1  0  0  0
 82163  1  0  0  0
 82164  1  0  0  0
 83165  1  0  0  0
 83166  1  0  0  0
 86167  1  0  0  0
M  ISO  4   1 100  68 101  83 101  86 100
M  END
> <chiral flag>
0

> <version>
0

> <s_m_source_file>
/data/baiqing/PycharmProjects/Reinvent-master-3.2/result/LINK_invent/BTK/process_docking_weight1_custom_sum_contain_oxygen_bond_distance_aromatic_linkinvent_7_9_3/rearranged_h_0075.sdf

> <i_m_source_file_index>
23

> <r_mmod_Potential_Energy-OPLS-2005>
-63.8173217773438

> <r_mmod_Stretch_Energy-OPLS-2005>
63.1764297485352

> <r_mmod_Bend_Energy-OPLS-2005>
132.807220458984

> <r_mmod_Torsional_Energy-OPLS-2005>
264.533630371094

> <r_mmod_Improper_Torsional_Energy-OPLS-2005>
9.59438800811768

> <r_mmod_Van_der_Waal_Energy-OPLS-2005>
163.883178710938

> <r_mmod_Electrostatic_Energy-OPLS-2005>
-524.551635742188

> <r_mmod_Solvation_Energy-OPLS-2005>
-212.401031494141

> <b_mmod_Minimization_Converged-OPLS-2005>
0

> <r_mmod_RMS_Derivative-OPLS-2005>
9.53560447692871

$$$$
24
                    3D
 Structure written by MMmdl.
167175  0  0  1  0            999 V2000
  -30.7580  -14.4676   20.6782 C   0  0  0  0  0  0
  -30.4096  -12.3377   19.4399 C   0  0  0  0  0  0
  -29.4944  -12.5447   18.2160 C   0  0  0  0  0  0
  -28.0162  -12.3828   18.6149 C   0  0  0  0  0  0
  -27.6610  -13.2087   19.8787 C   0  0  2  0  0  0
  -28.6993  -12.9678   21.0010 C   0  0  0  0  0  0
  -25.2468  -13.8120   20.5532 C   0  0  0  0  0  0
  -24.1784  -13.0390   20.9160 C   0  0  0  0  0  0
  -24.6384  -11.6883   20.8740 C   0  0  0  0  0  0
  -23.9054  -10.4275   21.0407 C   0  0  0  0  0  0
  -24.3611   -9.4200   21.9187 C   0  0  0  0  0  0
  -23.6287   -8.2239   22.0756 C   0  0  0  0  0  0
  -22.4275   -8.0270   21.3545 C   0  0  0  0  0  0
  -21.9903   -9.0240   20.4648 C   0  0  0  0  0  0
  -22.7228  -10.2118   20.3056 C   0  0  0  0  0  0
  -21.6850   -6.0732   22.5286 C   0  0  0  0  0  0
  -21.4009   -6.5633   23.8218 C   0  0  0  0  0  0
  -21.3663   -5.6789   24.9180 C   0  0  0  0  0  0
  -21.6043   -4.3053   24.7231 C   0  0  0  0  0  0
  -21.8813   -3.8145   23.4352 C   0  0  0  0  0  0
  -21.9189   -4.6961   22.3410 C   0  0  0  0  0  0
  -22.7808  -13.5192   21.1842 C   0  0  0  0  0  0
  -22.1656   -4.2145   21.0988 F   0  0  0  0  0  0
  -21.5634   -3.4538   25.7744 F   0  0  0  0  0  0
  -30.0336  -13.3143   20.4890 N   0  0  0  0  0  0
  -26.2987  -12.9338   20.3330 N   0  0  0  0  0  0
  -25.9319  -11.6493   20.5774 N   0  0  0  0  0  0
  -22.0470  -12.8197   22.0427 N   0  0  0  0  0  0
  -25.3931  -15.1820   20.3704 N   0  0  0  0  0  0
  -31.7265  -14.6689   19.9367 O   0  0  0  0  0  0
  -21.6636   -6.8873   21.4248 O   0  0  0  0  0  0
  -22.3484  -14.5501   20.6710 O   0  0  0  0  0  0
  -24.6157  -31.8646   23.2083 C   0  0  0  0  0  0
  -25.9043  -32.4803   23.8389 C   0  0  1  0  0  0
  -27.2408  -27.4137   20.0971 C   0  0  0  0  0  0
  -25.5888  -33.8597   24.2320 N   0  0  0  0  0  0
  -23.4045  -30.4867   21.5479 C   0  0  2  0  0  0
  -24.8511  -28.9475   20.1121 C   0  0  0  0  0  0
  -22.7413  -29.4640   22.4981 C   0  0  0  0  0  0
  -18.0273  -28.1356   22.8474 C   0  0  0  0  0  0
  -24.1486  -36.7319   23.2639 C   0  0  0  0  0  0
  -25.9339  -30.8234   21.3636 C   0  0  0  0  0  0
  -26.0096  -29.4554   20.7109 C   0  0  0  0  0  0
  -27.2021  -28.6952   20.7007 C   0  0  0  0  0  0
  -26.0582  -26.9175   19.5023 C   0  0  0  0  0  0
  -24.8718  -27.6783   19.5060 C   0  0  0  0  0  0
  -23.6125  -29.8152   20.1631 C   0  0  0  0  0  0
  -25.4110  -36.3111   24.0336 C   0  0  1  0  0  0
  -20.5861  -28.3647   23.1299 C   0  0  2  0  0  0
  -20.6756  -26.9376   22.5408 C   0  0  0  0  0  0
  -19.5748  -26.6365   21.5188 C   0  0  0  0  0  0
  -18.1924  -26.7902   22.1594 C   0  0  0  0  0  0
  -19.1522  -28.8820   23.2885 C   0  0  0  0  0  0
  -18.9452  -30.1421   23.8893 C   0  0  0  0  0  0
  -17.6455  -30.6565   24.0550 C   0  0  0  0  0  0
  -25.9035  -34.9466   23.5136 C   0  0  0  0  0  0
  -16.5346  -29.9062   23.6319 C   0  0  0  0  0  0
  -16.7261  -28.6482   23.0339 C   0  0  0  0  0  0
  -26.4464  -31.6587   25.0722 C   0  0  0  0  0  0
  -25.3732  -31.3662   26.1474 C   0  0  0  0  0  0
  -27.0315  -30.3034   24.6111 C   0  0  0  0  0  0
  -27.6054  -32.4305   25.7464 C   0  0  0  0  0  0
  -27.5589  -37.1812   24.8468 C   0  0  0  0  0  0
  -21.4149  -29.3016   22.3715 N   0  0  0  0  0  0
  -26.4301  -37.3790   23.9410 N   0  0  0  0  0  0
  -24.6689  -31.0742   22.0977 N   0  0  0  0  0  0
  -23.4177  -28.8181   23.3027 O   0  0  0  0  0  0
  -28.4352  -26.7142   20.1250 O   0  0  0  0  0  0
  -26.5606  -34.8914   22.4709 O   0  0  0  0  0  0
  -23.5345  -32.1412   23.7461 O   0  0  0  0  0  0
  -29.1618  -19.2284   20.9607 C   0  0  0  0  0  0
  -29.1152  -20.5299   21.5091 C   0  0  0  0  0  0
  -29.7294  -18.1907   21.7411 C   0  0  0  0  0  0
  -30.1949  -19.7501   23.3695 C   0  0  0  0  0  0
  -30.7878  -20.0270   24.7331 C   0  0  0  0  0  0
  -28.0272  -16.4182   21.8535 C   0  0  0  0  0  0
  -30.2223  -14.8895   23.1899 C   0  0  0  0  0  0
  -31.9527  -16.1857   22.0483 C   0  0  0  0  0  0
  -28.2375  -21.6597   20.9388 C   0  0  0  0  0  0
  -28.9538  -22.9220   20.3755 C   0  0  0  0  0  0
  -28.0947  -24.2275   20.4472 C   0  0  0  0  0  0
  -28.5737  -25.4018   19.5453 C   0  0  0  0  0  0
  -29.4719  -16.6962   21.4054 C   0  0  2  0  0  0
  -30.5372  -15.5587   21.8165 C   0  0  0  0  0  0
  -29.6783  -20.7790   22.7060 N   0  0  0  0  0  0
  -30.1897  -18.4842   22.9726 N   0  0  0  0  0  0
  -31.4582  -12.4043   19.1455 H   0  0  0  0  0  0
  -30.2923  -11.3221   19.8203 H   0  0  0  0  0  0
  -29.7491  -11.8347   17.4276 H   0  0  0  0  0  0
  -29.6589  -13.5395   17.7979 H   0  0  0  0  0  0
  -27.8342  -11.3228   18.7980 H   0  0  0  0  0  0
  -27.3682  -12.6641   17.7845 H   0  0  0  0  0  0
  -27.7100  -14.2598   19.5929 H   0  0  0  0  0  0
  -28.6843  -11.9180   21.2960 H   0  0  0  0  0  0
  -28.4167  -13.4916   21.8989 H   0  0  0  0  0  0
  -25.2758   -9.5679   22.4754 H   0  0  0  0  0  0
  -23.9999   -7.4626   22.7469 H   0  0  0  0  0  0
  -21.0836   -8.8754   19.8949 H   0  0  0  0  0  0
  -22.3688  -10.9652   19.6159 H   0  0  0  0  0  0
  -21.1995   -7.6141   23.9719 H   0  0  0  0  0  0
  -21.1490   -6.0522   25.9084 H   0  0  0  0  0  0
  -22.0587   -2.7605   23.2857 H   0  0  0  0  0  0
  -22.4102  -11.9875   22.4832 H   0  0  0  0  0  0
  -21.1079  -13.1207   22.2627 H   0  0  0  0  0  0
  -24.6137  -15.8196   20.4854 H   0  0  0  0  0  0
  -26.2329  -15.6382   20.0412 H   0  0  0  0  0  0
  -26.7108  -32.5499   23.1151 H   0  0  0  0  0  0
  -25.0035  -33.9755   25.0459 H   0  0  0  0  0  0
  -22.6933  -31.3030   21.4067 H   0  0  0  0  0  0
  -23.3738  -35.9660   23.3311 H   0  0  0  0  0  0
  -24.3585  -36.8942   22.2054 H   0  0  0  0  0  0
  -23.7251  -37.6531   23.6652 H   0  0  0  0  0  0
  -26.0541  -31.5892   20.5961 H   0  0  0  0  0  0
  -26.8177  -30.8748   21.9874 H   0  0  0  0  0  0
  -28.0978  -29.0853   21.1647 H   0  0  0  0  0  0
  -26.0310  -25.9422   19.0390 H   0  0  0  0  0  0
  -23.9800  -27.2773   19.0434 H   0  0  0  0  0  0
  -23.7139  -30.5874   19.3991 H   0  0  0  0  0  0
  -22.7371  -29.2315   19.8738 H   0  0  0  0  0  0
  -25.1285  -36.1986   25.0827 H   0  0  0  0  0  0
  -20.9947  -28.3206   24.1424 H   0  0  0  0  0  0
  -20.5632  -26.2247   23.3597 H   0  0  0  0  0  0
  -21.6632  -26.7404   22.1220 H   0  0  0  0  0  0
  -19.6913  -25.6279   21.1217 H   0  0  0  0  0  0
  -19.6696  -27.3167   20.6711 H   0  0  0  0  0  0
  -17.4194  -26.6637   21.3997 H   0  0  0  0  0  0
  -18.0332  -26.0030   22.8979 H   0  0  0  0  0  0
  -19.7930  -30.7231   24.2259 H   0  0  0  0  0  0
  -17.5013  -31.6246   24.5151 H   0  0  0  0  0  0
  -15.5344  -30.2962   23.7649 H   0  0  0  0  0  0
  -15.8657  -28.0809   22.7043 H   0  0  0  0  0  0
  -24.5918  -30.7000   25.7807 H   0  0  0  0  0  0
  -24.8882  -32.2780   26.4957 H   0  0  0  0  0  0
  -25.8081  -30.8811   27.0221 H   0  0  0  0  0  0
  -26.2864  -29.6766   24.1197 H   0  0  0  0  0  0
  -27.4132  -29.7306   25.4575 H   0  0  0  0  0  0
  -27.8673  -30.4370   23.9240 H   0  0  0  0  0  0
  -27.2713  -33.3612   26.2062 H   0  0  0  0  0  0
  -28.3833  -32.6858   25.0256 H   0  0  0  0  0  0
  -28.0757  -31.8416   26.5357 H   0  0  0  0  0  0
  -28.2608  -38.0106   24.7521 H   0  0  0  0  0  0
  -28.1086  -36.2640   24.6288 H   0  0  0  0  0  0
  -27.2312  -37.1479   25.8871 H   0  0  0  0  0  0
  -20.9304  -29.8762   21.6964 H   0  0  0  0  0  0
  -26.0198  -38.2879   24.1374 H   0  0  0  0  0  0
  -28.6519  -19.0058   20.0322 H   0  0  0  0  0  0
  -30.9196  -21.0954   24.9083 H   0  0  0  0  0  0
  -31.7632  -19.5489   24.8278 H   0  0  0  0  0  0
  -30.1356  -19.6292   25.5111 H   0  0  0  0  0  0
  -27.3358  -17.1196   21.3856 H   0  0  0  0  0  0
  -27.9171  -16.5397   22.9312 H   0  0  0  0  0  0
  -27.6895  -15.4274   21.5938 H   0  0  0  0  0  0
  -30.5070  -15.5365   24.0194 H   0  0  0  0  0  0
  -30.7706  -13.9549   23.3180 H   0  0  0  0  0  0
  -29.1744  -14.6763   23.3728 H   0  0  0  0  0  0
  -32.0215  -16.7835   22.9547 H   0  0  0  0  0  0
  -32.2547  -16.8266   21.2188 H   0  0  0  0  0  0
  -32.7192  -15.4165   22.1643 H   0  0  0  0  0  0
  -27.5773  -21.9709   21.7496 H   0  0  0  0  0  0
  -27.5732  -21.2492   20.1781 H   0  0  0  0  0  0
  -29.2692  -22.7186   19.3519 H   0  0  0  0  0  0
  -29.8675  -23.0959   20.9441 H   0  0  0  0  0  0
  -28.0786  -24.5629   21.4844 H   0  0  0  0  0  0
  -27.0590  -24.0005   20.1955 H   0  0  0  0  0  0
  -28.1209  -25.3503   18.5552 H   0  0  0  0  0  0
  -29.6424  -25.2823   19.3670 H   0  0  0  0  0  0
  -29.4519  -16.6838   20.3143 H   0  0  0  0  0  0
  1 25  1  0  0  0
  1 30  2  0  0  0
  1 84  1  0  0  0
  2  3  1  0  0  0
  2 25  1  0  0  0
  2 87  1  0  0  0
  2 88  1  0  0  0
  3  4  1  0  0  0
  3 89  1  0  0  0
  3 90  1  0  0  0
  4  5  1  0  0  0
  4 91  1  0  0  0
  4 92  1  0  0  0
  5  6  1  0  0  0
  5 26  1  0  0  0
  5 93  1  0  0  0
  6 25  1  0  0  0
  6 94  1  0  0  0
  6 95  1  0  0  0
  7  8  2  0  0  0
  7 26  1  0  0  0
  7 29  1  0  0  0
  8  9  1  0  0  0
  8 22  1  0  0  0
  9 10  1  0  0  0
  9 27  2  0  0  0
 10 11  2  0  0  0
 10 15  1  0  0  0
 11 12  1  0  0  0
 11 96  1  0  0  0
 12 13  2  0  0  0
 12 97  1  0  0  0
 13 14  1  0  0  0
 13 31  1  0  0  0
 14 15  2  0  0  0
 14 98  1  0  0  0
 15 99  1  0  0  0
 16 17  2  0  0  0
 16 21  1  0  0  0
 16 31  1  0  0  0
 17 18  1  0  0  0
 17100  1  0  0  0
 18 19  2  0  0  0
 18101  1  0  0  0
 19 20  1  0  0  0
 19 24  1  0  0  0
 20 21  2  0  0  0
 20102  1  0  0  0
 21 23  1  0  0  0
 22 28  1  0  0  0
 22 32  2  0  0  0
 26 27  1  0  0  0
 28103  1  0  0  0
 28104  1  0  0  0
 29105  1  0  0  0
 29106  1  0  0  0
 33 34  1  0  0  0
 33 66  1  0  0  0
 33 70  2  0  0  0
 34 36  1  0  0  0
 34 59  1  0  0  0
 34107  1  0  0  0
 35 44  2  0  0  0
 35 45  1  0  0  0
 35 68  1  0  0  0
 36 56  1  0  0  0
 36108  1  0  0  0
 37 39  1  0  0  0
 37 47  1  0  0  0
 37 66  1  0  0  0
 37109  1  0  0  0
 38 43  2  0  0  0
 38 46  1  0  0  0
 38 47  1  0  0  0
 39 64  1  0  0  0
 39 67  2  0  0  0
 40 52  1  0  0  0
 40 53  2  0  0  0
 40 58  1  0  0  0
 41110  1  0  0  0
 41111  1  0  0  0
 41112  1  0  0  0
 41 48  1  0  0  0
 42 43  1  0  0  0
 42 66  1  0  0  0
 42113  1  0  0  0
 42114  1  0  0  0
 43 44  1  0  0  0
 44115  1  0  0  0
 45 46  2  0  0  0
 45116  1  0  0  0
 46117  1  0  0  0
 47118  1  0  0  0
 47119  1  0  0  0
 48 56  1  0  0  0
 48 65  1  0  0  0
 48120  1  0  0  0
 49 50  1  0  0  0
 49 53  1  0  0  0
 49 64  1  0  0  0
 49121  1  0  0  0
 50 51  1  0  0  0
 50122  1  0  0  0
 50123  1  0  0  0
 51 52  1  0  0  0
 51124  1  0  0  0
 51125  1  0  0  0
 52126  1  0  0  0
 52127  1  0  0  0
 53 54  1  0  0  0
 54 55  2  0  0  0
 54128  1  0  0  0
 55 57  1  0  0  0
 55129  1  0  0  0
 56 69  2  0  0  0
 57 58  2  0  0  0
 57130  1  0  0  0
 58131  1  0  0  0
 59 60  1  0  0  0
 59 61  1  0  0  0
 59 62  1  0  0  0
 60132  1  0  0  0
 60133  1  0  0  0
 60134  1  0  0  0
 61135  1  0  0  0
 61136  1  0  0  0
 61137  1  0  0  0
 62138  1  0  0  0
 62139  1  0  0  0
 62140  1  0  0  0
 63 65  1  0  0  0
 63141  1  0  0  0
 63142  1  0  0  0
 63143  1  0  0  0
 64144  1  0  0  0
 65145  1  0  0  0
 68 82  1  0  0  0
 71 72  2  0  0  0
 71 73  1  0  0  0
 71146  1  0  0  0
 72 79  1  0  0  0
 72 85  1  0  0  0
 73 83  1  0  0  0
 73 86  2  0  0  0
 74 75  1  0  0  0
 74 85  2  0  0  0
 74 86  1  0  0  0
 75147  1  0  0  0
 75148  1  0  0  0
 75149  1  0  0  0
 76150  1  0  0  0
 76151  1  0  0  0
 76152  1  0  0  0
 76 83  1  0  0  0
 77153  1  0  0  0
 77154  1  0  0  0
 77155  1  0  0  0
 77 84  1  0  0  0
 78 84  1  0  0  0
 78156  1  0  0  0
 78157  1  0  0  0
 78158  1  0  0  0
 79 80  1  0  0  0
 79159  1  0  0  0
 79160  1  0  0  0
 80 81  1  0  0  0
 80161  1  0  0  0
 80162  1  0  0  0
 81 82  1  0  0  0
 81163  1  0  0  0
 81164  1  0  0  0
 82165  1  0  0  0
 82166  1  0  0  0
 83 84  1  0  0  0
 83167  1  0  0  0
M  ISO  4   1 100  68 101  82 101  84 100
M  END
> <chiral flag>
0

> <version>
0

> <s_m_source_file>
/data/baiqing/PycharmProjects/Reinvent-master-3.2/result/LINK_invent/BTK/process_docking_weight1_custom_sum_contain_oxygen_bond_distance_aromatic_linkinvent_7_9_3/rearranged_h_0075.sdf

> <i_m_source_file_index>
24

> <r_mmod_Potential_Energy-OPLS-2005>
-350.885406494141

> <r_mmod_Stretch_Energy-OPLS-2005>
59.7214660644531

> <r_mmod_Bend_Energy-OPLS-2005>
156.165420532227

> <r_mmod_Torsional_Energy-OPLS-2005>
185.624496459961

> <r_mmod_Improper_Torsional_Energy-OPLS-2005>
6.41380977630615

> <r_mmod_Van_der_Waal_Energy-OPLS-2005>
177.765533447266

> <r_mmod_Electrostatic_Energy-OPLS-2005>
-750.177124023438

> <r_mmod_Solvation_Energy-OPLS-2005>
-201.657104492188

> <b_mmod_Minimization_Converged-OPLS-2005>
0

> <r_mmod_RMS_Derivative-OPLS-2005>
1.81094825267792

$$$$
25
                    3D
 Structure written by MMmdl.
164172  0  0  1  0            999 V2000
  -30.7796  -14.3549   20.7211 C   0  0  0  0  0  0
  -30.4258  -12.3047   19.3857 C   0  0  0  0  0  0
  -29.4839  -12.5351   18.1895 C   0  0  0  0  0  0
  -28.0101  -12.3846   18.6076 C   0  0  0  0  0  0
  -27.6707  -13.1995   19.8808 C   0  0  2  0  0  0
  -28.7063  -12.9358   20.9939 C   0  0  0  0  0  0
  -25.2642  -13.8146   20.5679 C   0  0  0  0  0  0
  -24.1880  -13.0441   20.9167 C   0  0  0  0  0  0
  -24.6426  -11.6903   20.8734 C   0  0  0  0  0  0
  -23.9084  -10.4296   21.0410 C   0  0  0  0  0  0
  -24.3638   -9.4208   21.9186 C   0  0  0  0  0  0
  -23.6307   -8.2246   22.0754 C   0  0  0  0  0  0
  -22.4286   -8.0292   21.3544 C   0  0  0  0  0  0
  -21.9927   -9.0271   20.4650 C   0  0  0  0  0  0
  -22.7256  -10.2150   20.3059 C   0  0  0  0  0  0
  -21.6856   -6.0749   22.5274 C   0  0  0  0  0  0
  -21.4013   -6.5654   23.8208 C   0  0  0  0  0  0
  -21.3647   -5.6802   24.9170 C   0  0  0  0  0  0
  -21.6045   -4.3064   24.7221 C   0  0  0  0  0  0
  -21.8821   -3.8160   23.4339 C   0  0  0  0  0  0
  -21.9195   -4.6978   22.3398 C   0  0  0  0  0  0
  -22.7902  -13.5241   21.1822 C   0  0  0  0  0  0
  -22.1661   -4.2169   21.0971 F   0  0  0  0  0  0
  -21.5632   -3.4539   25.7730 F   0  0  0  0  0  0
  -30.0555  -13.2300   20.4686 N   0  0  0  0  0  0
  -26.3079  -12.9307   20.3378 N   0  0  0  0  0  0
  -25.9354  -11.6472   20.5761 N   0  0  0  0  0  0
  -22.0546  -12.8236   22.0381 N   0  0  0  0  0  0
  -25.4408  -15.1853   20.4084 N   0  0  0  0  0  0
  -31.7562  -14.6895   20.0393 O   0  0  0  0  0  0
  -21.6635   -6.8895   21.4237 O   0  0  0  0  0  0
  -22.3593  -14.5552   20.6680 O   0  0  0  0  0  0
  -24.6133  -31.8737   23.2151 C   0  0  0  0  0  0
  -25.9013  -32.4870   23.8476 C   0  0  1  0  0  0
  -27.2318  -27.4670   20.0845 C   0  0  0  0  0  0
  -25.5856  -33.8663   24.2381 N   0  0  0  0  0  0
  -23.3993  -30.4967   21.5579 C   0  0  2  0  0  0
  -24.8447  -28.9717   20.1164 C   0  0  0  0  0  0
  -22.7434  -29.4639   22.5026 C   0  0  0  0  0  0
  -18.0275  -28.1328   22.8498 C   0  0  0  0  0  0
  -24.1469  -36.7297   23.2649 C   0  0  0  0  0  0
  -25.9306  -30.8455   21.3681 C   0  0  0  0  0  0
  -26.0022  -29.4863   20.7091 C   0  0  0  0  0  0
  -27.1992  -28.7395   20.6905 C   0  0  0  0  0  0
  -26.0584  -26.9688   19.4686 C   0  0  0  0  0  0
  -24.8668  -27.7165   19.4871 C   0  0  0  0  0  0
  -23.6029  -29.8313   20.1720 C   0  0  0  0  0  0
  -25.4097  -36.3108   24.0347 C   0  0  1  0  0  0
  -20.5878  -28.3596   23.1328 C   0  0  2  0  0  0
  -20.6753  -26.9323   22.5421 C   0  0  0  0  0  0
  -19.5704  -26.6334   21.5226 C   0  0  0  0  0  0
  -18.1886  -26.7897   22.1623 C   0  0  0  0  0  0
  -19.1531  -28.8788   23.2905 C   0  0  0  0  0  0
  -18.9444  -30.1403   23.8896 C   0  0  0  0  0  0
  -17.6432  -30.6539   24.0536 C   0  0  0  0  0  0
  -25.9000  -34.9488   23.5136 C   0  0  0  0  0  0
  -16.5319  -29.9021   23.6318 C   0  0  0  0  0  0
  -16.7263  -28.6441   23.0350 C   0  0  0  0  0  0
  -26.4447  -31.6669   25.0819 C   0  0  0  0  0  0
  -25.3684  -31.3737   26.1553 C   0  0  0  0  0  0
  -27.0320  -30.3122   24.6186 C   0  0  0  0  0  0
  -27.6031  -32.4418   25.7544 C   0  0  0  0  0  0
  -27.5578  -37.1789   24.8469 C   0  0  0  0  0  0
  -21.4172  -29.3000   22.3793 N   0  0  0  0  0  0
  -26.4284  -37.3787   23.9416 N   0  0  0  0  0  0
  -24.6655  -31.0847   22.1044 N   0  0  0  0  0  0
  -23.4249  -28.8189   23.3046 O   0  0  0  0  0  0
  -28.4206  -26.7750   20.0955 O   0  0  0  0  0  0
  -26.5539  -34.8927   22.4680 O   0  0  0  0  0  0
  -23.5316  -32.1494   23.7534 O   0  0  0  0  0  0
  -28.2562  -22.4741   20.7536 C   0  0  0  0  0  0
  -28.9855  -21.4815   23.1551 C   0  0  0  0  0  0
  -28.5339  -23.3417   21.8448 C   0  0  0  0  0  0
  -28.7207  -20.6290   22.0587 C   0  0  0  0  0  0
  -29.6809  -25.5158   22.3991 C   0  0  0  0  0  0
  -27.1799  -25.3483   22.5242 C   0  0  0  0  0  0
  -30.5492  -14.6961   23.1151 C   0  0  0  0  0  0
  -28.6913  -16.9626   21.4382 C   0  0  0  0  0  0
  -30.1783  -16.5867   21.5767 C   0  0  0  0  0  0
  -28.4522  -18.4410   21.1026 C   0  0  0  0  0  0
  -28.3886  -25.3526   20.2559 C   0  0  0  0  0  0
  -28.4322  -24.8817   21.7474 C   0  0  0  0  0  0
  -28.8756  -22.8295   23.0592 N   0  0  0  0  0  0
  -28.3445  -21.1284   20.8555 N   0  0  0  0  0  0
  -30.3272  -15.1317   21.7327 N   0  0  0  0  0  0
  -28.8464  -19.2616   22.1998 O   0  0  0  0  0  0
  -31.4632  -12.4303   19.0705 H   0  0  0  0  0  0
  -30.3489  -11.2773   19.7408 H   0  0  0  0  0  0
  -29.7154  -11.8315   17.3888 H   0  0  0  0  0  0
  -29.6482  -13.5335   17.7802 H   0  0  0  0  0  0
  -27.8142  -11.3259   18.7781 H   0  0  0  0  0  0
  -27.3583  -12.6868   17.7874 H   0  0  0  0  0  0
  -27.7320  -14.2543   19.6150 H   0  0  0  0  0  0
  -28.6698  -11.8929   21.3129 H   0  0  0  0  0  0
  -28.4356  -13.5167   21.8753 H   0  0  0  0  0  0
  -25.2792   -9.5678   22.4756 H   0  0  0  0  0  0
  -24.0014   -7.4633   22.7470 H   0  0  0  0  0  0
  -21.0857   -8.8802   19.8954 H   0  0  0  0  0  0
  -22.3722  -10.9700   19.6176 H   0  0  0  0  0  0
  -21.1996   -7.6160   23.9721 H   0  0  0  0  0  0
  -21.1465   -6.0523   25.9074 H   0  0  0  0  0  0
  -22.0612   -2.7622   23.2824 H   0  0  0  0  0  0
  -22.4159  -11.9892   22.4760 H   0  0  0  0  0  0
  -21.1173  -13.1272   22.2600 H   0  0  0  0  0  0
  -24.6834  -15.8491   20.5254 H   0  0  0  0  0  0
  -26.3028  -15.6165   20.1005 H   0  0  0  0  0  0
  -26.7121  -32.5635   23.1286 H   0  0  0  0  0  0
  -25.0136  -33.9854   25.0617 H   0  0  0  0  0  0
  -22.6826  -31.3114   21.4243 H   0  0  0  0  0  0
  -23.3720  -35.9628   23.3317 H   0  0  0  0  0  0
  -24.3548  -36.8888   22.2051 H   0  0  0  0  0  0
  -23.7220  -37.6504   23.6664 H   0  0  0  0  0  0
  -26.0495  -31.6164   20.6068 H   0  0  0  0  0  0
  -26.8202  -30.8942   21.9854 H   0  0  0  0  0  0
  -28.0948  -29.1328   21.1529 H   0  0  0  0  0  0
  -26.0411  -26.0272   18.9440 H   0  0  0  0  0  0
  -23.9829  -27.3336   18.9949 H   0  0  0  0  0  0
  -23.7006  -30.6080   19.4144 H   0  0  0  0  0  0
  -22.7335  -29.2390   19.8831 H   0  0  0  0  0  0
  -25.1274  -36.1990   25.0840 H   0  0  0  0  0  0
  -20.9973  -28.3135   24.1440 H   0  0  0  0  0  0
  -20.5657  -26.2192   23.3621 H   0  0  0  0  0  0
  -21.6622  -26.7366   22.1188 H   0  0  0  0  0  0
  -19.6842  -25.6259   21.1213 H   0  0  0  0  0  0
  -19.6634  -27.3194   20.6795 H   0  0  0  0  0  0
  -17.4184  -26.6700   21.3980 H   0  0  0  0  0  0
  -18.0179  -26.0047   22.9008 H   0  0  0  0  0  0
  -19.7918  -30.7206   24.2281 H   0  0  0  0  0  0
  -17.4969  -31.6224   24.5100 H   0  0  0  0  0  0
  -15.5301  -30.2859   23.7674 H   0  0  0  0  0  0
  -15.8688  -28.0722   22.7060 H   0  0  0  0  0  0
  -24.5819  -30.7167   25.7805 H   0  0  0  0  0  0
  -24.8932  -32.2892   26.5111 H   0  0  0  0  0  0
  -25.7997  -30.8792   27.0277 H   0  0  0  0  0  0
  -26.2901  -29.6803   24.1275 H   0  0  0  0  0  0
  -27.4135  -29.7434   25.4684 H   0  0  0  0  0  0
  -27.8708  -30.4480   23.9341 H   0  0  0  0  0  0
  -27.2676  -33.3720   26.2175 H   0  0  0  0  0  0
  -28.3788  -32.6978   25.0297 H   0  0  0  0  0  0
  -28.0781  -31.8539   26.5420 H   0  0  0  0  0  0
  -28.2588  -38.0106   24.7533 H   0  0  0  0  0  0
  -28.1082  -36.2620   24.6275 H   0  0  0  0  0  0
  -27.2301  -37.1403   25.8880 H   0  0  0  0  0  0
  -20.9319  -29.8829   21.7115 H   0  0  0  0  0  0
  -26.0152  -38.2844   24.1453 H   0  0  0  0  0  0
  -27.9601  -22.8289   19.7783 H   0  0  0  0  0  0
  -29.2938  -21.0736   24.1075 H   0  0  0  0  0  0
  -29.7254  -25.3016   23.4673 H   0  0  0  0  0  0
  -29.6849  -26.6009   22.2896 H   0  0  0  0  0  0
  -30.5944  -25.1278   21.9505 H   0  0  0  0  0  0
  -27.1809  -24.9881   23.5532 H   0  0  0  0  0  0
  -26.2601  -24.9885   22.0650 H   0  0  0  0  0  0
  -27.1256  -26.4352   22.5845 H   0  0  0  0  0  0
  -29.9567  -15.2872   23.8148 H   0  0  0  0  0  0
  -31.6012  -14.8022   23.3844 H   0  0  0  0  0  0
  -30.2783  -13.6500   23.2644 H   0  0  0  0  0  0
  -28.1541  -16.6978   22.3500 H   0  0  0  0  0  0
  -28.2507  -16.3696   20.6388 H   0  0  0  0  0  0
  -30.6148  -17.1150   22.4269 H   0  0  0  0  0  0
  -30.7248  -16.9422   20.7014 H   0  0  0  0  0  0
  -27.3899  -18.5972   20.8982 H   0  0  0  0  0  0
  -29.0058  -18.7052   20.1995 H   0  0  0  0  0  0
  -27.5517  -24.9035   19.7290 H   0  0  0  0  0  0
  -29.2757  -24.9802   19.7396 H   0  0  0  0  0  0
  1 25  1  0  0  0
  1 30  2  0  0  0
  1 85  1  0  0  0
  2  3  1  0  0  0
  2 25  1  0  0  0
  2 87  1  0  0  0
  2 88  1  0  0  0
  3  4  1  0  0  0
  3 89  1  0  0  0
  3 90  1  0  0  0
  4  5  1  0  0  0
  4 91  1  0  0  0
  4 92  1  0  0  0
  5  6  1  0  0  0
  5 26  1  0  0  0
  5 93  1  0  0  0
  6 25  1  0  0  0
  6 94  1  0  0  0
  6 95  1  0  0  0
  7  8  2  0  0  0
  7 26  1  0  0  0
  7 29  1  0  0  0
  8  9  1  0  0  0
  8 22  1  0  0  0
  9 10  1  0  0  0
  9 27  2  0  0  0
 10 11  2  0  0  0
 10 15  1  0  0  0
 11 12  1  0  0  0
 11 96  1  0  0  0
 12 13  2  0  0  0
 12 97  1  0  0  0
 13 14  1  0  0  0
 13 31  1  0  0  0
 14 15  2  0  0  0
 14 98  1  0  0  0
 15 99  1  0  0  0
 16 17  2  0  0  0
 16 21  1  0  0  0
 16 31  1  0  0  0
 17 18  1  0  0  0
 17100  1  0  0  0
 18 19  2  0  0  0
 18101  1  0  0  0
 19 20  1  0  0  0
 19 24  1  0  0  0
 20 21  2  0  0  0
 20102  1  0  0  0
 21 23  1  0  0  0
 22 28  1  0  0  0
 22 32  2  0  0  0
 26 27  1  0  0  0
 28103  1  0  0  0
 28104  1  0  0  0
 29105  1  0  0  0
 29106  1  0  0  0
 33 34  1  0  0  0
 33 66  1  0  0  0
 33 70  2  0  0  0
 34 36  1  0  0  0
 34 59  1  0  0  0
 34107  1  0  0  0
 35 44  2  0  0  0
 35 45  1  0  0  0
 35 68  1  0  0  0
 36 56  1  0  0  0
 36108  1  0  0  0
 37 39  1  0  0  0
 37 47  1  0  0  0
 37 66  1  0  0  0
 37109  1  0  0  0
 38 43  2  0  0  0
 38 46  1  0  0  0
 38 47  1  0  0  0
 39 64  1  0  0  0
 39 67  2  0  0  0
 40 52  1  0  0  0
 40 53  2  0  0  0
 40 58  1  0  0  0
 41110  1  0  0  0
 41111  1  0  0  0
 41112  1  0  0  0
 41 48  1  0  0  0
 42 43  1  0  0  0
 42 66  1  0  0  0
 42113  1  0  0  0
 42114  1  0  0  0
 43 44  1  0  0  0
 44115  1  0  0  0
 45 46  2  0  0  0
 45116  1  0  0  0
 46117  1  0  0  0
 47118  1  0  0  0
 47119  1  0  0  0
 48 56  1  0  0  0
 48 65  1  0  0  0
 48120  1  0  0  0
 49 50  1  0  0  0
 49 53  1  0  0  0
 49 64  1  0  0  0
 49121  1  0  0  0
 50 51  1  0  0  0
 50122  1  0  0  0
 50123  1  0  0  0
 51 52  1  0  0  0
 51124  1  0  0  0
 51125  1  0  0  0
 52126  1  0  0  0
 52127  1  0  0  0
 53 54  1  0  0  0
 54 55  2  0  0  0
 54128  1  0  0  0
 55 57  1  0  0  0
 55129  1  0  0  0
 56 69  2  0  0  0
 57 58  2  0  0  0
 57130  1  0  0  0
 58131  1  0  0  0
 59 60  1  0  0  0
 59 61  1  0  0  0
 59 62  1  0  0  0
 60132  1  0  0  0
 60133  1  0  0  0
 60134  1  0  0  0
 61135  1  0  0  0
 61136  1  0  0  0
 61137  1  0  0  0
 62138  1  0  0  0
 62139  1  0  0  0
 62140  1  0  0  0
 63 65  1  0  0  0
 63141  1  0  0  0
 63142  1  0  0  0
 63143  1  0  0  0
 64144  1  0  0  0
 65145  1  0  0  0
 68 81  1  0  0  0
 71 73  2  0  0  0
 71 84  1  0  0  0
 71146  1  0  0  0
 72 74  1  0  0  0
 72 83  2  0  0  0
 72147  1  0  0  0
 73 82  1  0  0  0
 73 83  1  0  0  0
 74 84  2  0  0  0
 74 86  1  0  0  0
 75148  1  0  0  0
 75149  1  0  0  0
 75150  1  0  0  0
 75 82  1  0  0  0
 76 82  1  0  0  0
 76151  1  0  0  0
 76152  1  0  0  0
 76153  1  0  0  0
 77 85  1  0  0  0
 77154  1  0  0  0
 77155  1  0  0  0
 77156  1  0  0  0
 78 79  1  0  0  0
 78 80  1  0  0  0
 78157  1  0  0  0
 78158  1  0  0  0
 79 85  1  0  0  0
 79159  1  0  0  0
 79160  1  0  0  0
 80 86  1  0  0  0
 80161  1  0  0  0
 80162  1  0  0  0
 81 82  1  0  0  0
 81163  1  0  0  0
 81164  1  0  0  0
M  ISO  4   1 100  68 101  81 101  85 100
M  END
> <chiral flag>
0

> <version>
0

> <s_m_source_file>
/data/baiqing/PycharmProjects/Reinvent-master-3.2/result/LINK_invent/BTK/process_docking_weight1_custom_sum_contain_oxygen_bond_distance_aromatic_linkinvent_7_9_3/rearranged_h_0075.sdf

> <i_m_source_file_index>
25

> <r_mmod_Potential_Energy-OPLS-2005>
169.263778686523

> <r_mmod_Stretch_Energy-OPLS-2005>
40.6907234191895

> <r_mmod_Bend_Energy-OPLS-2005>
105.025016784668

> <r_mmod_Torsional_Energy-OPLS-2005>
255.794189453125

> <r_mmod_Improper_Torsional_Energy-OPLS-2005>
3.69910478591919

> <r_mmod_Van_der_Waal_Energy-OPLS-2005>
174.848571777344

> <r_mmod_Electrostatic_Energy-OPLS-2005>
-224.796783447266

> <r_mmod_Solvation_Energy-OPLS-2005>
-194.571212768555

> <b_mmod_Minimization_Converged-OPLS-2005>
0

> <r_mmod_RMS_Derivative-OPLS-2005>
3.624351978302

$$$$
26
                    3D
 Structure written by MMmdl.
160167  0  0  1  0            999 V2000
  -30.5684  -14.9012   20.5184 C   0  0  0  0  0  0
  -30.4502  -12.5780   19.4828 C   0  0  0  0  0  0
  -29.5189  -12.5544   18.2456 C   0  0  0  0  0  0
  -28.0488  -12.3344   18.6536 C   0  0  0  0  0  0
  -27.6428  -13.2274   19.8521 C   0  0  2  0  0  0
  -28.6938  -13.1339   20.9785 C   0  0  0  0  0  0
  -25.2471  -13.8155   20.5619 C   0  0  0  0  0  0
  -24.1790  -13.0405   20.9204 C   0  0  0  0  0  0
  -24.6402  -11.6893   20.8760 C   0  0  0  0  0  0
  -23.9085  -10.4270   21.0418 C   0  0  0  0  0  0
  -24.3624   -9.4189   21.9198 C   0  0  0  0  0  0
  -23.6290   -8.2227   22.0757 C   0  0  0  0  0  0
  -22.4276   -8.0269   21.3541 C   0  0  0  0  0  0
  -21.9916   -9.0249   20.4655 C   0  0  0  0  0  0
  -22.7254  -10.2120   20.3070 C   0  0  0  0  0  0
  -21.6856   -6.0724   22.5268 C   0  0  0  0  0  0
  -21.4020   -6.5631   23.8200 C   0  0  0  0  0  0
  -21.3657   -5.6785   24.9163 C   0  0  0  0  0  0
  -21.6043   -4.3047   24.7217 C   0  0  0  0  0  0
  -21.8825   -3.8141   23.4338 C   0  0  0  0  0  0
  -21.9196   -4.6954   22.3392 C   0  0  0  0  0  0
  -22.7816  -13.5192   21.1859 C   0  0  0  0  0  0
  -22.1665   -4.2142   21.0971 F   0  0  0  0  0  0
  -21.5628   -3.4531   25.7733 F   0  0  0  0  0  0
  -29.9668  -13.6342   20.4281 N   0  0  0  0  0  0
  -26.2938  -12.9365   20.3273 N   0  0  0  0  0  0
  -25.9334  -11.6515   20.5761 N   0  0  0  0  0  0
  -22.0475  -12.8186   22.0431 N   0  0  0  0  0  0
  -25.4023  -15.1862   20.3895 N   0  0  0  0  0  0
  -31.7145  -14.9572   20.0538 O   0  0  0  0  0  0
  -21.6638   -6.8864   21.4230 O   0  0  0  0  0  0
  -22.3488  -14.5491   20.6710 O   0  0  0  0  0  0
  -24.6378  -31.8484   23.1917 C   0  0  0  0  0  0
  -25.9169  -32.4719   23.8296 C   0  0  1  0  0  0
  -27.2268  -27.1880   20.1476 C   0  0  0  0  0  0
  -25.5942  -33.8521   24.2223 N   0  0  0  0  0  0
  -23.4403  -30.4660   21.5362 C   0  0  2  0  0  0
  -24.8925  -28.8990   20.1148 C   0  0  0  0  0  0
  -22.7536  -29.4553   22.4879 C   0  0  0  0  0  0
  -18.0286  -28.1386   22.8458 C   0  0  0  0  0  0
  -24.1491  -36.7264   23.2643 C   0  0  0  0  0  0
  -25.9924  -30.7388   21.3840 C   0  0  0  0  0  0
  -26.0674  -29.3533   20.7280 C   0  0  0  0  0  0
  -27.2381  -28.5127   20.7275 C   0  0  0  0  0  0
  -26.0284  -26.8226   19.4979 C   0  0  0  0  0  0
  -24.8816  -27.6442   19.4856 C   0  0  0  0  0  0
  -23.6674  -29.7968   20.1549 C   0  0  0  0  0  0
  -25.4119  -36.3047   24.0323 C   0  0  1  0  0  0
  -20.5897  -28.3704   23.1243 C   0  0  2  0  0  0
  -20.6783  -26.9411   22.5410 C   0  0  0  0  0  0
  -19.5771  -26.6373   21.5206 C   0  0  0  0  0  0
  -18.1935  -26.7926   22.1600 C   0  0  0  0  0  0
  -19.1542  -28.8861   23.2841 C   0  0  0  0  0  0
  -18.9476  -30.1459   23.8863 C   0  0  0  0  0  0
  -17.6478  -30.6586   24.0554 C   0  0  0  0  0  0
  -25.9068  -34.9420   23.5085 C   0  0  0  0  0  0
  -16.5361  -29.9084   23.6339 C   0  0  0  0  0  0
  -16.7275  -28.6503   23.0352 C   0  0  0  0  0  0
  -26.4501  -31.6569   25.0718 C   0  0  0  0  0  0
  -25.3684  -31.3749   26.1412 C   0  0  0  0  0  0
  -27.0369  -30.2974   24.6269 C   0  0  0  0  0  0
  -27.6057  -32.4310   25.7487 C   0  0  0  0  0  0
  -27.5577  -37.1784   24.8461 C   0  0  0  0  0  0
  -21.4238  -29.3034   22.3624 N   0  0  0  0  0  0
  -26.4286  -37.3756   23.9413 N   0  0  0  0  0  0
  -24.7091  -31.0376   22.0936 N   0  0  0  0  0  0
  -23.4191  -28.8093   23.3016 O   0  0  0  0  0  0
  -28.3063  -26.2480   20.1640 O   0  0  0  0  0  0
  -26.5655  -34.8908   22.4661 O   0  0  0  0  0  0
  -23.5509  -32.1346   23.7165 O   0  0  0  0  0  0
  -29.7263  -19.1395   20.8477 C   0  0  0  0  0  0
  -29.8325  -17.7891   20.3740 C   0  0  0  0  0  0
  -29.8358  -19.5409   22.3137 C   0  0  0  0  0  0
  -29.7710  -17.5400   18.8771 C   0  0  0  0  0  0
  -30.9758  -16.5520   22.3689 C   0  0  0  0  0  0
  -28.6008  -16.1306   21.7975 C   0  0  0  0  0  0
  -29.5282  -20.5407   20.0228 C   0  0  0  0  0  0
  -28.8374  -21.9277   20.6547 C   0  0  0  0  0  0
  -28.9398  -23.4553   19.9890 C   0  0  0  0  0  0
  -28.0746  -24.7703   20.5289 C   0  0  0  0  0  0
  -29.9971  -16.3432   21.1803 C   0  0  0  0  0  0
  -31.4786  -12.7415   19.1572 H   0  0  0  0  0  0
  -30.4659  -11.6000   19.9675 H   0  0  0  0  0  0
  -29.8344  -11.7754   17.5512 H   0  0  0  0  0  0
  -29.6094  -13.4998   17.7074 H   0  0  0  0  0  0
  -27.9314  -11.2841   18.9230 H   0  0  0  0  0  0
  -27.3856  -12.5061   17.8050 H   0  0  0  0  0  0
  -27.6360  -14.2470   19.4678 H   0  0  0  0  0  0
  -28.7952  -12.0950   21.2960 H   0  0  0  0  0  0
  -28.3751  -13.6304   21.8847 H   0  0  0  0  0  0
  -25.2758   -9.5655   22.4787 H   0  0  0  0  0  0
  -23.9994   -7.4607   22.7467 H   0  0  0  0  0  0
  -21.0851   -8.8773   19.8955 H   0  0  0  0  0  0
  -22.3717  -10.9665   19.6183 H   0  0  0  0  0  0
  -21.2020   -7.6145   23.9704 H   0  0  0  0  0  0
  -21.1474   -6.0515   25.9064 H   0  0  0  0  0  0
  -22.0614   -2.7605   23.2841 H   0  0  0  0  0  0
  -22.4095  -11.9847   22.4821 H   0  0  0  0  0  0
  -21.1096  -13.1203   22.2639 H   0  0  0  0  0  0
  -24.6272  -15.8317   20.4931 H   0  0  0  0  0  0
  -26.2404  -15.6281   20.0355 H   0  0  0  0  0  0
  -26.7241  -32.5346   23.1041 H   0  0  0  0  0  0
  -25.0059  -33.9645   25.0348 H   0  0  0  0  0  0
  -22.7403  -31.2892   21.3826 H   0  0  0  0  0  0
  -23.3763  -35.9588   23.3300 H   0  0  0  0  0  0
  -24.3576  -36.8902   22.2060 H   0  0  0  0  0  0
  -23.7243  -37.6454   23.6680 H   0  0  0  0  0  0
  -26.1393  -31.4975   20.6132 H   0  0  0  0  0  0
  -26.8641  -30.7897   22.0247 H   0  0  0  0  0  0
  -28.1374  -28.8568   21.2197 H   0  0  0  0  0  0
  -25.9630  -25.8680   18.9960 H   0  0  0  0  0  0
  -23.9859  -27.2923   18.9919 H   0  0  0  0  0  0
  -23.8039  -30.5728   19.4010 H   0  0  0  0  0  0
  -22.7832  -29.2380   19.8426 H   0  0  0  0  0  0
  -25.1303  -36.1889   25.0815 H   0  0  0  0  0  0
  -20.9970  -28.3308   24.1374 H   0  0  0  0  0  0
  -20.5689  -26.2314   23.3622 H   0  0  0  0  0  0
  -21.6655  -26.7444   22.1204 H   0  0  0  0  0  0
  -19.6960  -25.6284   21.1246 H   0  0  0  0  0  0
  -19.6735  -27.3178   20.6727 H   0  0  0  0  0  0
  -17.4219  -26.6660   21.3989 H   0  0  0  0  0  0
  -18.0333  -26.0069   22.9000 H   0  0  0  0  0  0
  -19.7964  -30.7254   24.2236 H   0  0  0  0  0  0
  -17.5051  -31.6266   24.5155 H   0  0  0  0  0  0
  -15.5369  -30.2982   23.7695 H   0  0  0  0  0  0
  -15.8668  -28.0822   22.7094 H   0  0  0  0  0  0
  -24.5922  -30.7019   25.7749 H   0  0  0  0  0  0
  -24.8782  -32.2910   26.4710 H   0  0  0  0  0  0
  -25.7960  -30.9039   27.0275 H   0  0  0  0  0  0
  -26.2987  -29.6683   24.1277 H   0  0  0  0  0  0
  -27.4010  -29.7273   25.4828 H   0  0  0  0  0  0
  -27.8872  -30.4222   23.9561 H   0  0  0  0  0  0
  -27.2698  -33.3664   26.1971 H   0  0  0  0  0  0
  -28.3901  -32.6770   25.0320 H   0  0  0  0  0  0
  -28.0671  -31.8478   26.5470 H   0  0  0  0  0  0
  -28.2576  -38.0098   24.7514 H   0  0  0  0  0  0
  -28.1087  -36.2623   24.6272 H   0  0  0  0  0  0
  -27.2286  -37.1410   25.8860 H   0  0  0  0  0  0
  -20.9451  -29.8749   21.6809 H   0  0  0  0  0  0
  -26.0160  -38.2824   24.1436 H   0  0  0  0  0  0
  -28.9661  -18.9271   22.5171 H   0  0  0  0  0  0
  -30.0872  -19.0028   23.2214 H   0  0  0  0  0  0
  -30.8991  -19.3182   22.2226 H   0  0  0  0  0  0
  -29.6420  -18.4466   18.2920 H   0  0  0  0  0  0
  -28.9406  -16.8740   18.6426 H   0  0  0  0  0  0
  -30.6949  -17.0729   18.5380 H   0  0  0  0  0  0
  -30.4880  -16.9607   23.2494 H   0  0  0  0  0  0
  -31.8074  -17.2002   22.0944 H   0  0  0  0  0  0
  -31.4186  -15.6199   22.7248 H   0  0  0  0  0  0
  -28.1286  -17.0545   22.1151 H   0  0  0  0  0  0
  -28.6338  -15.5106   22.6914 H   0  0  0  0  0  0
  -27.9130  -15.7119   21.0737 H   0  0  0  0  0  0
  -28.9948  -20.3210   19.0996 H   0  0  0  0  0  0
  -30.5342  -20.8192   19.7085 H   0  0  0  0  0  0
  -29.2084  -22.0385   21.6732 H   0  0  0  0  0  0
  -27.7752  -21.7138   20.7766 H   0  0  0  0  0  0
  -28.7200  -23.3591   18.9259 H   0  0  0  0  0  0
  -29.9923  -23.7354   20.0247 H   0  0  0  0  0  0
  -28.1658  -24.7532   21.6147 H   0  0  0  0  0  0
  -27.0267  -24.5274   20.3620 H   0  0  0  0  0  0
  1 25  1  0  0  0
  1 30  2  0  0  0
  1 81  1  0  0  0
  2  3  1  0  0  0
  2 25  1  0  0  0
  2 82  1  0  0  0
  2 83  1  0  0  0
  3  4  1  0  0  0
  3 84  1  0  0  0
  3 85  1  0  0  0
  4  5  1  0  0  0
  4 86  1  0  0  0
  4 87  1  0  0  0
  5  6  1  0  0  0
  5 26  1  0  0  0
  5 88  1  0  0  0
  6 25  1  0  0  0
  6 89  1  0  0  0
  6 90  1  0  0  0
  7  8  2  0  0  0
  7 26  1  0  0  0
  7 29  1  0  0  0
  8  9  1  0  0  0
  8 22  1  0  0  0
  9 10  1  0  0  0
  9 27  2  0  0  0
 10 11  2  0  0  0
 10 15  1  0  0  0
 11 12  1  0  0  0
 11 91  1  0  0  0
 12 13  2  0  0  0
 12 92  1  0  0  0
 13 14  1  0  0  0
 13 31  1  0  0  0
 14 15  2  0  0  0
 14 93  1  0  0  0
 15 94  1  0  0  0
 16 17  2  0  0  0
 16 21  1  0  0  0
 16 31  1  0  0  0
 17 18  1  0  0  0
 17 95  1  0  0  0
 18 19  2  0  0  0
 18 96  1  0  0  0
 19 20  1  0  0  0
 19 24  1  0  0  0
 20 21  2  0  0  0
 20 97  1  0  0  0
 21 23  1  0  0  0
 22 28  1  0  0  0
 22 32  2  0  0  0
 26 27  1  0  0  0
 28 98  1  0  0  0
 28 99  1  0  0  0
 29100  1  0  0  0
 29101  1  0  0  0
 33 34  1  0  0  0
 33 66  1  0  0  0
 33 70  2  0  0  0
 34 36  1  0  0  0
 34 59  1  0  0  0
 34102  1  0  0  0
 35 44  2  0  0  0
 35 45  1  0  0  0
 35 68  1  0  0  0
 36 56  1  0  0  0
 36103  1  0  0  0
 37 39  1  0  0  0
 37 47  1  0  0  0
 37 66  1  0  0  0
 37104  1  0  0  0
 38 43  2  0  0  0
 38 46  1  0  0  0
 38 47  1  0  0  0
 39 64  1  0  0  0
 39 67  2  0  0  0
 40 52  1  0  0  0
 40 53  2  0  0  0
 40 58  1  0  0  0
 41105  1  0  0  0
 41106  1  0  0  0
 41107  1  0  0  0
 41 48  1  0  0  0
 42 43  1  0  0  0
 42 66  1  0  0  0
 42108  1  0  0  0
 42109  1  0  0  0
 43 44  1  0  0  0
 44110  1  0  0  0
 45 46  2  0  0  0
 45111  1  0  0  0
 46112  1  0  0  0
 47113  1  0  0  0
 47114  1  0  0  0
 48 56  1  0  0  0
 48 65  1  0  0  0
 48115  1  0  0  0
 49 50  1  0  0  0
 49 53  1  0  0  0
 49 64  1  0  0  0
 49116  1  0  0  0
 50 51  1  0  0  0
 50117  1  0  0  0
 50118  1  0  0  0
 51 52  1  0  0  0
 51119  1  0  0  0
 51120  1  0  0  0
 52121  1  0  0  0
 52122  1  0  0  0
 53 54  1  0  0  0
 54 55  2  0  0  0
 54123  1  0  0  0
 55 57  1  0  0  0
 55124  1  0  0  0
 56 69  2  0  0  0
 57 58  2  0  0  0
 57125  1  0  0  0
 58126  1  0  0  0
 59 60  1  0  0  0
 59 61  1  0  0  0
 59 62  1  0  0  0
 60127  1  0  0  0
 60128  1  0  0  0
 60129  1  0  0  0
 61130  1  0  0  0
 61131  1  0  0  0
 61132  1  0  0  0
 62133  1  0  0  0
 62134  1  0  0  0
 62135  1  0  0  0
 63 65  1  0  0  0
 63136  1  0  0  0
 63137  1  0  0  0
 63138  1  0  0  0
 64139  1  0  0  0
 65140  1  0  0  0
 68 80  1  0  0  0
 71 72  2  0  0  0
 71 73  1  0  0  0
 71 77  1  0  0  0
 72 74  1  0  0  0
 72 81  1  0  0  0
 73141  1  0  0  0
 73142  1  0  0  0
 73143  1  0  0  0
 74144  1  0  0  0
 74145  1  0  0  0
 74146  1  0  0  0
 75147  1  0  0  0
 75148  1  0  0  0
 75149  1  0  0  0
 75 81  1  0  0  0
 76 81  1  0  0  0
 76150  1  0  0  0
 76151  1  0  0  0
 76152  1  0  0  0
 77 78  1  0  0  0
 77153  1  0  0  0
 77154  1  0  0  0
 78 79  1  0  0  0
 78155  1  0  0  0
 78156  1  0  0  0
 79 80  1  0  0  0
 79157  1  0  0  0
 79158  1  0  0  0
 80159  1  0  0  0
 80160  1  0  0  0
M  ISO  4   1 100  68 101  80 101  81 100
M  END
> <chiral flag>
0

> <version>
0

> <s_m_source_file>
/data/baiqing/PycharmProjects/Reinvent-master-3.2/result/LINK_invent/BTK/process_docking_weight1_custom_sum_contain_oxygen_bond_distance_aromatic_linkinvent_7_9_3/rearranged_h_0075.sdf

> <i_m_source_file_index>
26

> <r_mmod_Potential_Energy-OPLS-2005>
743.406494140625

> <r_mmod_Stretch_Energy-OPLS-2005>
259.142059326172

> <r_mmod_Bend_Energy-OPLS-2005>
453.553741455078

> <r_mmod_Torsional_Energy-OPLS-2005>
216.048278808594

> <r_mmod_Improper_Torsional_Energy-OPLS-2005>
1.96345257759094

> <r_mmod_Van_der_Waal_Energy-OPLS-2005>
143.757141113281

> <r_mmod_Electrostatic_Energy-OPLS-2005>
-300.560241699219

> <r_mmod_Solvation_Energy-OPLS-2005>
-171.05632019043

> <b_mmod_Minimization_Converged-OPLS-2005>
0

> <r_mmod_RMS_Derivative-OPLS-2005>
1.71736240386963

$$$$
27
                    3D
 Structure written by MMmdl.
165173  0  0  1  0            999 V2000
  -30.7527  -14.6649   20.3189 C   0  0  0  0  0  0
  -30.4113  -12.3839   19.4525 C   0  0  0  0  0  0
  -29.4818  -12.3534   18.2226 C   0  0  0  0  0  0
  -28.0027  -12.2837   18.6423 C   0  0  0  0  0  0
  -27.6227  -13.2221   19.8248 C   0  0  2  0  0  0
  -28.6962  -13.2569   20.9300 C   0  0  0  0  0  0
  -25.2496  -13.8171   20.5779 C   0  0  0  0  0  0
  -24.1768  -13.0435   20.9241 C   0  0  0  0  0  0
  -24.6351  -11.6910   20.8820 C   0  0  0  0  0  0
  -23.9036  -10.4302   21.0467 C   0  0  0  0  0  0
  -24.3594   -9.4207   21.9228 C   0  0  0  0  0  0
  -23.6273   -8.2243   22.0789 C   0  0  0  0  0  0
  -22.4259   -8.0293   21.3571 C   0  0  0  0  0  0
  -21.9903   -9.0259   20.4676 C   0  0  0  0  0  0
  -22.7228  -10.2138   20.3095 C   0  0  0  0  0  0
  -21.6842   -6.0743   22.5281 C   0  0  0  0  0  0
  -21.3985   -6.5643   23.8211 C   0  0  0  0  0  0
  -21.3650   -5.6797   24.9179 C   0  0  0  0  0  0
  -21.6043   -4.3062   24.7235 C   0  0  0  0  0  0
  -21.8810   -3.8155   23.4357 C   0  0  0  0  0  0
  -21.9190   -4.6971   22.3405 C   0  0  0  0  0  0
  -22.7794  -13.5226   21.1868 C   0  0  0  0  0  0
  -22.1659   -4.2149   21.0992 F   0  0  0  0  0  0
  -21.5642   -3.4552   25.7753 F   0  0  0  0  0  0
  -29.9936  -13.5207   20.2935 N   0  0  0  0  0  0
  -26.2892  -12.9352   20.3367 N   0  0  0  0  0  0
  -25.9281  -11.6508   20.5874 N   0  0  0  0  0  0
  -22.0418  -12.8210   22.0409 N   0  0  0  0  0  0
  -25.4170  -15.1904   20.4243 N   0  0  0  0  0  0
  -31.9648  -14.5193   20.4562 O   0  0  0  0  0  0
  -21.6628   -6.8886   21.4255 O   0  0  0  0  0  0
  -22.3493  -14.5520   20.6708 O   0  0  0  0  0  0
  -24.6206  -31.8603   23.2114 C   0  0  0  0  0  0
  -25.9080  -32.4762   23.8416 C   0  0  1  0  0  0
  -27.2119  -27.3523   20.1034 C   0  0  0  0  0  0
  -25.5893  -33.8573   24.2323 N   0  0  0  0  0  0
  -23.4116  -30.4931   21.5479 C   0  0  2  0  0  0
  -24.8570  -28.9624   20.1050 C   0  0  0  0  0  0
  -22.7427  -29.4651   22.4905 C   0  0  0  0  0  0
  -18.0269  -28.1393   22.8479 C   0  0  0  0  0  0
  -24.1475  -36.7340   23.2640 C   0  0  0  0  0  0
  -25.9511  -30.8047   21.3745 C   0  0  0  0  0  0
  -26.0231  -29.4364   20.7169 C   0  0  0  0  0  0
  -27.2027  -28.6401   20.7135 C   0  0  0  0  0  0
  -26.0293  -26.9403   19.4415 C   0  0  0  0  0  0
  -24.8607  -27.7189   19.4582 C   0  0  0  0  0  0
  -23.6248  -29.8391   20.1577 C   0  0  0  0  0  0
  -25.4087  -36.3075   24.0328 C   0  0  1  0  0  0
  -20.5868  -28.3705   23.1271 C   0  0  2  0  0  0
  -20.6761  -26.9427   22.5406 C   0  0  0  0  0  0
  -19.5740  -26.6399   21.5197 C   0  0  0  0  0  0
  -18.1917  -26.7937   22.1613 C   0  0  0  0  0  0
  -19.1527  -28.8863   23.2875 C   0  0  0  0  0  0
  -18.9457  -30.1455   23.8903 C   0  0  0  0  0  0
  -17.6464  -30.6591   24.0584 C   0  0  0  0  0  0
  -25.9016  -34.9434   23.5128 C   0  0  0  0  0  0
  -16.5352  -29.9107   23.6329 C   0  0  0  0  0  0
  -16.7263  -28.6530   23.0341 C   0  0  0  0  0  0
  -26.4514  -31.6550   25.0762 C   0  0  0  0  0  0
  -25.3804  -31.3628   26.1539 C   0  0  0  0  0  0
  -27.0367  -30.2969   24.6191 C   0  0  0  0  0  0
  -27.6069  -32.4286   25.7521 C   0  0  0  0  0  0
  -27.5566  -37.1808   24.8451 C   0  0  0  0  0  0
  -21.4145  -29.3073   22.3661 N   0  0  0  0  0  0
  -26.4264  -37.3769   23.9410 N   0  0  0  0  0  0
  -24.6805  -31.0670   22.1026 N   0  0  0  0  0  0
  -23.4169  -28.8133   23.2925 O   0  0  0  0  0  0
  -28.3304  -26.5154   20.1802 O   0  0  0  0  0  0
  -26.5586  -34.8889   22.4693 O   0  0  0  0  0  0
  -23.5391  -32.1389   23.7476 O   0  0  0  0  0  0
  -28.4783  -17.8671   19.8552 C   0  0  0  0  0  0
  -28.1695  -19.2161   20.1709 C   0  0  0  0  0  0
  -29.0200  -19.9455   21.0447 C   0  0  0  0  0  0
  -29.6295  -17.2307   20.3909 C   0  0  0  0  0  0
  -30.0648  -19.1903   21.6478 C   0  0  0  0  0  0
  -26.9650  -19.8666   19.5125 C   0  0  0  0  0  0
  -30.9939  -19.8097   22.6781 C   0  0  0  0  0  0
  -31.6985  -16.7496   19.1400 C   0  0  0  0  0  0
  -29.7133  -15.8054   18.2311 C   0  0  0  0  0  0
  -28.7805  -21.4570   21.3875 C   0  0  0  0  0  0
  -28.8797  -22.5292   20.2379 C   0  0  0  0  0  0
  -29.0079  -24.0438   20.6860 C   0  0  0  0  0  0
  -28.1578  -25.0880   19.8791 C   0  0  0  0  0  0
  -30.3647  -16.0685   19.6113 C   0  0  0  0  0  0
  -30.3415  -17.8906   21.3421 N   0  0  0  0  0  0
  -31.4508  -12.4639   19.1270 H   0  0  0  0  0  0
  -30.3434  -11.4527   20.0152 H   0  0  0  0  0  0
  -29.7261  -11.4848   17.6077 H   0  0  0  0  0  0
  -29.6401  -13.2019   17.5685 H   0  0  0  0  0  0
  -27.8122  -11.2477   18.9221 H   0  0  0  0  0  0
  -27.3616  -12.4814   17.7835 H   0  0  0  0  0  0
  -27.5542  -14.2200   19.4158 H   0  0  0  0  0  0
  -28.7222  -12.3104   21.4695 H   0  0  0  0  0  0
  -28.4670  -14.0326   21.6636 H   0  0  0  0  0  0
  -25.2743   -9.5673   22.4806 H   0  0  0  0  0  0
  -23.9994   -7.4626   22.7491 H   0  0  0  0  0  0
  -21.0851   -8.8773   19.8950 H   0  0  0  0  0  0
  -22.3708  -10.9686   19.6201 H   0  0  0  0  0  0
  -21.1933   -7.6139   23.9690 H   0  0  0  0  0  0
  -21.1478   -6.0549   25.9075 H   0  0  0  0  0  0
  -22.0580   -2.7619   23.2857 H   0  0  0  0  0  0
  -22.4065  -11.9885   22.4804 H   0  0  0  0  0  0
  -21.1020  -13.1226   22.2569 H   0  0  0  0  0  0
  -24.6556  -15.8455   20.5574 H   0  0  0  0  0  0
  -26.2861  -15.6422   20.1719 H   0  0  0  0  0  0
  -26.7144  -32.5431   23.1166 H   0  0  0  0  0  0
  -25.0021  -33.9732   25.0451 H   0  0  0  0  0  0
  -22.7054  -31.3136   21.4083 H   0  0  0  0  0  0
  -23.3683  -35.9716   23.3264 H   0  0  0  0  0  0
  -24.3584  -36.9028   22.2068 H   0  0  0  0  0  0
  -23.7292  -37.6558   23.6696 H   0  0  0  0  0  0
  -26.0701  -31.5667   20.6026 H   0  0  0  0  0  0
  -26.8374  -30.8583   21.9948 H   0  0  0  0  0  0
  -28.0964  -28.9960   21.2072 H   0  0  0  0  0  0
  -25.9717  -26.0102   18.8977 H   0  0  0  0  0  0
  -23.9707  -27.3637   18.9573 H   0  0  0  0  0  0
  -23.7416  -30.6210   19.4048 H   0  0  0  0  0  0
  -22.7446  -29.2694   19.8510 H   0  0  0  0  0  0
  -25.1248  -36.1941   25.0815 H   0  0  0  0  0  0
  -20.9976  -28.3305   24.1381 H   0  0  0  0  0  0
  -20.5650  -26.2319   23.3612 H   0  0  0  0  0  0
  -21.6635  -26.7441   22.1216 H   0  0  0  0  0  0
  -19.6912  -25.6307   21.1238 H   0  0  0  0  0  0
  -19.6682  -27.3198   20.6720 H   0  0  0  0  0  0
  -17.4185  -26.6673   21.4021 H   0  0  0  0  0  0
  -18.0325  -26.0071   22.9009 H   0  0  0  0  0  0
  -19.7934  -30.7266   24.2281 H   0  0  0  0  0  0
  -17.5021  -31.6260   24.5197 H   0  0  0  0  0  0
  -15.5362  -30.3026   23.7635 H   0  0  0  0  0  0
  -15.8659  -28.0867   22.7045 H   0  0  0  0  0  0
  -24.6012  -30.6905   25.7936 H   0  0  0  0  0  0
  -24.8953  -32.2753   26.5002 H   0  0  0  0  0  0
  -25.8242  -30.8853   27.0291 H   0  0  0  0  0  0
  -26.2943  -29.6675   24.1282 H   0  0  0  0  0  0
  -27.4138  -29.7258   25.4688 H   0  0  0  0  0  0
  -27.8759  -30.4231   23.9350 H   0  0  0  0  0  0
  -27.2688  -33.3595   26.2082 H   0  0  0  0  0  0
  -28.3911  -32.6846   25.0379 H   0  0  0  0  0  0
  -28.0696  -31.8422   26.5479 H   0  0  0  0  0  0
  -28.2542  -38.0137   24.7498 H   0  0  0  0  0  0
  -28.1106  -36.2672   24.6248 H   0  0  0  0  0  0
  -27.2292  -37.1447   25.8854 H   0  0  0  0  0  0
  -20.9283  -29.8887   21.6979 H   0  0  0  0  0  0
  -26.0134  -38.2828   24.1439 H   0  0  0  0  0  0
  -27.8834  -17.3757   19.0985 H   0  0  0  0  0  0
  -26.1927  -19.1319   19.2879 H   0  0  0  0  0  0
  -27.2660  -20.3360   18.5766 H   0  0  0  0  0  0
  -26.5044  -20.6230   20.1471 H   0  0  0  0  0  0
  -30.4271  -20.1682   23.5383 H   0  0  0  0  0  0
  -31.5371  -20.6480   22.2393 H   0  0  0  0  0  0
  -31.7290  -19.0960   23.0493 H   0  0  0  0  0  0
  -31.5053  -17.6958   18.6344 H   0  0  0  0  0  0
  -32.2684  -16.1277   18.4477 H   0  0  0  0  0  0
  -32.3673  -16.9816   19.9718 H   0  0  0  0  0  0
  -29.6326  -16.7219   17.6477 H   0  0  0  0  0  0
  -28.7166  -15.3944   18.2728 H   0  0  0  0  0  0
  -30.3401  -15.1464   17.6347 H   0  0  0  0  0  0
  -29.4700  -21.7682   22.1681 H   0  0  0  0  0  0
  -27.8017  -21.5410   21.8622 H   0  0  0  0  0  0
  -28.0251  -22.4212   19.5720 H   0  0  0  0  0  0
  -29.7506  -22.2954   19.6247 H   0  0  0  0  0  0
  -30.0595  -24.3303   20.6485 H   0  0  0  0  0  0
  -28.7220  -24.1290   21.7350 H   0  0  0  0  0  0
  -27.1362  -24.7681   20.0807 H   0  0  0  0  0  0
  -28.3258  -24.9532   18.8102 H   0  0  0  0  0  0
  1 25  1  0  0  0
  1 30  2  0  0  0
  1 84  1  0  0  0
  2  3  1  0  0  0
  2 25  1  0  0  0
  2 86  1  0  0  0
  2 87  1  0  0  0
  3  4  1  0  0  0
  3 88  1  0  0  0
  3 89  1  0  0  0
  4  5  1  0  0  0
  4 90  1  0  0  0
  4 91  1  0  0  0
  5  6  1  0  0  0
  5 26  1  0  0  0
  5 92  1  0  0  0
  6 25  1  0  0  0
  6 93  1  0  0  0
  6 94  1  0  0  0
  7  8  2  0  0  0
  7 26  1  0  0  0
  7 29  1  0  0  0
  8  9  1  0  0  0
  8 22  1  0  0  0
  9 10  1  0  0  0
  9 27  2  0  0  0
 10 11  2  0  0  0
 10 15  1  0  0  0
 11 12  1  0  0  0
 11 95  1  0  0  0
 12 13  2  0  0  0
 12 96  1  0  0  0
 13 14  1  0  0  0
 13 31  1  0  0  0
 14 15  2  0  0  0
 14 97  1  0  0  0
 15 98  1  0  0  0
 16 17  2  0  0  0
 16 21  1  0  0  0
 16 31  1  0  0  0
 17 18  1  0  0  0
 17 99  1  0  0  0
 18 19  2  0  0  0
 18100  1  0  0  0
 19 20  1  0  0  0
 19 24  1  0  0  0
 20 21  2  0  0  0
 20101  1  0  0  0
 21 23  1  0  0  0
 22 28  1  0  0  0
 22 32  2  0  0  0
 26 27  1  0  0  0
 28102  1  0  0  0
 28103  1  0  0  0
 29104  1  0  0  0
 29105  1  0  0  0
 33 34  1  0  0  0
 33 66  1  0  0  0
 33 70  2  0  0  0
 34 36  1  0  0  0
 34 59  1  0  0  0
 34106  1  0  0  0
 35 44  2  0  0  0
 35 45  1  0  0  0
 35 68  1  0  0  0
 36 56  1  0  0  0
 36107  1  0  0  0
 37 39  1  0  0  0
 37 47  1  0  0  0
 37 66  1  0  0  0
 37108  1  0  0  0
 38 43  2  0  0  0
 38 46  1  0  0  0
 38 47  1  0  0  0
 39 64  1  0  0  0
 39 67  2  0  0  0
 40 52  1  0  0  0
 40 53  2  0  0  0
 40 58  1  0  0  0
 41109  1  0  0  0
 41110  1  0  0  0
 41111  1  0  0  0
 41 48  1  0  0  0
 42 43  1  0  0  0
 42 66  1  0  0  0
 42112  1  0  0  0
 42113  1  0  0  0
 43 44  1  0  0  0
 44114  1  0  0  0
 45 46  2  0  0  0
 45115  1  0  0  0
 46116  1  0  0  0
 47117  1  0  0  0
 47118  1  0  0  0
 48 56  1  0  0  0
 48 65  1  0  0  0
 48119  1  0  0  0
 49 50  1  0  0  0
 49 53  1  0  0  0
 49 64  1  0  0  0
 49120  1  0  0  0
 50 51  1  0  0  0
 50121  1  0  0  0
 50122  1  0  0  0
 51 52  1  0  0  0
 51123  1  0  0  0
 51124  1  0  0  0
 52125  1  0  0  0
 52126  1  0  0  0
 53 54  1  0  0  0
 54 55  2  0  0  0
 54127  1  0  0  0
 55 57  1  0  0  0
 55128  1  0  0  0
 56 69  2  0  0  0
 57 58  2  0  0  0
 57129  1  0  0  0
 58130  1  0  0  0
 59 60  1  0  0  0
 59 61  1  0  0  0
 59 62  1  0  0  0
 60131  1  0  0  0
 60132  1  0  0  0
 60133  1  0  0  0
 61134  1  0  0  0
 61135  1  0  0  0
 61136  1  0  0  0
 62137  1  0  0  0
 62138  1  0  0  0
 62139  1  0  0  0
 63 65  1  0  0  0
 63140  1  0  0  0
 63141  1  0  0  0
 63142  1  0  0  0
 64143  1  0  0  0
 65144  1  0  0  0
 68 83  1  0  0  0
 71 72  2  0  0  0
 71 74  1  0  0  0
 71145  1  0  0  0
 72 73  1  0  0  0
 72 76  1  0  0  0
 73 75  2  0  0  0
 73 80  1  0  0  0
 74 84  1  0  0  0
 74 85  2  0  0  0
 75 77  1  0  0  0
 75 85  1  0  0  0
 76146  1  0  0  0
 76147  1  0  0  0
 76148  1  0  0  0
 77149  1  0  0  0
 77150  1  0  0  0
 77151  1  0  0  0
 78152  1  0  0  0
 78153  1  0  0  0
 78154  1  0  0  0
 78 84  1  0  0  0
 79 84  1  0  0  0
 79155  1  0  0  0
 79156  1  0  0  0
 79157  1  0  0  0
 80 81  1  0  0  0
 80158  1  0  0  0
 80159  1  0  0  0
 81 82  1  0  0  0
 81160  1  0  0  0
 81161  1  0  0  0
 82 83  1  0  0  0
 82162  1  0  0  0
 82163  1  0  0  0
 83164  1  0  0  0
 83165  1  0  0  0
M  ISO  4   1 100  68 101  83 101  84 100
M  END
> <chiral flag>
0

> <version>
0

> <s_m_source_file>
/data/baiqing/PycharmProjects/Reinvent-master-3.2/result/LINK_invent/BTK/process_docking_weight1_custom_sum_contain_oxygen_bond_distance_aromatic_linkinvent_7_9_3/rearranged_h_0075.sdf

> <i_m_source_file_index>
27

> <r_mmod_Potential_Energy-OPLS-2005>
169.968109130859

> <r_mmod_Stretch_Energy-OPLS-2005>
79.7252426147461

> <r_mmod_Bend_Energy-OPLS-2005>
170.576095581055

> <r_mmod_Torsional_Energy-OPLS-2005>
257.773529052734

> <r_mmod_Improper_Torsional_Energy-OPLS-2005>
22.3244476318359

> <r_mmod_Van_der_Waal_Energy-OPLS-2005>
177.075485229492

> <r_mmod_Electrostatic_Energy-OPLS-2005>
-433.511077880859

> <r_mmod_Solvation_Energy-OPLS-2005>
-198.269012451172

> <b_mmod_Minimization_Converged-OPLS-2005>
0

> <r_mmod_RMS_Derivative-OPLS-2005>
3.20941948890686

$$$$
28
                    3D
 Structure written by MMmdl.
161169  0  0  1  0            999 V2000
  -30.7949  -14.5485   20.2219 C   0  0  0  0  0  0
  -30.4005  -12.2923   19.4090 C   0  0  0  0  0  0
  -29.4492  -12.2709   18.2021 C   0  0  0  0  0  0
  -27.9700  -12.3103   18.6278 C   0  0  0  0  0  0
  -27.6339  -13.2240   19.8438 C   0  0  2  0  0  0
  -28.7322  -13.2052   20.9229 C   0  0  0  0  0  0
  -25.2510  -13.8194   20.5794 C   0  0  0  0  0  0
  -24.1772  -13.0427   20.9248 C   0  0  0  0  0  0
  -24.6371  -11.6917   20.8832 C   0  0  0  0  0  0
  -23.9069  -10.4274   21.0443 C   0  0  0  0  0  0
  -24.3623   -9.4179   21.9211 C   0  0  0  0  0  0
  -23.6289   -8.2212   22.0754 C   0  0  0  0  0  0
  -22.4284   -8.0259   21.3519 C   0  0  0  0  0  0
  -21.9930   -9.0246   20.4630 C   0  0  0  0  0  0
  -22.7261  -10.2122   20.3064 C   0  0  0  0  0  0
  -21.6850   -6.0726   22.5268 C   0  0  0  0  0  0
  -21.4004   -6.5636   23.8203 C   0  0  0  0  0  0
  -21.3659   -5.6791   24.9172 C   0  0  0  0  0  0
  -21.6045   -4.3049   24.7221 C   0  0  0  0  0  0
  -21.8806   -3.8143   23.4339 C   0  0  0  0  0  0
  -21.9175   -4.6955   22.3397 C   0  0  0  0  0  0
  -22.7795  -13.5222   21.1880 C   0  0  0  0  0  0
  -22.1621   -4.2130   21.0972 F   0  0  0  0  0  0
  -21.5667   -3.4545   25.7742 F   0  0  0  0  0  0
  -30.0169  -13.4279   20.2432 N   0  0  0  0  0  0
  -26.2975  -12.9383   20.3571 N   0  0  0  0  0  0
  -25.9327  -11.6543   20.6008 N   0  0  0  0  0  0
  -22.0460  -12.8204   22.0446 N   0  0  0  0  0  0
  -25.4168  -15.1895   20.4127 N   0  0  0  0  0  0
  -31.9492  -14.4565   20.6133 O   0  0  0  0  0  0
  -21.6621   -6.8871   21.4227 O   0  0  0  0  0  0
  -22.3473  -14.5529   20.6746 O   0  0  0  0  0  0
  -24.6138  -31.8685   23.2125 C   0  0  0  0  0  0
  -25.9022  -32.4837   23.8428 C   0  0  1  0  0  0
  -27.2268  -27.4470   20.1009 C   0  0  0  0  0  0
  -25.5869  -33.8633   24.2345 N   0  0  0  0  0  0
  -23.4046  -30.4914   21.5520 C   0  0  2  0  0  0
  -24.8519  -28.9671   20.1103 C   0  0  0  0  0  0
  -22.7440  -29.4642   22.4992 C   0  0  0  0  0  0
  -18.0254  -28.1413   22.8482 C   0  0  0  0  0  0
  -24.1493  -36.7294   23.2627 C   0  0  0  0  0  0
  -25.9314  -30.8390   21.3654 C   0  0  0  0  0  0
  -26.0117  -29.4783   20.7072 C   0  0  0  0  0  0
  -27.2073  -28.7263   20.6994 C   0  0  0  0  0  0
  -26.0542  -26.9487   19.4980 C   0  0  0  0  0  0
  -24.8656  -27.6994   19.5021 C   0  0  0  0  0  0
  -23.6144  -29.8307   20.1636 C   0  0  0  0  0  0
  -25.4097  -36.3109   24.0349 C   0  0  1  0  0  0
  -20.5847  -28.3679   23.1302 C   0  0  2  0  0  0
  -20.6739  -26.9423   22.5380 C   0  0  0  0  0  0
  -19.5714  -26.6427   21.5186 C   0  0  0  0  0  0
  -18.1897  -26.7948   22.1615 C   0  0  0  0  0  0
  -19.1513  -28.8869   23.2869 C   0  0  0  0  0  0
  -18.9448  -30.1476   23.8884 C   0  0  0  0  0  0
  -17.6450  -30.6606   24.0589 C   0  0  0  0  0  0
  -25.9012  -34.9482   23.5137 C   0  0  0  0  0  0
  -16.5335  -29.9108   23.6368 C   0  0  0  0  0  0
  -16.7244  -28.6534   23.0362 C   0  0  0  0  0  0
  -26.4451  -31.6607   25.0766 C   0  0  0  0  0  0
  -25.3722  -31.3676   26.1523 C   0  0  0  0  0  0
  -27.0292  -30.3048   24.6132 C   0  0  0  0  0  0
  -27.6046  -32.4322   25.7507 C   0  0  0  0  0  0
  -27.5568  -37.1830   24.8461 C   0  0  0  0  0  0
  -21.4156  -29.3060   22.3751 N   0  0  0  0  0  0
  -26.4273  -37.3794   23.9419 N   0  0  0  0  0  0
  -24.6683  -31.0794   22.1016 N   0  0  0  0  0  0
  -23.4194  -28.8148   23.3016 O   0  0  0  0  0  0
  -28.3618  -26.6716   20.1291 O   0  0  0  0  0  0
  -26.5573  -34.8922   22.4691 O   0  0  0  0  0  0
  -23.5322  -32.1425   23.7495 O   0  0  0  0  0  0
  -30.0616  -19.4435   20.2870 C   0  0  0  0  0  0
  -30.7451  -18.2417   20.0469 C   0  0  0  0  0  0
  -28.6674  -19.3831   20.4555 C   0  0  0  0  0  0
  -29.9969  -17.0421   19.9458 C   0  0  0  0  0  0
  -31.9819  -16.1196   18.6152 C   0  0  0  0  0  0
  -29.7424  -15.5641   17.9611 C   0  0  0  0  0  0
  -27.8252  -20.6609   20.5018 C   0  0  0  0  0  0
  -28.3886  -21.7828   21.4063 C   0  0  0  0  0  0
  -27.5877  -23.1074   21.4065 C   0  0  0  0  0  0
  -28.0512  -24.1920   20.3926 C   0  0  0  0  0  0
  -28.2795  -25.5733   21.0540 C   0  0  0  0  0  0
  -30.5807  -15.7883   19.2450 C   0  0  0  0  0  0
  -28.0106  -18.1895   20.4737 N   0  0  0  0  0  0
  -28.6616  -17.0413   20.2216 N   0  0  0  0  0  0
  -31.4359  -12.3594   19.0719 H   0  0  0  0  0  0
  -30.3296  -11.3638   19.9800 H   0  0  0  0  0  0
  -29.6254  -11.3609   17.6262 H   0  0  0  0  0  0
  -29.6658  -13.0593   17.5011 H   0  0  0  0  0  0
  -27.7101  -11.2816   18.8709 H   0  0  0  0  0  0
  -27.3383  -12.5784   17.7791 H   0  0  0  0  0  0
  -27.5827  -14.2443   19.4875 H   0  0  0  0  0  0
  -28.7531  -12.2511   21.4485 H   0  0  0  0  0  0
  -28.5528  -13.9806   21.6692 H   0  0  0  0  0  0
  -25.2759   -9.5644   22.4819 H   0  0  0  0  0  0
  -23.9977   -7.4614   22.7496 H   0  0  0  0  0  0
  -21.0854   -8.8763   19.8953 H   0  0  0  0  0  0
  -22.3726  -10.9663   19.6179 H   0  0  0  0  0  0
  -21.1971   -7.6140   23.9698 H   0  0  0  0  0  0
  -21.1511   -6.0524   25.9072 H   0  0  0  0  0  0
  -22.0595   -2.7606   23.2835 H   0  0  0  0  0  0
  -22.4161  -11.9910   22.4835 H   0  0  0  0  0  0
  -21.1054  -13.1168   22.2681 H   0  0  0  0  0  0
  -24.6620  -15.8498   20.5635 H   0  0  0  0  0  0
  -26.3003  -15.6436   20.2027 H   0  0  0  0  0  0
  -26.7119  -32.5564   23.1226 H   0  0  0  0  0  0
  -25.0098  -33.9817   25.0534 H   0  0  0  0  0  0
  -22.6901  -31.3057   21.4172 H   0  0  0  0  0  0
  -23.3770  -35.9610   23.3300 H   0  0  0  0  0  0
  -24.3579  -36.8877   22.2030 H   0  0  0  0  0  0
  -23.7242  -37.6505   23.6616 H   0  0  0  0  0  0
  -26.0445  -31.6090   20.6017 H   0  0  0  0  0  0
  -26.8151  -30.8869   21.9871 H   0  0  0  0  0  0
  -28.1014  -29.1164   21.1658 H   0  0  0  0  0  0
  -26.0539  -25.9793   19.0261 H   0  0  0  0  0  0
  -23.9770  -27.2980   19.0380 H   0  0  0  0  0  0
  -23.7274  -30.6099   19.4056 H   0  0  0  0  0  0
  -22.7410  -29.2456   19.8718 H   0  0  0  0  0  0
  -25.1285  -36.1972   25.0843 H   0  0  0  0  0  0
  -20.9909  -28.3222   24.1437 H   0  0  0  0  0  0
  -20.5649  -26.2268   23.3543 H   0  0  0  0  0  0
  -21.6601  -26.7461   22.1175 H   0  0  0  0  0  0
  -19.6861  -25.6342   21.1230 H   0  0  0  0  0  0
  -19.6659  -27.3217   20.6699 H   0  0  0  0  0  0
  -17.4166  -26.6688   21.4030 H   0  0  0  0  0  0
  -18.0293  -26.0085   22.9007 H   0  0  0  0  0  0
  -19.7934  -30.7301   24.2227 H   0  0  0  0  0  0
  -17.5004  -31.6301   24.5181 H   0  0  0  0  0  0
  -15.5335  -30.3023   23.7716 H   0  0  0  0  0  0
  -15.8616  -28.0906   22.7053 H   0  0  0  0  0  0
  -24.5906  -30.7018   25.7853 H   0  0  0  0  0  0
  -24.8927  -32.2823   26.5008 H   0  0  0  0  0  0
  -25.8082  -30.8820   27.0269 H   0  0  0  0  0  0
  -26.2840  -29.6800   24.1209 H   0  0  0  0  0  0
  -27.4081  -29.7272   25.4574 H   0  0  0  0  0  0
  -27.8662  -30.4376   23.9281 H   0  0  0  0  0  0
  -27.2679  -33.3601   26.2134 H   0  0  0  0  0  0
  -28.3808  -32.6914   25.0299 H   0  0  0  0  0  0
  -28.0799  -31.8449   26.5363 H   0  0  0  0  0  0
  -28.2620  -38.0104   24.7517 H   0  0  0  0  0  0
  -28.1049  -36.2648   24.6299 H   0  0  0  0  0  0
  -27.2312  -37.1504   25.8873 H   0  0  0  0  0  0
  -20.9271  -29.8851   21.7066 H   0  0  0  0  0  0
  -26.0171  -38.2875   24.1401 H   0  0  0  0  0  0
  -30.5942  -20.3812   20.2539 H   0  0  0  0  0  0
  -31.8014  -18.2985   19.8343 H   0  0  0  0  0  0
  -32.7269  -16.4127   19.3574 H   0  0  0  0  0  0
  -32.4006  -15.2577   18.0940 H   0  0  0  0  0  0
  -31.9199  -16.9263   17.8809 H   0  0  0  0  0  0
  -29.5384  -16.5229   17.4793 H   0  0  0  0  0  0
  -28.7750  -15.1175   18.1206 H   0  0  0  0  0  0
  -30.2746  -14.9845   17.2103 H   0  0  0  0  0  0
  -26.8197  -20.4069   20.8408 H   0  0  0  0  0  0
  -27.7267  -21.0215   19.4763 H   0  0  0  0  0  0
  -28.4024  -21.4032   22.4275 H   0  0  0  0  0  0
  -29.4265  -22.0023   21.1644 H   0  0  0  0  0  0
  -27.6674  -23.5210   22.4129 H   0  0  0  0  0  0
  -26.5236  -22.9057   21.2789 H   0  0  0  0  0  0
  -27.2994  -24.2772   19.6096 H   0  0  0  0  0  0
  -28.9675  -23.8920   19.8833 H   0  0  0  0  0  0
  -29.2091  -25.5394   21.6241 H   0  0  0  0  0  0
  -27.4917  -25.7527   21.7919 H   0  0  0  0  0  0
  1 25  1  0  0  0
  1 30  2  0  0  0
  1 82  1  0  0  0
  2  3  1  0  0  0
  2 25  1  0  0  0
  2 85  1  0  0  0
  2 86  1  0  0  0
  3  4  1  0  0  0
  3 87  1  0  0  0
  3 88  1  0  0  0
  4  5  1  0  0  0
  4 89  1  0  0  0
  4 90  1  0  0  0
  5  6  1  0  0  0
  5 26  1  0  0  0
  5 91  1  0  0  0
  6 25  1  0  0  0
  6 92  1  0  0  0
  6 93  1  0  0  0
  7  8  2  0  0  0
  7 26  1  0  0  0
  7 29  1  0  0  0
  8  9  1  0  0  0
  8 22  1  0  0  0
  9 10  1  0  0  0
  9 27  2  0  0  0
 10 11  2  0  0  0
 10 15  1  0  0  0
 11 12  1  0  0  0
 11 94  1  0  0  0
 12 13  2  0  0  0
 12 95  1  0  0  0
 13 14  1  0  0  0
 13 31  1  0  0  0
 14 15  2  0  0  0
 14 96  1  0  0  0
 15 97  1  0  0  0
 16 17  2  0  0  0
 16 21  1  0  0  0
 16 31  1  0  0  0
 17 18  1  0  0  0
 17 98  1  0  0  0
 18 19  2  0  0  0
 18 99  1  0  0  0
 19 20  1  0  0  0
 19 24  1  0  0  0
 20 21  2  0  0  0
 20100  1  0  0  0
 21 23  1  0  0  0
 22 28  1  0  0  0
 22 32  2  0  0  0
 26 27  1  0  0  0
 28101  1  0  0  0
 28102  1  0  0  0
 29103  1  0  0  0
 29104  1  0  0  0
 33 34  1  0  0  0
 33 66  1  0  0  0
 33 70  2  0  0  0
 34 36  1  0  0  0
 34 59  1  0  0  0
 34105  1  0  0  0
 35 44  2  0  0  0
 35 45  1  0  0  0
 35 68  1  0  0  0
 36 56  1  0  0  0
 36106  1  0  0  0
 37 39  1  0  0  0
 37 47  1  0  0  0
 37 66  1  0  0  0
 37107  1  0  0  0
 38 43  2  0  0  0
 38 46  1  0  0  0
 38 47  1  0  0  0
 39 64  1  0  0  0
 39 67  2  0  0  0
 40 52  1  0  0  0
 40 53  2  0  0  0
 40 58  1  0  0  0
 41108  1  0  0  0
 41109  1  0  0  0
 41110  1  0  0  0
 41 48  1  0  0  0
 42 43  1  0  0  0
 42 66  1  0  0  0
 42111  1  0  0  0
 42112  1  0  0  0
 43 44  1  0  0  0
 44113  1  0  0  0
 45 46  2  0  0  0
 45114  1  0  0  0
 46115  1  0  0  0
 47116  1  0  0  0
 47117  1  0  0  0
 48 56  1  0  0  0
 48 65  1  0  0  0
 48118  1  0  0  0
 49 50  1  0  0  0
 49 53  1  0  0  0
 49 64  1  0  0  0
 49119  1  0  0  0
 50 51  1  0  0  0
 50120  1  0  0  0
 50121  1  0  0  0
 51 52  1  0  0  0
 51122  1  0  0  0
 51123  1  0  0  0
 52124  1  0  0  0
 52125  1  0  0  0
 53 54  1  0  0  0
 54 55  2  0  0  0
 54126  1  0  0  0
 55 57  1  0  0  0
 55127  1  0  0  0
 56 69  2  0  0  0
 57 58  2  0  0  0
 57128  1  0  0  0
 58129  1  0  0  0
 59 60  1  0  0  0
 59 61  1  0  0  0
 59 62  1  0  0  0
 60130  1  0  0  0
 60131  1  0  0  0
 60132  1  0  0  0
 61133  1  0  0  0
 61134  1  0  0  0
 61135  1  0  0  0
 62136  1  0  0  0
 62137  1  0  0  0
 62138  1  0  0  0
 63 65  1  0  0  0
 63139  1  0  0  0
 63140  1  0  0  0
 63141  1  0  0  0
 64142  1  0  0  0
 65143  1  0  0  0
 68 81  1  0  0  0
 71 72  2  0  0  0
 71 73  1  0  0  0
 71144  1  0  0  0
 72 74  1  0  0  0
 72145  1  0  0  0
 73 77  1  0  0  0
 73 83  2  0  0  0
 74 82  1  0  0  0
 74 84  2  0  0  0
 75146  1  0  0  0
 75147  1  0  0  0
 75148  1  0  0  0
 75 82  1  0  0  0
 76 82  1  0  0  0
 76149  1  0  0  0
 76150  1  0  0  0
 76151  1  0  0  0
 77 78  1  0  0  0
 77152  1  0  0  0
 77153  1  0  0  0
 78 79  1  0  0  0
 78154  1  0  0  0
 78155  1  0  0  0
 79 80  1  0  0  0
 79156  1  0  0  0
 79157  1  0  0  0
 80 81  1  0  0  0
 80158  1  0  0  0
 80159  1  0  0  0
 81160  1  0  0  0
 81161  1  0  0  0
 83 84  1  0  0  0
M  ISO  4   1 100  68 101  81 101  82 100
M  END
> <chiral flag>
0

> <version>
0

> <s_m_source_file>
/data/baiqing/PycharmProjects/Reinvent-master-3.2/result/LINK_invent/BTK/process_docking_weight1_custom_sum_contain_oxygen_bond_distance_aromatic_linkinvent_7_9_3/rearranged_h_0075.sdf

> <i_m_source_file_index>
28

> <r_mmod_Potential_Energy-OPLS-2005>
304.856170654297

> <r_mmod_Stretch_Energy-OPLS-2005>
48.428955078125

> <r_mmod_Bend_Energy-OPLS-2005>
134.654296875

> <r_mmod_Torsional_Energy-OPLS-2005>
302.287414550781

> <r_mmod_Improper_Torsional_Energy-OPLS-2005>
18.4491729736328

> <r_mmod_Van_der_Waal_Energy-OPLS-2005>
174.519149780273

> <r_mmod_Electrostatic_Energy-OPLS-2005>
-280.575988769531

> <r_mmod_Solvation_Energy-OPLS-2005>
-188.860656738281

> <b_mmod_Minimization_Converged-OPLS-2005>
0

> <r_mmod_RMS_Derivative-OPLS-2005>
4.16732883453369

$$$$
29
                    3D
 Structure written by MMmdl.
147155  0  0  1  0            999 V2000
  -30.5732  -14.9538   20.3973 C   0  0  0  0  0  0
  -30.4269  -12.5847   19.5165 C   0  0  0  0  0  0
  -29.5225  -12.5271   18.2646 C   0  0  0  0  0  0
  -28.0537  -12.3180   18.6739 C   0  0  0  0  0  0
  -27.6240  -13.2586   19.8301 C   0  0  2  0  0  0
  -28.6597  -13.3180   20.9697 C   0  0  0  0  0  0
  -25.2455  -13.8251   20.5726 C   0  0  0  0  0  0
  -24.1767  -13.0456   20.9193 C   0  0  0  0  0  0
  -24.6394  -11.6944   20.8721 C   0  0  0  0  0  0
  -23.9084  -10.4305   21.0387 C   0  0  0  0  0  0
  -24.3632   -9.4222   21.9170 C   0  0  0  0  0  0
  -23.6303   -8.2258   22.0751 C   0  0  0  0  0  0
  -22.4284   -8.0290   21.3544 C   0  0  0  0  0  0
  -21.9922   -9.0261   20.4642 C   0  0  0  0  0  0
  -22.7252  -10.2138   20.3043 C   0  0  0  0  0  0
  -21.6862   -6.0737   22.5277 C   0  0  0  0  0  0
  -21.4021   -6.5641   23.8210 C   0  0  0  0  0  0
  -21.3662   -5.6794   24.9172 C   0  0  0  0  0  0
  -21.6044   -4.3056   24.7223 C   0  0  0  0  0  0
  -21.8820   -3.8148   23.4344 C   0  0  0  0  0  0
  -21.9197   -4.6964   22.3400 C   0  0  0  0  0  0
  -22.7790  -13.5213   21.1871 C   0  0  0  0  0  0
  -22.1664   -4.2150   21.0977 F   0  0  0  0  0  0
  -21.5628   -3.4539   25.7736 F   0  0  0  0  0  0
  -29.9438  -13.7064   20.3775 N   0  0  0  0  0  0
  -26.2866  -12.9496   20.3219 N   0  0  0  0  0  0
  -25.9327  -11.6611   20.5703 N   0  0  0  0  0  0
  -22.0461  -12.8185   22.0431 N   0  0  0  0  0  0
  -25.4189  -15.1981   20.4270 N   0  0  0  0  0  0
  -31.7846  -14.9344   20.1488 O   0  0  0  0  0  0
  -21.6650   -6.8883   21.4240 O   0  0  0  0  0  0
  -22.3458  -14.5518   20.6731 O   0  0  0  0  0  0
  -24.6445  -31.8441   23.1870 C   0  0  0  0  0  0
  -25.9214  -32.4694   23.8264 C   0  0  1  0  0  0
  -27.2111  -27.1245   20.1524 C   0  0  0  0  0  0
  -25.5957  -33.8502   24.2183 N   0  0  0  0  0  0
  -23.4476  -30.4635   21.5337 C   0  0  2  0  0  0
  -24.8957  -28.8883   20.1098 C   0  0  0  0  0  0
  -22.7569  -29.4552   22.4863 C   0  0  0  0  0  0
  -18.0306  -28.1397   22.8476 C   0  0  0  0  0  0
  -24.1495  -36.7261   23.2640 C   0  0  0  0  0  0
  -26.0043  -30.7150   21.3855 C   0  0  0  0  0  0
  -26.0746  -29.3245   20.7279 C   0  0  0  0  0  0
  -27.2339  -28.4592   20.7303 C   0  0  0  0  0  0
  -26.0057  -26.7936   19.4942 C   0  0  0  0  0  0
  -24.8748  -27.6370   19.4774 C   0  0  0  0  0  0
  -23.6733  -29.7921   20.1533 C   0  0  0  0  0  0
  -25.4126  -36.3035   24.0313 C   0  0  1  0  0  0
  -20.5919  -28.3729   23.1236 C   0  0  2  0  0  0
  -20.6795  -26.9433   22.5405 C   0  0  0  0  0  0
  -19.5768  -26.6383   21.5216 C   0  0  0  0  0  0
  -18.1948  -26.7936   22.1624 C   0  0  0  0  0  0
  -19.1560  -28.8880   23.2848 C   0  0  0  0  0  0
  -18.9476  -30.1477   23.8873 C   0  0  0  0  0  0
  -17.6473  -30.6594   24.0560 C   0  0  0  0  0  0
  -25.9076  -34.9410   23.5057 C   0  0  0  0  0  0
  -16.5364  -29.9085   23.6336 C   0  0  0  0  0  0
  -16.7290  -28.6505   23.0355 C   0  0  0  0  0  0
  -26.4526  -31.6562   25.0709 C   0  0  0  0  0  0
  -25.3702  -31.3756   26.1397 C   0  0  0  0  0  0
  -27.0391  -30.2955   24.6295 C   0  0  0  0  0  0
  -27.6054  -32.4327   25.7502 C   0  0  0  0  0  0
  -27.5579  -37.1789   24.8463 C   0  0  0  0  0  0
  -21.4262  -29.3057   22.3608 N   0  0  0  0  0  0
  -26.4290  -37.3747   23.9405 N   0  0  0  0  0  0
  -24.7191  -31.0288   22.0907 N   0  0  0  0  0  0
  -23.4210  -28.8101   23.3015 O   0  0  0  0  0  0
  -28.2548  -26.1275   20.2283 O   0  0  0  0  0  0
  -26.5662  -34.8909   22.4638 O   0  0  0  0  0  0
  -23.5561  -32.1325   23.7081 O   0  0  0  0  0  0
  -30.4606  -17.7148   20.3900 C   0  0  0  0  0  0
  -29.8647  -16.4338   20.4952 C   0  0  0  0  0  0
  -28.6101  -21.6234   20.2335 C   0  0  0  0  0  0
  -28.9711  -23.2786   20.4005 C   0  0  0  0  0  0
  -29.6894  -20.3659   20.5634 C   0  0  0  0  0  0
  -27.9608  -24.5984   20.0762 C   0  0  0  0  0  0
  -28.5055  -16.7987   20.6488 N   0  0  0  0  0  0
  -28.3136  -18.1244   20.6588 N   0  0  0  0  0  0
  -29.4975  -18.7855   20.4748 N   0  0  0  0  0  0
  -31.4666  -12.7090   19.2113 H   0  0  0  0  0  0
  -30.3934  -11.6404   20.0619 H   0  0  0  0  0  0
  -29.8448  -11.7246   17.6000 H   0  0  0  0  0  0
  -29.6199  -13.4548   17.6985 H   0  0  0  0  0  0
  -27.9455  -11.2779   18.9836 H   0  0  0  0  0  0
  -27.3964  -12.4494   17.8134 H   0  0  0  0  0  0
  -27.5800  -14.2556   19.3905 H   0  0  0  0  0  0
  -28.7384  -12.3593   21.4846 H   0  0  0  0  0  0
  -28.3563  -14.0505   21.7193 H   0  0  0  0  0  0
  -25.2778   -9.5702   22.4742 H   0  0  0  0  0  0
  -24.0017   -7.4653   22.7469 H   0  0  0  0  0  0
  -21.0859   -8.8773   19.8941 H   0  0  0  0  0  0
  -22.3708  -10.9672   19.6147 H   0  0  0  0  0  0
  -21.2014   -7.6149   23.9713 H   0  0  0  0  0  0
  -21.1484   -6.0523   25.9073 H   0  0  0  0  0  0
  -22.0597   -2.7611   23.2843 H   0  0  0  0  0  0
  -22.4109  -11.9850   22.4802 H   0  0  0  0  0  0
  -21.1070  -13.1178   22.2642 H   0  0  0  0  0  0
  -24.6715  -15.8641   20.5859 H   0  0  0  0  0  0
  -26.3123  -15.6431   20.2398 H   0  0  0  0  0  0
  -26.7279  -32.5298   23.0992 H   0  0  0  0  0  0
  -25.0081  -33.9615   25.0314 H   0  0  0  0  0  0
  -22.7514  -31.2905   21.3791 H   0  0  0  0  0  0
  -23.3762  -35.9588   23.3285 H   0  0  0  0  0  0
  -24.3575  -36.8914   22.2057 H   0  0  0  0  0  0
  -23.7251  -37.6453   23.6689 H   0  0  0  0  0  0
  -26.1575  -31.4678   20.6111 H   0  0  0  0  0  0
  -26.8759  -30.7675   22.0263 H   0  0  0  0  0  0
  -28.1315  -28.7874   21.2353 H   0  0  0  0  0  0
  -25.9009  -25.8374   19.0049 H   0  0  0  0  0  0
  -23.9741  -27.2983   18.9839 H   0  0  0  0  0  0
  -23.8102  -30.5669   19.3979 H   0  0  0  0  0  0
  -22.7871  -29.2355   19.8425 H   0  0  0  0  0  0
  -25.1316  -36.1857   25.0804 H   0  0  0  0  0  0
  -21.0010  -28.3320   24.1357 H   0  0  0  0  0  0
  -20.5695  -26.2345   23.3626 H   0  0  0  0  0  0
  -21.6662  -26.7446   22.1200 H   0  0  0  0  0  0
  -19.6935  -25.6286   21.1268 H   0  0  0  0  0  0
  -19.6703  -27.3177   20.6732 H   0  0  0  0  0  0
  -17.4220  -26.6680   21.4025 H   0  0  0  0  0  0
  -18.0344  -26.0082   22.9022 H   0  0  0  0  0  0
  -19.7950  -30.7301   24.2236 H   0  0  0  0  0  0
  -17.5022  -31.6269   24.5170 H   0  0  0  0  0  0
  -15.5363  -30.2977   23.7675 H   0  0  0  0  0  0
  -15.8691  -28.0817   22.7081 H   0  0  0  0  0  0
  -24.5894  -30.7089   25.7717 H   0  0  0  0  0  0
  -24.8871  -32.2936   26.4748 H   0  0  0  0  0  0
  -25.7973  -30.8979   27.0223 H   0  0  0  0  0  0
  -26.3004  -29.6675   24.1296 H   0  0  0  0  0  0
  -27.3996  -29.7255   25.4869 H   0  0  0  0  0  0
  -27.8915  -30.4189   23.9613 H   0  0  0  0  0  0
  -27.2648  -33.3651   26.2017 H   0  0  0  0  0  0
  -28.3901  -32.6849   25.0358 H   0  0  0  0  0  0
  -28.0679  -31.8491   26.5472 H   0  0  0  0  0  0
  -28.2585  -38.0096   24.7511 H   0  0  0  0  0  0
  -28.1089  -36.2625   24.6287 H   0  0  0  0  0  0
  -27.2294  -37.1433   25.8865 H   0  0  0  0  0  0
  -20.9474  -29.8769   21.6785 H   0  0  0  0  0  0
  -26.0157  -38.2817   24.1397 H   0  0  0  0  0  0
  -31.5132  -17.9382   20.2715 H   0  0  0  0  0  0
  -28.2757  -21.4807   19.2058 H   0  0  0  0  0  0
  -27.7228  -21.4357   20.8386 H   0  0  0  0  0  0
  -29.8712  -23.4466   19.8090 H   0  0  0  0  0  0
  -29.3002  -23.4078   21.4316 H   0  0  0  0  0  0
  -30.0358  -20.5420   21.5817 H   0  0  0  0  0  0
  -30.5674  -20.5732   19.9515 H   0  0  0  0  0  0
  -27.0562  -24.4208   20.6592 H   0  0  0  0  0  0
  -27.6572  -24.4687   19.0374 H   0  0  0  0  0  0
  1 25  1  0  0  0
  1 30  2  0  0  0
  1 72  1  0  0  0
  2  3  1  0  0  0
  2 25  1  0  0  0
  2 80  1  0  0  0
  2 81  1  0  0  0
  3  4  1  0  0  0
  3 82  1  0  0  0
  3 83  1  0  0  0
  4  5  1  0  0  0
  4 84  1  0  0  0
  4 85  1  0  0  0
  5  6  1  0  0  0
  5 26  1  0  0  0
  5 86  1  0  0  0
  6 25  1  0  0  0
  6 87  1  0  0  0
  6 88  1  0  0  0
  7  8  2  0  0  0
  7 26  1  0  0  0
  7 29  1  0  0  0
  8  9  1  0  0  0
  8 22  1  0  0  0
  9 10  1  0  0  0
  9 27  2  0  0  0
 10 11  2  0  0  0
 10 15  1  0  0  0
 11 12  1  0  0  0
 11 89  1  0  0  0
 12 13  2  0  0  0
 12 90  1  0  0  0
 13 14  1  0  0  0
 13 31  1  0  0  0
 14 15  2  0  0  0
 14 91  1  0  0  0
 15 92  1  0  0  0
 16 17  2  0  0  0
 16 21  1  0  0  0
 16 31  1  0  0  0
 17 18  1  0  0  0
 17 93  1  0  0  0
 18 19  2  0  0  0
 18 94  1  0  0  0
 19 20  1  0  0  0
 19 24  1  0  0  0
 20 21  2  0  0  0
 20 95  1  0  0  0
 21 23  1  0  0  0
 22 28  1  0  0  0
 22 32  2  0  0  0
 26 27  1  0  0  0
 28 96  1  0  0  0
 28 97  1  0  0  0
 29 98  1  0  0  0
 29 99  1  0  0  0
 33 34  1  0  0  0
 33 66  1  0  0  0
 33 70  2  0  0  0
 34 36  1  0  0  0
 34 59  1  0  0  0
 34100  1  0  0  0
 35 44  2  0  0  0
 35 45  1  0  0  0
 35 68  1  0  0  0
 36 56  1  0  0  0
 36101  1  0  0  0
 37 39  1  0  0  0
 37 47  1  0  0  0
 37 66  1  0  0  0
 37102  1  0  0  0
 38 43  2  0  0  0
 38 46  1  0  0  0
 38 47  1  0  0  0
 39 64  1  0  0  0
 39 67  2  0  0  0
 40 52  1  0  0  0
 40 53  2  0  0  0
 40 58  1  0  0  0
 41103  1  0  0  0
 41104  1  0  0  0
 41105  1  0  0  0
 41 48  1  0  0  0
 42 43  1  0  0  0
 42 66  1  0  0  0
 42106  1  0  0  0
 42107  1  0  0  0
 43 44  1  0  0  0
 44108  1  0  0  0
 45 46  2  0  0  0
 45109  1  0  0  0
 46110  1  0  0  0
 47111  1  0  0  0
 47112  1  0  0  0
 48 56  1  0  0  0
 48 65  1  0  0  0
 48113  1  0  0  0
 49 50  1  0  0  0
 49 53  1  0  0  0
 49 64  1  0  0  0
 49114  1  0  0  0
 50 51  1  0  0  0
 50115  1  0  0  0
 50116  1  0  0  0
 51 52  1  0  0  0
 51117  1  0  0  0
 51118  1  0  0  0
 52119  1  0  0  0
 52120  1  0  0  0
 53 54  1  0  0  0
 54 55  2  0  0  0
 54121  1  0  0  0
 55 57  1  0  0  0
 55122  1  0  0  0
 56 69  2  0  0  0
 57 58  2  0  0  0
 57123  1  0  0  0
 58124  1  0  0  0
 59 60  1  0  0  0
 59 61  1  0  0  0
 59 62  1  0  0  0
 60125  1  0  0  0
 60126  1  0  0  0
 60127  1  0  0  0
 61128  1  0  0  0
 61129  1  0  0  0
 61130  1  0  0  0
 62131  1  0  0  0
 62132  1  0  0  0
 62133  1  0  0  0
 63 65  1  0  0  0
 63134  1  0  0  0
 63135  1  0  0  0
 63136  1  0  0  0
 64137  1  0  0  0
 65138  1  0  0  0
 68 76  1  0  0  0
 71 72  2  0  0  0
 71 79  1  0  0  0
 71139  1  0  0  0
 72 77  1  0  0  0
 73 74  1  0  0  0
 73 75  1  0  0  0
 73140  1  0  0  0
 73141  1  0  0  0
 74 76  1  0  0  0
 74142  1  0  0  0
 74143  1  0  0  0
 75 79  1  0  0  0
 75144  1  0  0  0
 75145  1  0  0  0
 76146  1  0  0  0
 76147  1  0  0  0
 77 78  2  0  0  0
 78 79  1  0  0  0
M  ISO  4   1 100  68 101  72 100  76 101
M  END
> <chiral flag>
0

> <version>
0

> <s_m_source_file>
/data/baiqing/PycharmProjects/Reinvent-master-3.2/result/LINK_invent/BTK/process_docking_weight1_custom_sum_contain_oxygen_bond_distance_aromatic_linkinvent_7_9_3/rearranged_h_0075.sdf

> <i_m_source_file_index>
29

> <r_mmod_Potential_Energy-OPLS-2005>
601.64453125

> <r_mmod_Stretch_Energy-OPLS-2005>
272.722290039062

> <r_mmod_Bend_Energy-OPLS-2005>
276.781799316406

> <r_mmod_Torsional_Energy-OPLS-2005>
203.838195800781

> <r_mmod_Improper_Torsional_Energy-OPLS-2005>
4.65324544906616

> <r_mmod_Van_der_Waal_Energy-OPLS-2005>
108.008934020996

> <r_mmod_Electrostatic_Energy-OPLS-2005>
-269.521118164062

> <r_mmod_Solvation_Energy-OPLS-2005>
-194.320220947266

> <b_mmod_Minimization_Converged-OPLS-2005>
0

> <r_mmod_RMS_Derivative-OPLS-2005>
0.564840972423553

$$$$
30
                    3D
 Structure written by MMmdl.
159167  0  0  1  0            999 V2000
  -30.6125  -14.7125   20.4555 C   0  0  0  0  0  0
  -30.4257  -12.4180   19.4978 C   0  0  0  0  0  0
  -29.5210  -12.5183   18.2502 C   0  0  0  0  0  0
  -28.0423  -12.3409   18.6454 C   0  0  0  0  0  0
  -27.6442  -13.2302   19.8529 C   0  0  2  0  0  0
  -28.6804  -13.1505   20.9949 C   0  0  0  0  0  0
  -25.2508  -13.8181   20.5661 C   0  0  0  0  0  0
  -24.1808  -13.0434   20.9182 C   0  0  0  0  0  0
  -24.6400  -11.6902   20.8703 C   0  0  0  0  0  0
  -23.9085  -10.4276   21.0379 C   0  0  0  0  0  0
  -24.3632   -9.4181   21.9160 C   0  0  0  0  0  0
  -23.6296   -8.2224   22.0746 C   0  0  0  0  0  0
  -22.4268   -8.0273   21.3553 C   0  0  0  0  0  0
  -21.9907   -9.0242   20.4646 C   0  0  0  0  0  0
  -22.7243  -10.2115   20.3041 C   0  0  0  0  0  0
  -21.6847   -6.0720   22.5274 C   0  0  0  0  0  0
  -21.3992   -6.5623   23.8202 C   0  0  0  0  0  0
  -21.3679   -5.6792   24.9177 C   0  0  0  0  0  0
  -21.6063   -4.3058   24.7240 C   0  0  0  0  0  0
  -21.8823   -3.8143   23.4362 C   0  0  0  0  0  0
  -21.9180   -4.6948   22.3406 C   0  0  0  0  0  0
  -22.7822  -13.5182   21.1891 C   0  0  0  0  0  0
  -22.1656   -4.2125   21.0990 F   0  0  0  0  0  0
  -21.5652   -3.4544   25.7759 F   0  0  0  0  0  0
  -29.9967  -13.4798   20.4361 N   0  0  0  0  0  0
  -26.2935  -12.9388   20.3232 N   0  0  0  0  0  0
  -25.9322  -11.6524   20.5695 N   0  0  0  0  0  0
  -22.0523  -12.8140   22.0458 N   0  0  0  0  0  0
  -25.4247  -15.1907   20.4109 N   0  0  0  0  0  0
  -31.7960  -14.7826   20.1011 O   0  0  0  0  0  0
  -21.6644   -6.8861   21.4240 O   0  0  0  0  0  0
  -22.3467  -14.5496   20.6780 O   0  0  0  0  0  0
  -24.6305  -31.8564   23.2027 C   0  0  0  0  0  0
  -25.9144  -32.4756   23.8347 C   0  0  1  0  0  0
  -27.2165  -27.2848   20.1409 C   0  0  0  0  0  0
  -25.5955  -33.8561   24.2279 N   0  0  0  0  0  0
  -23.4226  -30.4840   21.5429 C   0  0  2  0  0  0
  -24.8695  -28.9332   20.1136 C   0  0  0  0  0  0
  -22.7468  -29.4637   22.4903 C   0  0  0  0  0  0
  -18.0303  -28.1385   22.8472 C   0  0  0  0  0  0
  -24.1487  -36.7294   23.2635 C   0  0  0  0  0  0
  -25.9663  -30.7828   21.3739 C   0  0  0  0  0  0
  -26.0409  -29.4059   20.7200 C   0  0  0  0  0  0
  -27.2192  -28.5968   20.7179 C   0  0  0  0  0  0
  -26.0257  -26.8754   19.5009 C   0  0  0  0  0  0
  -24.8663  -27.6752   19.4927 C   0  0  0  0  0  0
  -23.6401  -29.8222   20.1575 C   0  0  0  0  0  0
  -25.4109  -36.3059   24.0317 C   0  0  1  0  0  0
  -20.5900  -28.3705   23.1250 C   0  0  2  0  0  0
  -20.6813  -26.9428   22.5391 C   0  0  0  0  0  0
  -19.5792  -26.6384   21.5192 C   0  0  0  0  0  0
  -18.1967  -26.7926   22.1607 C   0  0  0  0  0  0
  -19.1552  -28.8856   23.2853 C   0  0  0  0  0  0
  -18.9474  -30.1454   23.8871 C   0  0  0  0  0  0
  -17.6477  -30.6582   24.0559 C   0  0  0  0  0  0
  -25.9061  -34.9435   23.5092 C   0  0  0  0  0  0
  -16.5365  -29.9073   23.6352 C   0  0  0  0  0  0
  -16.7291  -28.6503   23.0345 C   0  0  0  0  0  0
  -26.4539  -31.6552   25.0715 C   0  0  0  0  0  0
  -25.3793  -31.3674   26.1463 C   0  0  0  0  0  0
  -27.0387  -30.2960   24.6174 C   0  0  0  0  0  0
  -27.6082  -32.4292   25.7499 C   0  0  0  0  0  0
  -27.5563  -37.1805   24.8464 C   0  0  0  0  0  0
  -21.4178  -29.3063   22.3623 N   0  0  0  0  0  0
  -26.4274  -37.3768   23.9414 N   0  0  0  0  0  0
  -24.6915  -31.0574   22.0968 N   0  0  0  0  0  0
  -23.4166  -28.8195   23.3015 O   0  0  0  0  0  0
  -28.3151  -26.4035   20.1715 O   0  0  0  0  0  0
  -26.5623  -34.8908   22.4656 O   0  0  0  0  0  0
  -23.5463  -32.1364   23.7347 O   0  0  0  0  0  0
  -31.3993  -18.6062   23.8141 C   0  0  0  0  0  0
  -31.6438  -17.2510   23.6229 C   0  0  0  0  0  0
  -30.5990  -19.3019   22.8928 C   0  0  0  0  0  0
  -30.0903  -18.6404   21.7295 C   0  0  0  0  0  0
  -30.3784  -17.1949   21.6455 C   0  0  0  0  0  0
  -30.2500  -20.7296   23.2750 C   0  0  0  0  0  0
  -29.1766  -19.4894   20.7464 C   0  0  0  0  0  0
  -29.8137  -16.1052   20.6533 C   0  0  0  0  0  0
  -29.5628  -20.9975   20.2714 C   0  0  0  0  0  0
  -28.6476  -22.2744   20.6587 C   0  0  0  0  0  0
  -28.9921  -23.7624   20.1274 C   0  0  0  0  0  0
  -28.0770  -24.9935   20.6216 C   0  0  0  0  0  0
  -31.1294  -16.5799   22.5888 N   0  0  0  0  0  0
  -31.4762  -12.5026   19.2154 H   0  0  0  0  0  0
  -30.3251  -11.4354   19.9641 H   0  0  0  0  0  0
  -29.8071  -11.7674   17.5128 H   0  0  0  0  0  0
  -29.6644  -13.4904   17.7741 H   0  0  0  0  0  0
  -27.8915  -11.2892   18.8922 H   0  0  0  0  0  0
  -27.3961  -12.5482   17.7914 H   0  0  0  0  0  0
  -27.6452  -14.2564   19.4860 H   0  0  0  0  0  0
  -28.6894  -12.1531   21.4357 H   0  0  0  0  0  0
  -28.4158  -13.8293   21.8059 H   0  0  0  0  0  0
  -25.2785   -9.5644   22.4728 H   0  0  0  0  0  0
  -24.0005   -7.4602   22.7457 H   0  0  0  0  0  0
  -21.0839   -8.8763   19.8946 H   0  0  0  0  0  0
  -22.3701  -10.9658   19.6152 H   0  0  0  0  0  0
  -21.1961   -7.6130   23.9692 H   0  0  0  0  0  0
  -21.1514   -6.0532   25.9079 H   0  0  0  0  0  0
  -22.0586   -2.7596   23.2878 H   0  0  0  0  0  0
  -22.4188  -11.9761   22.4753 H   0  0  0  0  0  0
  -21.1157  -13.1140   22.2805 H   0  0  0  0  0  0
  -24.6641  -15.8527   20.5208 H   0  0  0  0  0  0
  -26.2831  -15.6255   20.0963 H   0  0  0  0  0  0
  -26.7201  -32.5424   23.1082 H   0  0  0  0  0  0
  -25.0094  -33.9708   25.0413 H   0  0  0  0  0  0
  -22.7212  -31.3092   21.4012 H   0  0  0  0  0  0
  -23.3731  -35.9648   23.3294 H   0  0  0  0  0  0
  -24.3571  -36.8921   22.2053 H   0  0  0  0  0  0
  -23.7280  -37.6505   23.6668 H   0  0  0  0  0  0
  -26.0992  -31.5459   20.6052 H   0  0  0  0  0  0
  -26.8449  -30.8311   22.0059 H   0  0  0  0  0  0
  -28.1174  -28.9571   21.1971 H   0  0  0  0  0  0
  -25.9763  -25.9145   19.0085 H   0  0  0  0  0  0
  -23.9697  -27.3107   19.0109 H   0  0  0  0  0  0
  -23.7719  -30.6044   19.4098 H   0  0  0  0  0  0
  -22.7556  -29.2642   19.8451 H   0  0  0  0  0  0
  -25.1290  -36.1887   25.0806 H   0  0  0  0  0  0
  -20.9993  -28.3293   24.1366 H   0  0  0  0  0  0
  -20.5760  -26.2309   23.3595 H   0  0  0  0  0  0
  -21.6678  -26.7497   22.1163 H   0  0  0  0  0  0
  -19.6965  -25.6289   21.1242 H   0  0  0  0  0  0
  -19.6737  -27.3177   20.6702 H   0  0  0  0  0  0
  -17.4239  -26.6646   21.4005 H   0  0  0  0  0  0
  -18.0382  -26.0074   22.9017 H   0  0  0  0  0  0
  -19.7946  -30.7279   24.2217 H   0  0  0  0  0  0
  -17.5034  -31.6250   24.5174 H   0  0  0  0  0  0
  -15.5370  -30.2970   23.7691 H   0  0  0  0  0  0
  -15.8689  -28.0827   22.7058 H   0  0  0  0  0  0
  -24.5963  -30.7024   25.7812 H   0  0  0  0  0  0
  -24.9006  -32.2838   26.4910 H   0  0  0  0  0  0
  -25.8151  -30.8851   27.0222 H   0  0  0  0  0  0
  -26.2977  -29.6739   24.1161 H   0  0  0  0  0  0
  -27.4048  -29.7199   25.4689 H   0  0  0  0  0  0
  -27.8867  -30.4241   23.9447 H   0  0  0  0  0  0
  -27.2689  -33.3605   26.2039 H   0  0  0  0  0  0
  -28.3933  -32.6814   25.0357 H   0  0  0  0  0  0
  -28.0722  -31.8448   26.5453 H   0  0  0  0  0  0
  -28.2576  -38.0103   24.7475 H   0  0  0  0  0  0
  -28.1050  -36.2623   24.6302 H   0  0  0  0  0  0
  -27.2286  -37.1478   25.8870 H   0  0  0  0  0  0
  -20.9365  -29.8718   21.6776 H   0  0  0  0  0  0
  -26.0131  -38.2824   24.1427 H   0  0  0  0  0  0
  -31.8008  -19.0931   24.6934 H   0  0  0  0  0  0
  -32.2206  -16.6772   24.3337 H   0  0  0  0  0  0
  -30.5468  -20.9434   24.3012 H   0  0  0  0  0  0
  -29.1718  -20.8798   23.2371 H   0  0  0  0  0  0
  -30.7612  -21.4621   22.6537 H   0  0  0  0  0  0
  -28.1837  -19.5221   21.1945 H   0  0  0  0  0  0
  -29.0454  -18.8863   19.8472 H   0  0  0  0  0  0
  -29.7296  -16.5692   19.6708 H   0  0  0  0  0  0
  -28.7903  -15.9020   20.9614 H   0  0  0  0  0  0
  -29.5491  -20.9645   19.1804 H   0  0  0  0  0  0
  -30.6119  -21.2005   20.4846 H   0  0  0  0  0  0
  -28.6036  -22.3499   21.7408 H   0  0  0  0  0  0
  -27.6241  -22.0395   20.3615 H   0  0  0  0  0  0
  -28.9772  -23.7470   19.0374 H   0  0  0  0  0  0
  -30.0252  -23.9851   20.3964 H   0  0  0  0  0  0
  -28.1597  -25.0214   21.7080 H   0  0  0  0  0  0
  -27.0421  -24.7028   20.4546 H   0  0  0  0  0  0
  1 25  1  0  0  0
  1 30  2  0  0  0
  1 78  1  0  0  0
  2  3  1  0  0  0
  2 25  1  0  0  0
  2 84  1  0  0  0
  2 85  1  0  0  0
  3  4  1  0  0  0
  3 86  1  0  0  0
  3 87  1  0  0  0
  4  5  1  0  0  0
  4 88  1  0  0  0
  4 89  1  0  0  0
  5  6  1  0  0  0
  5 26  1  0  0  0
  5 90  1  0  0  0
  6 25  1  0  0  0
  6 91  1  0  0  0
  6 92  1  0  0  0
  7  8  2  0  0  0
  7 26  1  0  0  0
  7 29  1  0  0  0
  8  9  1  0  0  0
  8 22  1  0  0  0
  9 10  1  0  0  0
  9 27  2  0  0  0
 10 11  2  0  0  0
 10 15  1  0  0  0
 11 12  1  0  0  0
 11 93  1  0  0  0
 12 13  2  0  0  0
 12 94  1  0  0  0
 13 14  1  0  0  0
 13 31  1  0  0  0
 14 15  2  0  0  0
 14 95  1  0  0  0
 15 96  1  0  0  0
 16 17  2  0  0  0
 16 21  1  0  0  0
 16 31  1  0  0  0
 17 18  1  0  0  0
 17 97  1  0  0  0
 18 19  2  0  0  0
 18 98  1  0  0  0
 19 20  1  0  0  0
 19 24  1  0  0  0
 20 21  2  0  0  0
 20 99  1  0  0  0
 21 23  1  0  0  0
 22 28  1  0  0  0
 22 32  2  0  0  0
 26 27  1  0  0  0
 28100  1  0  0  0
 28101  1  0  0  0
 29102  1  0  0  0
 29103  1  0  0  0
 33 34  1  0  0  0
 33 66  1  0  0  0
 33 70  2  0  0  0
 34 36  1  0  0  0
 34 59  1  0  0  0
 34104  1  0  0  0
 35 44  2  0  0  0
 35 45  1  0  0  0
 35 68  1  0  0  0
 36 56  1  0  0  0
 36105  1  0  0  0
 37 39  1  0  0  0
 37 47  1  0  0  0
 37 66  1  0  0  0
 37106  1  0  0  0
 38 43  2  0  0  0
 38 46  1  0  0  0
 38 47  1  0  0  0
 39 64  1  0  0  0
 39 67  2  0  0  0
 40 52  1  0  0  0
 40 53  2  0  0  0
 40 58  1  0  0  0
 41107  1  0  0  0
 41108  1  0  0  0
 41109  1  0  0  0
 41 48  1  0  0  0
 42 43  1  0  0  0
 42 66  1  0  0  0
 42110  1  0  0  0
 42111  1  0  0  0
 43 44  1  0  0  0
 44112  1  0  0  0
 45 46  2  0  0  0
 45113  1  0  0  0
 46114  1  0  0  0
 47115  1  0  0  0
 47116  1  0  0  0
 48 56  1  0  0  0
 48 65  1  0  0  0
 48117  1  0  0  0
 49 50  1  0  0  0
 49 53  1  0  0  0
 49 64  1  0  0  0
 49118  1  0  0  0
 50 51  1  0  0  0
 50119  1  0  0  0
 50120  1  0  0  0
 51 52  1  0  0  0
 51121  1  0  0  0
 51122  1  0  0  0
 52123  1  0  0  0
 52124  1  0  0  0
 53 54  1  0  0  0
 54 55  2  0  0  0
 54125  1  0  0  0
 55 57  1  0  0  0
 55126  1  0  0  0
 56 69  2  0  0  0
 57 58  2  0  0  0
 57127  1  0  0  0
 58128  1  0  0  0
 59 60  1  0  0  0
 59 61  1  0  0  0
 59 62  1  0  0  0
 60129  1  0  0  0
 60130  1  0  0  0
 60131  1  0  0  0
 61132  1  0  0  0
 61133  1  0  0  0
 61134  1  0  0  0
 62135  1  0  0  0
 62136  1  0  0  0
 62137  1  0  0  0
 63 65  1  0  0  0
 63138  1  0  0  0
 63139  1  0  0  0
 63140  1  0  0  0
 64141  1  0  0  0
 65142  1  0  0  0
 68 82  1  0  0  0
 71 72  2  0  0  0
 71 73  1  0  0  0
 71143  1  0  0  0
 72 83  1  0  0  0
 72144  1  0  0  0
 73 74  2  0  0  0
 73 76  1  0  0  0
 74 75  1  0  0  0
 74 77  1  0  0  0
 75 78  1  0  0  0
 75 83  2  0  0  0
 76145  1  0  0  0
 76146  1  0  0  0
 76147  1  0  0  0
 77 79  1  0  0  0
 77148  1  0  0  0
 77149  1  0  0  0
 78150  1  0  0  0
 78151  1  0  0  0
 79 80  1  0  0  0
 79152  1  0  0  0
 79153  1  0  0  0
 80 81  1  0  0  0
 80154  1  0  0  0
 80155  1  0  0  0
 81 82  1  0  0  0
 81156  1  0  0  0
 81157  1  0  0  0
 82158  1  0  0  0
 82159  1  0  0  0
M  ISO  4   1 100  68 101  78 100  82 101
M  END
> <chiral flag>
0

> <version>
0

> <s_m_source_file>
/data/baiqing/PycharmProjects/Reinvent-master-3.2/result/LINK_invent/BTK/process_docking_weight1_custom_sum_contain_oxygen_bond_distance_aromatic_linkinvent_7_9_3/rearranged_h_0075.sdf

> <i_m_source_file_index>
30

> <r_mmod_Potential_Energy-OPLS-2005>
146.663726806641

> <r_mmod_Stretch_Energy-OPLS-2005>
128.02473449707

> <r_mmod_Bend_Energy-OPLS-2005>
179.588851928711

> <r_mmod_Torsional_Energy-OPLS-2005>
207.018569946289

> <r_mmod_Improper_Torsional_Energy-OPLS-2005>
6.45770692825317

> <r_mmod_Van_der_Waal_Energy-OPLS-2005>
148.603866577148

> <r_mmod_Electrostatic_Energy-OPLS-2005>
-377.659057617188

> <r_mmod_Solvation_Energy-OPLS-2005>
-215.873657226562

> <b_mmod_Minimization_Converged-OPLS-2005>
0

> <r_mmod_RMS_Derivative-OPLS-2005>
3.03538823127747

$$$$
31
                    3D
 Structure written by MMmdl.
166174  0  0  1  0            999 V2000
  -30.7400  -14.4113   20.6046 C   0  0  0  0  0  0
  -30.4224  -12.2855   19.4053 C   0  0  0  0  0  0
  -29.4958  -12.5283   18.1970 C   0  0  0  0  0  0
  -28.0165  -12.3763   18.6054 C   0  0  0  0  0  0
  -27.6674  -13.1926   19.8747 C   0  0  2  0  0  0
  -28.7118  -12.9575   20.9917 C   0  0  0  0  0  0
  -25.2618  -13.8132   20.5592 C   0  0  0  0  0  0
  -24.1868  -13.0426   20.9112 C   0  0  0  0  0  0
  -24.6402  -11.6894   20.8698 C   0  0  0  0  0  0
  -23.9045  -10.4300   21.0387 C   0  0  0  0  0  0
  -24.3603   -9.4240   21.9174 C   0  0  0  0  0  0
  -23.6284   -8.2283   22.0770 C   0  0  0  0  0  0
  -22.4269   -8.0303   21.3564 C   0  0  0  0  0  0
  -21.9876   -9.0257   20.4661 C   0  0  0  0  0  0
  -22.7199  -10.2138   20.3052 C   0  0  0  0  0  0
  -21.6864   -6.0743   22.5289 C   0  0  0  0  0  0
  -21.4021   -6.5648   23.8219 C   0  0  0  0  0  0
  -21.3652   -5.6797   24.9179 C   0  0  0  0  0  0
  -21.6048   -4.3060   24.7240 C   0  0  0  0  0  0
  -21.8819   -3.8152   23.4359 C   0  0  0  0  0  0
  -21.9198   -4.6971   22.3412 C   0  0  0  0  0  0
  -22.7898  -13.5251   21.1757 C   0  0  0  0  0  0
  -22.1661   -4.2163   21.0990 F   0  0  0  0  0  0
  -21.5620   -3.4537   25.7745 F   0  0  0  0  0  0
  -30.0492  -13.2523   20.4472 N   0  0  0  0  0  0
  -26.3048  -12.9258   20.3327 N   0  0  0  0  0  0
  -25.9335  -11.6439   20.5743 N   0  0  0  0  0  0
  -22.0525  -12.8292   22.0324 N   0  0  0  0  0  0
  -25.4307  -15.1846   20.3956 N   0  0  0  0  0  0
  -31.8516  -14.6095   20.1101 O   0  0  0  0  0  0
  -21.6664   -6.8882   21.4250 O   0  0  0  0  0  0
  -22.3586  -14.5537   20.6559 O   0  0  0  0  0  0
  -24.6118  -31.8701   23.2135 C   0  0  0  0  0  0
  -25.9034  -32.4831   23.8412 C   0  0  1  0  0  0
  -27.2156  -27.4448   20.1051 C   0  0  0  0  0  0
  -25.5916  -33.8625   24.2341 N   0  0  0  0  0  0
  -23.3971  -30.4968   21.5517 C   0  0  2  0  0  0
  -24.8425  -28.9749   20.1048 C   0  0  0  0  0  0
  -22.7399  -29.4662   22.4973 C   0  0  0  0  0  0
  -18.0277  -28.1385   22.8487 C   0  0  0  0  0  0
  -24.1491  -36.7305   23.2639 C   0  0  0  0  0  0
  -25.9247  -30.8438   21.3634 C   0  0  0  0  0  0
  -26.0009  -29.4804   20.7074 C   0  0  0  0  0  0
  -27.1932  -28.7228   20.7055 C   0  0  0  0  0  0
  -26.0483  -26.9623   19.4743 C   0  0  0  0  0  0
  -24.8619  -27.7162   19.4796 C   0  0  0  0  0  0
  -23.6026  -29.8364   20.1628 C   0  0  0  0  0  0
  -25.4105  -36.3098   24.0337 C   0  0  1  0  0  0
  -20.5869  -28.3663   23.1326 C   0  0  2  0  0  0
  -20.6778  -26.9400   22.5425 C   0  0  0  0  0  0
  -19.5758  -26.6387   21.5223 C   0  0  0  0  0  0
  -18.1929  -26.7932   22.1621 C   0  0  0  0  0  0
  -19.1528  -28.8834   23.2913 C   0  0  0  0  0  0
  -18.9455  -30.1449   23.8916 C   0  0  0  0  0  0
  -17.6456  -30.6587   24.0564 C   0  0  0  0  0  0
  -25.9034  -34.9471   23.5125 C   0  0  0  0  0  0
  -16.5344  -29.9090   23.6327 C   0  0  0  0  0  0
  -16.7267  -28.6515   23.0326 C   0  0  0  0  0  0
  -26.4476  -31.6595   25.0722 C   0  0  0  0  0  0
  -25.3767  -31.3679   26.1487 C   0  0  0  0  0  0
  -27.0307  -30.3048   24.6063 C   0  0  0  0  0  0
  -27.6050  -32.4314   25.7488 C   0  0  0  0  0  0
  -27.5576  -37.1802   24.8461 C   0  0  0  0  0  0
  -21.4133  -29.3034   22.3731 N   0  0  0  0  0  0
  -26.4285  -37.3783   23.9406 N   0  0  0  0  0  0
  -24.6625  -31.0831   22.1013 N   0  0  0  0  0  0
  -23.4189  -28.8212   23.3006 O   0  0  0  0  0  0
  -28.3613  -26.6814   20.1541 O   0  0  0  0  0  0
  -26.5585  -34.8910   22.4682 O   0  0  0  0  0  0
  -23.5330  -32.1431   23.7554 O   0  0  0  0  0  0
  -29.1617  -20.0383   20.6654 C   0  0  0  0  0  0
  -30.1547  -19.1413   20.1906 C   0  0  0  0  0  0
  -31.5956  -20.9405   19.9181 C   0  0  0  0  0  0
  -30.5788  -21.8351   20.3490 C   0  0  0  0  0  0
  -32.9639  -21.4078   19.4587 C   0  0  0  0  0  0
  -30.5855  -17.1529   18.6943 C   0  0  0  0  0  0
  -28.3878  -17.3506   19.8134 C   0  0  0  0  0  0
  -30.7781  -23.3497   20.4281 C   0  0  0  0  0  0
  -30.1090  -24.1594   19.2889 C   0  0  0  0  0  0
  -28.5820  -24.3486   19.4121 C   0  0  0  0  0  0
  -30.4393  -16.8197   21.2213 C   0  0  0  0  0  0
  -28.1606  -25.3103   20.5379 C   0  0  0  0  0  0
  -29.8972  -17.6266   20.0005 C   0  0  0  0  0  0
  -29.3693  -21.3750   20.7488 N   0  0  0  0  0  0
  -31.3902  -19.6010   19.8665 N   0  0  0  0  0  0
  -30.0631  -15.3968   21.2090 N   0  0  0  0  0  0
  -31.4679  -12.3717   19.1058 H   0  0  0  0  0  0
  -30.3042  -11.2663   19.7794 H   0  0  0  0  0  0
  -29.7366  -11.8379   17.3871 H   0  0  0  0  0  0
  -29.6695  -13.5319   17.8033 H   0  0  0  0  0  0
  -27.8247  -11.3165   18.7755 H   0  0  0  0  0  0
  -27.3657  -12.6758   17.7830 H   0  0  0  0  0  0
  -27.7086  -14.2379   19.5848 H   0  0  0  0  0  0
  -28.6867  -11.9172   21.3204 H   0  0  0  0  0  0
  -28.4749  -13.5469   21.8763 H   0  0  0  0  0  0
  -25.2755   -9.5741   22.4737 H   0  0  0  0  0  0
  -24.0006   -7.4687   22.7486 H   0  0  0  0  0  0
  -21.0801   -8.8756   19.8973 H   0  0  0  0  0  0
  -22.3636  -10.9662   19.6163 H   0  0  0  0  0  0
  -21.2045   -7.6161   23.9725 H   0  0  0  0  0  0
  -21.1428   -6.0530   25.9068 H   0  0  0  0  0  0
  -22.0598   -2.7616   23.2862 H   0  0  0  0  0  0
  -22.4094  -11.9965   22.4758 H   0  0  0  0  0  0
  -21.1151  -13.1365   22.2492 H   0  0  0  0  0  0
  -24.6545  -15.8330   20.4816 H   0  0  0  0  0  0
  -26.2840  -15.6264   20.0786 H   0  0  0  0  0  0
  -26.7098  -32.5549   23.1176 H   0  0  0  0  0  0
  -25.0101  -33.9802   25.0509 H   0  0  0  0  0  0
  -22.6837  -31.3128   21.4189 H   0  0  0  0  0  0
  -23.3750  -35.9648   23.3303 H   0  0  0  0  0  0
  -24.3583  -36.8918   22.2055 H   0  0  0  0  0  0
  -23.7256  -37.6512   23.6651 H   0  0  0  0  0  0
  -26.0364  -31.6126   20.5982 H   0  0  0  0  0  0
  -26.8135  -30.8934   21.9804 H   0  0  0  0  0  0
  -28.0821  -29.1042   21.1883 H   0  0  0  0  0  0
  -26.0464  -25.9991   18.9839 H   0  0  0  0  0  0
  -23.9751  -27.3270   19.0000 H   0  0  0  0  0  0
  -23.7042  -30.6151   19.4064 H   0  0  0  0  0  0
  -22.7280  -29.2538   19.8675 H   0  0  0  0  0  0
  -25.1286  -36.1953   25.0833 H   0  0  0  0  0  0
  -20.9957  -28.3231   24.1447 H   0  0  0  0  0  0
  -20.5701  -26.2261   23.3608 H   0  0  0  0  0  0
  -21.6642  -26.7464   22.1196 H   0  0  0  0  0  0
  -19.6919  -25.6305   21.1240 H   0  0  0  0  0  0
  -19.6712  -27.3211   20.6766 H   0  0  0  0  0  0
  -17.4207  -26.6696   21.4010 H   0  0  0  0  0  0
  -18.0314  -26.0073   22.9010 H   0  0  0  0  0  0
  -19.7933  -30.7271   24.2274 H   0  0  0  0  0  0
  -17.5007  -31.6265   24.5177 H   0  0  0  0  0  0
  -15.5343  -30.2991   23.7646 H   0  0  0  0  0  0
  -15.8666  -28.0848   22.7002 H   0  0  0  0  0  0
  -24.5954  -30.7006   25.7829 H   0  0  0  0  0  0
  -24.8954  -32.2831   26.4939 H   0  0  0  0  0  0
  -25.8153  -30.8853   27.0232 H   0  0  0  0  0  0
  -26.2836  -29.6813   24.1137 H   0  0  0  0  0  0
  -27.4127  -29.7263   25.4484 H   0  0  0  0  0  0
  -27.8645  -30.4381   23.9168 H   0  0  0  0  0  0
  -27.2658  -33.3599   26.2086 H   0  0  0  0  0  0
  -28.3850  -32.6896   25.0316 H   0  0  0  0  0  0
  -28.0730  -31.8435   26.5394 H   0  0  0  0  0  0
  -28.2575  -38.0112   24.7498 H   0  0  0  0  0  0
  -28.1085  -36.2637   24.6285 H   0  0  0  0  0  0
  -27.2293  -37.1447   25.8864 H   0  0  0  0  0  0
  -20.9276  -29.8750   21.6965 H   0  0  0  0  0  0
  -26.0171  -38.2859   24.1413 H   0  0  0  0  0  0
  -28.1811  -19.7015   20.9651 H   0  0  0  0  0  0
  -33.4731  -21.9495   20.2558 H   0  0  0  0  0  0
  -32.8707  -22.0672   18.5947 H   0  0  0  0  0  0
  -33.5962  -20.5654   19.1737 H   0  0  0  0  0  0
  -30.3064  -17.7727   17.8436 H   0  0  0  0  0  0
  -30.3272  -16.1271   18.4383 H   0  0  0  0  0  0
  -31.6729  -17.1884   18.7825 H   0  0  0  0  0  0
  -27.9617  -17.9863   19.0365 H   0  0  0  0  0  0
  -27.8171  -17.5043   20.7287 H   0  0  0  0  0  0
  -28.2105  -16.3276   19.5007 H   0  0  0  0  0  0
  -31.8442  -23.5729   20.4229 H   0  0  0  0  0  0
  -30.4352  -23.6937   21.4025 H   0  0  0  0  0  0
  -30.3507  -23.6967   18.3320 H   0  0  0  0  0  0
  -30.5580  -25.1532   19.2558 H   0  0  0  0  0  0
  -28.1061  -23.3806   19.5649 H   0  0  0  0  0  0
  -28.1808  -24.7185   18.4680 H   0  0  0  0  0  0
  -30.0469  -17.2480   22.1452 H   0  0  0  0  0  0
  -31.5251  -16.9203   21.2892 H   0  0  0  0  0  0
  -28.7268  -25.1153   21.4482 H   0  0  0  0  0  0
  -27.1283  -25.0928   20.8234 H   0  0  0  0  0  0
  -29.1618  -15.1539   21.5917 H   0  0  0  0  0  0
  1 25  1  0  0  0
  1 30  2  0  0  0
  1 86  1  0  0  0
  2  3  1  0  0  0
  2 25  1  0  0  0
  2 87  1  0  0  0
  2 88  1  0  0  0
  3  4  1  0  0  0
  3 89  1  0  0  0
  3 90  1  0  0  0
  4  5  1  0  0  0
  4 91  1  0  0  0
  4 92  1  0  0  0
  5  6  1  0  0  0
  5 26  1  0  0  0
  5 93  1  0  0  0
  6 25  1  0  0  0
  6 94  1  0  0  0
  6 95  1  0  0  0
  7  8  2  0  0  0
  7 26  1  0  0  0
  7 29  1  0  0  0
  8  9  1  0  0  0
  8 22  1  0  0  0
  9 10  1  0  0  0
  9 27  2  0  0  0
 10 11  2  0  0  0
 10 15  1  0  0  0
 11 12  1  0  0  0
 11 96  1  0  0  0
 12 13  2  0  0  0
 12 97  1  0  0  0
 13 14  1  0  0  0
 13 31  1  0  0  0
 14 15  2  0  0  0
 14 98  1  0  0  0
 15 99  1  0  0  0
 16 17  2  0  0  0
 16 21  1  0  0  0
 16 31  1  0  0  0
 17 18  1  0  0  0
 17100  1  0  0  0
 18 19  2  0  0  0
 18101  1  0  0  0
 19 20  1  0  0  0
 19 24  1  0  0  0
 20 21  2  0  0  0
 20102  1  0  0  0
 21 23  1  0  0  0
 22 28  1  0  0  0
 22 32  2  0  0  0
 26 27  1  0  0  0
 28103  1  0  0  0
 28104  1  0  0  0
 29105  1  0  0  0
 29106  1  0  0  0
 33 34  1  0  0  0
 33 66  1  0  0  0
 33 70  2  0  0  0
 34 36  1  0  0  0
 34 59  1  0  0  0
 34107  1  0  0  0
 35 44  2  0  0  0
 35 45  1  0  0  0
 35 68  1  0  0  0
 36 56  1  0  0  0
 36108  1  0  0  0
 37 39  1  0  0  0
 37 47  1  0  0  0
 37 66  1  0  0  0
 37109  1  0  0  0
 38 43  2  0  0  0
 38 46  1  0  0  0
 38 47  1  0  0  0
 39 64  1  0  0  0
 39 67  2  0  0  0
 40 52  1  0  0  0
 40 53  2  0  0  0
 40 58  1  0  0  0
 41110  1  0  0  0
 41111  1  0  0  0
 41112  1  0  0  0
 41 48  1  0  0  0
 42 43  1  0  0  0
 42 66  1  0  0  0
 42113  1  0  0  0
 42114  1  0  0  0
 43 44  1  0  0  0
 44115  1  0  0  0
 45 46  2  0  0  0
 45116  1  0  0  0
 46117  1  0  0  0
 47118  1  0  0  0
 47119  1  0  0  0
 48 56  1  0  0  0
 48 65  1  0  0  0
 48120  1  0  0  0
 49 50  1  0  0  0
 49 53  1  0  0  0
 49 64  1  0  0  0
 49121  1  0  0  0
 50 51  1  0  0  0
 50122  1  0  0  0
 50123  1  0  0  0
 51 52  1  0  0  0
 51124  1  0  0  0
 51125  1  0  0  0
 52126  1  0  0  0
 52127  1  0  0  0
 53 54  1  0  0  0
 54 55  2  0  0  0
 54128  1  0  0  0
 55 57  1  0  0  0
 55129  1  0  0  0
 56 69  2  0  0  0
 57 58  2  0  0  0
 57130  1  0  0  0
 58131  1  0  0  0
 59 60  1  0  0  0
 59 61  1  0  0  0
 59 62  1  0  0  0
 60132  1  0  0  0
 60133  1  0  0  0
 60134  1  0  0  0
 61135  1  0  0  0
 61136  1  0  0  0
 61137  1  0  0  0
 62138  1  0  0  0
 62139  1  0  0  0
 62140  1  0  0  0
 63 65  1  0  0  0
 63141  1  0  0  0
 63142  1  0  0  0
 63143  1  0  0  0
 64144  1  0  0  0
 65145  1  0  0  0
 68 82  1  0  0  0
 71 72  2  0  0  0
 71 84  1  0  0  0
 71146  1  0  0  0
 72 83  1  0  0  0
 72 85  1  0  0  0
 73 74  1  0  0  0
 73 75  1  0  0  0
 73 85  2  0  0  0
 74 78  1  0  0  0
 74 84  2  0  0  0
 75147  1  0  0  0
 75148  1  0  0  0
 75149  1  0  0  0
 76150  1  0  0  0
 76151  1  0  0  0
 76152  1  0  0  0
 76 83  1  0  0  0
 77 83  1  0  0  0
 77153  1  0  0  0
 77154  1  0  0  0
 77155  1  0  0  0
 78 79  1  0  0  0
 78156  1  0  0  0
 78157  1  0  0  0
 79 80  1  0  0  0
 79158  1  0  0  0
 79159  1  0  0  0
 80 82  1  0  0  0
 80160  1  0  0  0
 80161  1  0  0  0
 81 83  1  0  0  0
 81 86  1  0  0  0
 81162  1  0  0  0
 81163  1  0  0  0
 82164  1  0  0  0
 82165  1  0  0  0
 86166  1  0  0  0
M  ISO  4   1 100  68 101  82 101  86 100
M  END
> <chiral flag>
0

> <version>
0

> <s_m_source_file>
/data/baiqing/PycharmProjects/Reinvent-master-3.2/result/LINK_invent/BTK/process_docking_weight1_custom_sum_contain_oxygen_bond_distance_aromatic_linkinvent_7_9_3/rearranged_h_0075.sdf

> <i_m_source_file_index>
31

> <r_mmod_Potential_Energy-OPLS-2005>
-49.7217140197754

> <r_mmod_Stretch_Energy-OPLS-2005>
39.7058944702148

> <r_mmod_Bend_Energy-OPLS-2005>
98.0861206054688

> <r_mmod_Torsional_Energy-OPLS-2005>
215.066482543945

> <r_mmod_Improper_Torsional_Energy-OPLS-2005>
3.53244495391846

> <r_mmod_Van_der_Waal_Energy-OPLS-2005>
168.43440246582

> <r_mmod_Electrostatic_Energy-OPLS-2005>
-371.096557617188

> <r_mmod_Solvation_Energy-OPLS-2005>
-215.26171875

> <b_mmod_Minimization_Converged-OPLS-2005>
0

> <r_mmod_RMS_Derivative-OPLS-2005>
3.03829479217529

$$$$
32
                    3D
 Structure written by MMmdl.
170178  0  0  1  0            999 V2000
  -30.6358  -14.6810   20.6421 C   0  0  0  0  0  0
  -30.4498  -12.4650   19.4533 C   0  0  0  0  0  0
  -29.5122  -12.5610   18.2265 C   0  0  0  0  0  0
  -28.0358  -12.3666   18.6289 C   0  0  0  0  0  0
  -27.6614  -13.2025   19.8792 C   0  0  2  0  0  0
  -28.7087  -12.9727   20.9890 C   0  0  0  0  0  0
  -25.2585  -13.8109   20.5626 C   0  0  0  0  0  0
  -24.1840  -13.0394   20.9143 C   0  0  0  0  0  0
  -24.6404  -11.6871   20.8711 C   0  0  0  0  0  0
  -23.9056  -10.4267   21.0395 C   0  0  0  0  0  0
  -24.3606   -9.4188   21.9178 C   0  0  0  0  0  0
  -23.6271   -8.2236   22.0762 C   0  0  0  0  0  0
  -22.4250   -8.0280   21.3557 C   0  0  0  0  0  0
  -21.9880   -9.0253   20.4657 C   0  0  0  0  0  0
  -22.7220  -10.2125   20.3052 C   0  0  0  0  0  0
  -21.6851   -6.0728   22.5281 C   0  0  0  0  0  0
  -21.4017   -6.5632   23.8218 C   0  0  0  0  0  0
  -21.3658   -5.6788   24.9179 C   0  0  0  0  0  0
  -21.6043   -4.3050   24.7228 C   0  0  0  0  0  0
  -21.8824   -3.8140   23.4351 C   0  0  0  0  0  0
  -21.9191   -4.6953   22.3407 C   0  0  0  0  0  0
  -22.7875  -13.5229   21.1822 C   0  0  0  0  0  0
  -22.1657   -4.2139   21.0983 F   0  0  0  0  0  0
  -21.5626   -3.4535   25.7742 F   0  0  0  0  0  0
  -30.0018  -13.4546   20.4739 N   0  0  0  0  0  0
  -26.3023  -12.9271   20.3349 N   0  0  0  0  0  0
  -25.9332  -11.6434   20.5733 N   0  0  0  0  0  0
  -22.0506  -12.8244   22.0384 N   0  0  0  0  0  0
  -25.4263  -15.1824   20.4020 N   0  0  0  0  0  0
  -31.7064  -14.8359   20.0394 O   0  0  0  0  0  0
  -21.6629   -6.8866   21.4246 O   0  0  0  0  0  0
  -22.3575  -14.5548   20.6691 O   0  0  0  0  0  0
  -24.6285  -31.8565   23.2019 C   0  0  0  0  0  0
  -25.9126  -32.4748   23.8354 C   0  0  1  0  0  0
  -27.2248  -27.2945   20.1209 C   0  0  0  0  0  0
  -25.5941  -33.8550   24.2290 N   0  0  0  0  0  0
  -23.4257  -30.4803   21.5440 C   0  0  2  0  0  0
  -24.8737  -28.9347   20.1156 C   0  0  0  0  0  0
  -22.7510  -29.4588   22.4909 C   0  0  0  0  0  0
  -18.0292  -28.1381   22.8489 C   0  0  0  0  0  0
  -24.1496  -36.7279   23.2641 C   0  0  0  0  0  0
  -25.9704  -30.7789   21.3812 C   0  0  0  0  0  0
  -26.0433  -29.4040   20.7250 C   0  0  0  0  0  0
  -27.2215  -28.5954   20.7203 C   0  0  0  0  0  0
  -26.0332  -26.8959   19.4706 C   0  0  0  0  0  0
  -24.8716  -27.6865   19.4784 C   0  0  0  0  0  0
  -23.6454  -29.8174   20.1601 C   0  0  0  0  0  0
  -25.4116  -36.3060   24.0338 C   0  0  1  0  0  0
  -20.5898  -28.3685   23.1287 C   0  0  2  0  0  0
  -20.6783  -26.9409   22.5405 C   0  0  0  0  0  0
  -19.5752  -26.6388   21.5212 C   0  0  0  0  0  0
  -18.1934  -26.7923   22.1635 C   0  0  0  0  0  0
  -19.1547  -28.8853   23.2879 C   0  0  0  0  0  0
  -18.9456  -30.1449   23.8896 C   0  0  0  0  0  0
  -17.6454  -30.6574   24.0562 C   0  0  0  0  0  0
  -25.9049  -34.9432   23.5114 C   0  0  0  0  0  0
  -16.5349  -29.9068   23.6323 C   0  0  0  0  0  0
  -16.7276  -28.6493   23.0337 C   0  0  0  0  0  0
  -26.4513  -31.6535   25.0711 C   0  0  0  0  0  0
  -25.3763  -31.3670   26.1451 C   0  0  0  0  0  0
  -27.0340  -30.2954   24.6156 C   0  0  0  0  0  0
  -27.6078  -32.4254   25.7457 C   0  0  0  0  0  0
  -27.5575  -37.1804   24.8466 C   0  0  0  0  0  0
  -21.4217  -29.3037   22.3683 N   0  0  0  0  0  0
  -26.4291  -37.3758   23.9405 N   0  0  0  0  0  0
  -24.6932  -31.0568   22.0980 N   0  0  0  0  0  0
  -23.4221  -28.8108   23.2982 O   0  0  0  0  0  0
  -28.3312  -26.4216   20.1563 O   0  0  0  0  0  0
  -26.5606  -34.8902   22.4671 O   0  0  0  0  0  0
  -23.5445  -32.1353   23.7337 O   0  0  0  0  0  0
  -29.4184  -18.8981   19.3329 C   0  0  0  0  0  0
  -29.5872  -17.5279   19.6536 C   0  0  0  0  0  0
  -29.8743  -19.6809   20.3552 C   0  0  0  0  0  0
  -30.1025  -17.3809   20.9127 C   0  0  0  0  0  0
  -31.2650  -15.7517   22.7265 C   0  0  0  0  0  0
  -28.7952  -15.7653   22.2342 C   0  0  0  0  0  0
  -30.7553  -20.6946   23.0595 C   0  0  0  0  0  0
  -32.1996  -18.7198   23.0044 C   0  0  0  0  0  0
  -29.7607  -18.6836   23.8788 C   0  0  0  0  0  0
  -30.0329  -21.2441   20.1973 C   0  0  0  0  0  0
  -28.8727  -22.3194   20.4557 C   0  0  0  0  0  0
  -29.2202  -23.8745   20.2063 C   0  0  0  0  0  0
  -28.0662  -24.9668   20.3765 C   0  0  0  0  0  0
  -30.1973  -15.9320   21.6079 C   0  0  0  0  0  0
  -30.7363  -19.1721   22.7771 C   0  0  0  0  0  0
  -30.2574  -18.7581   21.4059 N   0  0  0  0  0  0
  -31.4815  -12.6170   19.1384 H   0  0  0  0  0  0
  -30.4364  -11.4540   19.8638 H   0  0  0  0  0  0
  -29.7939  -11.8240   17.4738 H   0  0  0  0  0  0
  -29.6369  -13.5390   17.7599 H   0  0  0  0  0  0
  -27.8833  -11.3062   18.8344 H   0  0  0  0  0  0
  -27.3779  -12.6111   17.7945 H   0  0  0  0  0  0
  -27.7008  -14.2499   19.5813 H   0  0  0  0  0  0
  -28.7702  -11.9029   21.1995 H   0  0  0  0  0  0
  -28.4079  -13.3639   21.9497 H   0  0  0  0  0  0
  -25.2752   -9.5665   22.4747 H   0  0  0  0  0  0
  -23.9975   -7.4629   22.7487 H   0  0  0  0  0  0
  -21.0804   -8.8783   19.8970 H   0  0  0  0  0  0
  -22.3674  -10.9671   19.6164 H   0  0  0  0  0  0
  -21.2017   -7.6141   23.9714 H   0  0  0  0  0  0
  -21.1464   -6.0522   25.9084 H   0  0  0  0  0  0
  -22.0597   -2.7600   23.2861 H   0  0  0  0  0  0
  -22.4102  -11.9900   22.4775 H   0  0  0  0  0  0
  -21.1154  -13.1338   22.2603 H   0  0  0  0  0  0
  -24.6588  -15.8341   20.5223 H   0  0  0  0  0  0
  -26.2814  -15.6293   20.0961 H   0  0  0  0  0  0
  -26.7178  -32.5424   23.1086 H   0  0  0  0  0  0
  -25.0115  -33.9688   25.0457 H   0  0  0  0  0  0
  -22.7184  -31.2984   21.3978 H   0  0  0  0  0  0
  -23.3753  -35.9614   23.3302 H   0  0  0  0  0  0
  -24.3590  -36.8890   22.2051 H   0  0  0  0  0  0
  -23.7260  -37.6493   23.6656 H   0  0  0  0  0  0
  -26.1060  -31.5372   20.6100 H   0  0  0  0  0  0
  -26.8511  -30.8284   22.0100 H   0  0  0  0  0  0
  -28.1183  -28.9487   21.2096 H   0  0  0  0  0  0
  -25.9657  -25.9645   18.9314 H   0  0  0  0  0  0
  -23.9783  -27.3282   18.9856 H   0  0  0  0  0  0
  -23.7765  -30.5919   19.4040 H   0  0  0  0  0  0
  -22.7661  -29.2485   19.8529 H   0  0  0  0  0  0
  -25.1295  -36.1908   25.0833 H   0  0  0  0  0  0
  -20.9984  -28.3244   24.1411 H   0  0  0  0  0  0
  -20.5697  -26.2283   23.3594 H   0  0  0  0  0  0
  -21.6645  -26.7437   22.1186 H   0  0  0  0  0  0
  -19.6912  -25.6302   21.1218 H   0  0  0  0  0  0
  -19.6682  -27.3221   20.6760 H   0  0  0  0  0  0
  -17.4202  -26.6664   21.4034 H   0  0  0  0  0  0
  -18.0338  -26.0062   22.9035 H   0  0  0  0  0  0
  -19.7923  -30.7271   24.2271 H   0  0  0  0  0  0
  -17.4996  -31.6254   24.5160 H   0  0  0  0  0  0
  -15.5344  -30.2964   23.7639 H   0  0  0  0  0  0
  -15.8683  -28.0810   22.7040 H   0  0  0  0  0  0
  -24.5945  -30.6991   25.7798 H   0  0  0  0  0  0
  -24.8954  -32.2832   26.4877 H   0  0  0  0  0  0
  -25.8127  -30.8865   27.0214 H   0  0  0  0  0  0
  -26.2910  -29.6715   24.1175 H   0  0  0  0  0  0
  -27.4023  -29.7190   25.4645 H   0  0  0  0  0  0
  -27.8782  -30.4221   23.9380 H   0  0  0  0  0  0
  -27.2706  -33.3550   26.2048 H   0  0  0  0  0  0
  -28.3884  -32.6809   25.0279 H   0  0  0  0  0  0
  -28.0763  -31.8381   26.5366 H   0  0  0  0  0  0
  -28.2594  -38.0097   24.7498 H   0  0  0  0  0  0
  -28.1076  -36.2631   24.6312 H   0  0  0  0  0  0
  -27.2298  -37.1468   25.8871 H   0  0  0  0  0  0
  -20.9385  -29.8785   21.6918 H   0  0  0  0  0  0
  -26.0167  -38.2831   24.1401 H   0  0  0  0  0  0
  -29.0297  -19.2813   18.3981 H   0  0  0  0  0  0
  -29.3031  -16.7010   19.0170 H   0  0  0  0  0  0
  -31.1771  -16.3968   23.5857 H   0  0  0  0  0  0
  -32.2823  -15.8461   22.3496 H   0  0  0  0  0  0
  -31.2091  -14.7446   23.1432 H   0  0  0  0  0  0
  -28.3918  -16.7019   22.6089 H   0  0  0  0  0  0
  -28.7851  -15.0737   23.0765 H   0  0  0  0  0  0
  -28.0589  -15.4708   21.4937 H   0  0  0  0  0  0
  -30.9653  -20.8981   24.1117 H   0  0  0  0  0  0
  -29.7983  -21.1661   22.8575 H   0  0  0  0  0  0
  -31.5510  -21.2205   22.5369 H   0  0  0  0  0  0
  -32.3569  -18.3520   24.0183 H   0  0  0  0  0  0
  -32.9180  -19.5263   22.8568 H   0  0  0  0  0  0
  -32.5194  -17.9596   22.2979 H   0  0  0  0  0  0
  -30.0773  -19.0044   24.8719 H   0  0  0  0  0  0
  -29.6404  -17.6185   23.9707 H   0  0  0  0  0  0
  -28.7628  -19.0916   23.7205 H   0  0  0  0  0  0
  -30.2677  -21.3889   19.1422 H   0  0  0  0  0  0
  -30.9585  -21.5905   20.6388 H   0  0  0  0  0  0
  -28.4948  -22.2113   21.4713 H   0  0  0  0  0  0
  -28.0293  -22.0551   19.8176 H   0  0  0  0  0  0
  -29.6122  -23.9717   19.1932 H   0  0  0  0  0  0
  -30.0439  -24.1474   20.8647 H   0  0  0  0  0  0
  -27.6702  -24.8730   21.3889 H   0  0  0  0  0  0
  -27.2705  -24.6173   19.7259 H   0  0  0  0  0  0
  1 25  1  0  0  0
  1 30  2  0  0  0
  1 84  1  0  0  0
  2  3  1  0  0  0
  2 25  1  0  0  0
  2 87  1  0  0  0
  2 88  1  0  0  0
  3  4  1  0  0  0
  3 89  1  0  0  0
  3 90  1  0  0  0
  4  5  1  0  0  0
  4 91  1  0  0  0
  4 92  1  0  0  0
  5  6  1  0  0  0
  5 26  1  0  0  0
  5 93  1  0  0  0
  6 25  1  0  0  0
  6 94  1  0  0  0
  6 95  1  0  0  0
  7  8  2  0  0  0
  7 26  1  0  0  0
  7 29  1  0  0  0
  8  9  1  0  0  0
  8 22  1  0  0  0
  9 10  1  0  0  0
  9 27  2  0  0  0
 10 11  2  0  0  0
 10 15  1  0  0  0
 11 12  1  0  0  0
 11 96  1  0  0  0
 12 13  2  0  0  0
 12 97  1  0  0  0
 13 14  1  0  0  0
 13 31  1  0  0  0
 14 15  2  0  0  0
 14 98  1  0  0  0
 15 99  1  0  0  0
 16 17  2  0  0  0
 16 21  1  0  0  0
 16 31  1  0  0  0
 17 18  1  0  0  0
 17100  1  0  0  0
 18 19  2  0  0  0
 18101  1  0  0  0
 19 20  1  0  0  0
 19 24  1  0  0  0
 20 21  2  0  0  0
 20102  1  0  0  0
 21 23  1  0  0  0
 22 28  1  0  0  0
 22 32  2  0  0  0
 26 27  1  0  0  0
 28103  1  0  0  0
 28104  1  0  0  0
 29105  1  0  0  0
 29106  1  0  0  0
 33 34  1  0  0  0
 33 66  1  0  0  0
 33 70  2  0  0  0
 34 36  1  0  0  0
 34 59  1  0  0  0
 34107  1  0  0  0
 35 44  2  0  0  0
 35 45  1  0  0  0
 35 68  1  0  0  0
 36 56  1  0  0  0
 36108  1  0  0  0
 37 39  1  0  0  0
 37 47  1  0  0  0
 37 66  1  0  0  0
 37109  1  0  0  0
 38 43  2  0  0  0
 38 46  1  0  0  0
 38 47  1  0  0  0
 39 64  1  0  0  0
 39 67  2  0  0  0
 40 52  1  0  0  0
 40 53  2  0  0  0
 40 58  1  0  0  0
 41110  1  0  0  0
 41111  1  0  0  0
 41112  1  0  0  0
 41 48  1  0  0  0
 42 43  1  0  0  0
 42 66  1  0  0  0
 42113  1  0  0  0
 42114  1  0  0  0
 43 44  1  0  0  0
 44115  1  0  0  0
 45 46  2  0  0  0
 45116  1  0  0  0
 46117  1  0  0  0
 47118  1  0  0  0
 47119  1  0  0  0
 48 56  1  0  0  0
 48 65  1  0  0  0
 48120  1  0  0  0
 49 50  1  0  0  0
 49 53  1  0  0  0
 49 64  1  0  0  0
 49121  1  0  0  0
 50 51  1  0  0  0
 50122  1  0  0  0
 50123  1  0  0  0
 51 52  1  0  0  0
 51124  1  0  0  0
 51125  1  0  0  0
 52126  1  0  0  0
 52127  1  0  0  0
 53 54  1  0  0  0
 54 55  2  0  0  0
 54128  1  0  0  0
 55 57  1  0  0  0
 55129  1  0  0  0
 56 69  2  0  0  0
 57 58  2  0  0  0
 57130  1  0  0  0
 58131  1  0  0  0
 59 60  1  0  0  0
 59 61  1  0  0  0
 59 62  1  0  0  0
 60132  1  0  0  0
 60133  1  0  0  0
 60134  1  0  0  0
 61135  1  0  0  0
 61136  1  0  0  0
 61137  1  0  0  0
 62138  1  0  0  0
 62139  1  0  0  0
 62140  1  0  0  0
 63 65  1  0  0  0
 63141  1  0  0  0
 63142  1  0  0  0
 63143  1  0  0  0
 64144  1  0  0  0
 65145  1  0  0  0
 68 83  1  0  0  0
 71 72  1  0  0  0
 71 73  2  0  0  0
 71146  1  0  0  0
 72 74  2  0  0  0
 72147  1  0  0  0
 73 80  1  0  0  0
 73 86  1  0  0  0
 74 84  1  0  0  0
 74 86  1  0  0  0
 75148  1  0  0  0
 75149  1  0  0  0
 75150  1  0  0  0
 75 84  1  0  0  0
 76 84  1  0  0  0
 76151  1  0  0  0
 76152  1  0  0  0
 76153  1  0  0  0
 77154  1  0  0  0
 77155  1  0  0  0
 77156  1  0  0  0
 77 85  1  0  0  0
 78 85  1  0  0  0
 78157  1  0  0  0
 78158  1  0  0  0
 78159  1  0  0  0
 79 85  1  0  0  0
 79160  1  0  0  0
 79161  1  0  0  0
 79162  1  0  0  0
 80 81  1  0  0  0
 80163  1  0  0  0
 80164  1  0  0  0
 81 82  1  0  0  0
 81165  1  0  0  0
 81166  1  0  0  0
 82 83  1  0  0  0
 82167  1  0  0  0
 82168  1  0  0  0
 83169  1  0  0  0
 83170  1  0  0  0
 85 86  1  0  0  0
M  ISO  4   1 100  68 101  83 101  84 100
M  END
> <chiral flag>
0

> <version>
0

> <s_m_source_file>
/data/baiqing/PycharmProjects/Reinvent-master-3.2/result/LINK_invent/BTK/process_docking_weight1_custom_sum_contain_oxygen_bond_distance_aromatic_linkinvent_7_9_3/rearranged_h_0075.sdf

> <i_m_source_file_index>
32

> <r_mmod_Potential_Energy-OPLS-2005>
389.207153320312

> <r_mmod_Stretch_Energy-OPLS-2005>
152.263229370117

> <r_mmod_Bend_Energy-OPLS-2005>
255.161895751953

> <r_mmod_Torsional_Energy-OPLS-2005>
257.658477783203

> <r_mmod_Improper_Torsional_Energy-OPLS-2005>
3.60332846641541

> <r_mmod_Van_der_Waal_Energy-OPLS-2005>
168.338882446289

> <r_mmod_Electrostatic_Energy-OPLS-2005>
-327.158569335938

> <r_mmod_Solvation_Energy-OPLS-2005>
-178.781875610352

> <b_mmod_Minimization_Converged-OPLS-2005>
0

> <r_mmod_RMS_Derivative-OPLS-2005>
2.64316511154175

$$$$
33
                    3D
 Structure written by MMmdl.
170178  0  0  1  0            999 V2000
  -30.6750  -14.5614   20.6489 C   0  0  0  0  0  0
  -30.4378  -12.3945   19.4117 C   0  0  0  0  0  0
  -29.4897  -12.5419   18.2011 C   0  0  0  0  0  0
  -28.0137  -12.3613   18.6123 C   0  0  0  0  0  0
  -27.6585  -13.1869   19.8732 C   0  0  2  0  0  0
  -28.7100  -12.9351   20.9772 C   0  0  0  0  0  0
  -25.2572  -13.8094   20.5661 C   0  0  0  0  0  0
  -24.1813  -13.0387   20.9176 C   0  0  0  0  0  0
  -24.6370  -11.6860   20.8771 C   0  0  0  0  0  0
  -23.9038  -10.4267   21.0447 C   0  0  0  0  0  0
  -24.3612   -9.4189   21.9216 C   0  0  0  0  0  0
  -23.6305   -8.2218   22.0767 C   0  0  0  0  0  0
  -22.4282   -8.0269   21.3554 C   0  0  0  0  0  0
  -21.9912   -9.0233   20.4648 C   0  0  0  0  0  0
  -22.7226  -10.2118   20.3087 C   0  0  0  0  0  0
  -21.6834   -6.0747   22.5289 C   0  0  0  0  0  0
  -21.3991   -6.5650   23.8218 C   0  0  0  0  0  0
  -21.3669   -5.6794   24.9180 C   0  0  0  0  0  0
  -21.6060   -4.3065   24.7228 C   0  0  0  0  0  0
  -21.8821   -3.8161   23.4350 C   0  0  0  0  0  0
  -21.9179   -4.6980   22.3404 C   0  0  0  0  0  0
  -22.7845  -13.5216   21.1841 C   0  0  0  0  0  0
  -22.1654   -4.2165   21.0986 F   0  0  0  0  0  0
  -21.5643   -3.4556   25.7747 F   0  0  0  0  0  0
  -30.0175  -13.3638   20.4511 N   0  0  0  0  0  0
  -26.3000  -12.9227   20.3363 N   0  0  0  0  0  0
  -25.9286  -11.6410   20.5775 N   0  0  0  0  0  0
  -22.0472  -12.8230   22.0407 N   0  0  0  0  0  0
  -25.4266  -15.1812   20.4038 N   0  0  0  0  0  0
  -31.7416  -14.7268   20.0546 O   0  0  0  0  0  0
  -21.6631   -6.8888   21.4253 O   0  0  0  0  0  0
  -22.3546  -14.5527   20.6694 O   0  0  0  0  0  0
  -24.6167  -31.8640   23.2053 C   0  0  0  0  0  0
  -25.9050  -32.4801   23.8359 C   0  0  1  0  0  0
  -27.2474  -27.4093   20.1087 C   0  0  0  0  0  0
  -25.5896  -33.8597   24.2302 N   0  0  0  0  0  0
  -23.4068  -30.4817   21.5475 C   0  0  2  0  0  0
  -24.8571  -28.9356   20.1203 C   0  0  0  0  0  0
  -22.7413  -29.4639   22.5007 C   0  0  0  0  0  0
  -18.0265  -28.1375   22.8495 C   0  0  0  0  0  0
  -24.1483  -36.7306   23.2640 C   0  0  0  0  0  0
  -25.9356  -30.8222   21.3595 C   0  0  0  0  0  0
  -26.0168  -29.4523   20.7108 C   0  0  0  0  0  0
  -27.2156  -28.6995   20.6936 C   0  0  0  0  0  0
  -26.0691  -26.9065   19.5174 C   0  0  0  0  0  0
  -24.8790  -27.6633   19.5185 C   0  0  0  0  0  0
  -23.6169  -29.8020   20.1668 C   0  0  0  0  0  0
  -25.4102  -36.3104   24.0339 C   0  0  1  0  0  0
  -20.5858  -28.3667   23.1325 C   0  0  2  0  0  0
  -20.6758  -26.9406   22.5424 C   0  0  0  0  0  0
  -19.5739  -26.6390   21.5215 C   0  0  0  0  0  0
  -18.1915  -26.7923   22.1622 C   0  0  0  0  0  0
  -19.1516  -28.8838   23.2905 C   0  0  0  0  0  0
  -18.9441  -30.1446   23.8916 C   0  0  0  0  0  0
  -17.6447  -30.6592   24.0562 C   0  0  0  0  0  0
  -25.9033  -34.9470   23.5125 C   0  0  0  0  0  0
  -16.5338  -29.9093   23.6333 C   0  0  0  0  0  0
  -16.7256  -28.6505   23.0362 C   0  0  0  0  0  0
  -26.4478  -31.6588   25.0694 C   0  0  0  0  0  0
  -25.3743  -31.3681   26.1443 C   0  0  0  0  0  0
  -27.0318  -30.3033   24.6081 C   0  0  0  0  0  0
  -27.6064  -32.4308   25.7443 C   0  0  0  0  0  0
  -27.5588  -37.1790   24.8460 C   0  0  0  0  0  0
  -21.4145  -29.3025   22.3737 N   0  0  0  0  0  0
  -26.4287  -37.3795   23.9420 N   0  0  0  0  0  0
  -24.6715  -31.0705   22.0966 N   0  0  0  0  0  0
  -23.4163  -28.8198   23.3079 O   0  0  0  0  0  0
  -28.4274  -26.6876   20.0792 O   0  0  0  0  0  0
  -26.5605  -34.8934   22.4689 O   0  0  0  0  0  0
  -23.5353  -32.1408   23.7431 O   0  0  0  0  0  0
  -29.7494  -19.4690   20.9378 C   0  0  0  0  0  0
  -29.3803  -20.3701   19.9167 C   0  0  0  0  0  0
  -30.3429  -18.2234   20.5766 C   0  0  0  0  0  0
  -30.0964  -18.8377   18.3707 C   0  0  0  0  0  0
  -30.2465  -18.4767   16.9090 C   0  0  0  0  0  0
  -30.8084  -17.8374   23.0206 C   0  0  0  0  0  0
  -32.4546  -17.1148   21.3983 C   0  0  0  0  0  0
  -28.6618  -16.0541   21.3659 C   0  0  0  0  0  0
  -30.2857  -15.0891   23.0617 C   0  0  0  0  0  0
  -28.7085  -21.7414   20.1665 C   0  0  0  0  0  0
  -29.6072  -22.9855   19.8858 C   0  0  0  0  0  0
  -28.9208  -24.3211   19.4255 C   0  0  0  0  0  0
  -28.4162  -25.3078   20.5179 C   0  0  0  0  0  0
  -30.9179  -17.1766   21.6058 C   0  0  0  0  0  0
  -30.1588  -15.7172   21.6370 C   0  0  0  0  0  0
  -29.5618  -20.0262   18.6301 N   0  0  0  0  0  0
  -30.4948  -17.9376   19.2665 N   0  0  0  0  0  0
  -31.4701  -12.5342   19.0871 H   0  0  0  0  0  0
  -30.4044  -11.3772   19.8022 H   0  0  0  0  0  0
  -29.7525  -11.8232   17.4245 H   0  0  0  0  0  0
  -29.6218  -13.5313   17.7596 H   0  0  0  0  0  0
  -27.8392  -11.3023   18.8014 H   0  0  0  0  0  0
  -27.3558  -12.6362   17.7866 H   0  0  0  0  0  0
  -27.7022  -14.2309   19.5715 H   0  0  0  0  0  0
  -28.7449  -11.8684   21.2079 H   0  0  0  0  0  0
  -28.4271  -13.3747   21.9247 H   0  0  0  0  0  0
  -25.2754   -9.5672   22.4800 H   0  0  0  0  0  0
  -24.0026   -7.4602   22.7485 H   0  0  0  0  0  0
  -21.0845   -8.8751   19.8943 H   0  0  0  0  0  0
  -22.3693  -10.9676   19.6220 H   0  0  0  0  0  0
  -21.1968   -7.6151   23.9727 H   0  0  0  0  0  0
  -21.1495   -6.0527   25.9079 H   0  0  0  0  0  0
  -22.0596   -2.7631   23.2837 H   0  0  0  0  0  0
  -22.4055  -11.9894   22.4831 H   0  0  0  0  0  0
  -21.1096  -13.1293   22.2586 H   0  0  0  0  0  0
  -24.6663  -15.8399   20.5243 H   0  0  0  0  0  0
  -26.2870  -15.6205   20.1046 H   0  0  0  0  0  0
  -26.7110  -32.5509   23.1114 H   0  0  0  0  0  0
  -25.0038  -33.9742   25.0448 H   0  0  0  0  0  0
  -22.6976  -31.2986   21.4008 H   0  0  0  0  0  0
  -23.3758  -35.9625   23.3292 H   0  0  0  0  0  0
  -24.3586  -36.8934   22.2057 H   0  0  0  0  0  0
  -23.7219  -37.6499   23.6660 H   0  0  0  0  0  0
  -26.0444  -31.5847   20.5874 H   0  0  0  0  0  0
  -26.8239  -30.8816   21.9761 H   0  0  0  0  0  0
  -28.1151  -29.0999   21.1403 H   0  0  0  0  0  0
  -26.0770  -25.9346   19.0439 H   0  0  0  0  0  0
  -23.9881  -27.2609   19.0558 H   0  0  0  0  0  0
  -23.7181  -30.5685   19.3980 H   0  0  0  0  0  0
  -22.7434  -29.2133   19.8807 H   0  0  0  0  0  0
  -25.1277  -36.1961   25.0829 H   0  0  0  0  0  0
  -20.9923  -28.3221   24.1455 H   0  0  0  0  0  0
  -20.5665  -26.2264   23.3600 H   0  0  0  0  0  0
  -21.6628  -26.7450   22.1217 H   0  0  0  0  0  0
  -19.6905  -25.6307   21.1234 H   0  0  0  0  0  0
  -19.6681  -27.3208   20.6750 H   0  0  0  0  0  0
  -17.4183  -26.6676   21.4028 H   0  0  0  0  0  0
  -18.0318  -26.0064   22.9015 H   0  0  0  0  0  0
  -19.7920  -30.7256   24.2294 H   0  0  0  0  0  0
  -17.5006  -31.6274   24.5158 H   0  0  0  0  0  0
  -15.5344  -30.2996   23.7653 H   0  0  0  0  0  0
  -15.8654  -28.0827   22.7075 H   0  0  0  0  0  0
  -24.5918  -30.7034   25.7769 H   0  0  0  0  0  0
  -24.8929  -32.2824   26.4920 H   0  0  0  0  0  0
  -25.8097  -30.8821   27.0185 H   0  0  0  0  0  0
  -26.2855  -29.6759   24.1194 H   0  0  0  0  0  0
  -27.4158  -29.7304   25.4536 H   0  0  0  0  0  0
  -27.8657  -30.4364   23.9185 H   0  0  0  0  0  0
  -27.2708  -33.3605   26.2053 H   0  0  0  0  0  0
  -28.3845  -32.6874   25.0240 H   0  0  0  0  0  0
  -28.0771  -31.8411   26.5324 H   0  0  0  0  0  0
  -28.2584  -38.0114   24.7565 H   0  0  0  0  0  0
  -28.1110  -36.2651   24.6209 H   0  0  0  0  0  0
  -27.2319  -37.1350   25.8866 H   0  0  0  0  0  0
  -20.9318  -29.8711   21.6923 H   0  0  0  0  0  0
  -26.0179  -38.2865   24.1461 H   0  0  0  0  0  0
  -29.5713  -19.7575   21.9635 H   0  0  0  0  0  0
  -30.5171  -19.3558   16.3238 H   0  0  0  0  0  0
  -29.3066  -18.0848   16.5204 H   0  0  0  0  0  0
  -31.0184  -17.7223   16.7601 H   0  0  0  0  0  0
  -31.2571  -18.8318   23.0411 H   0  0  0  0  0  0
  -31.3433  -17.2922   23.7967 H   0  0  0  0  0  0
  -29.7750  -17.9411   23.3508 H   0  0  0  0  0  0
  -32.9211  -18.0775   21.6076 H   0  0  0  0  0  0
  -32.7269  -16.8912   20.3683 H   0  0  0  0  0  0
  -32.9244  -16.3730   22.0439 H   0  0  0  0  0  0
  -28.3588  -16.9732   21.8663 H   0  0  0  0  0  0
  -27.9489  -15.3306   21.7394 H   0  0  0  0  0  0
  -28.4778  -16.2043   20.3021 H   0  0  0  0  0  0
  -29.6481  -15.5886   23.7915 H   0  0  0  0  0  0
  -31.3134  -15.1274   23.4242 H   0  0  0  0  0  0
  -30.0192  -14.0377   23.1167 H   0  0  0  0  0  0
  -28.3306  -21.7838   21.1878 H   0  0  0  0  0  0
  -27.8274  -21.7883   19.5255 H   0  0  0  0  0  0
  -30.2702  -22.7032   19.0656 H   0  0  0  0  0  0
  -30.2755  -23.1608   20.7297 H   0  0  0  0  0  0
  -28.1224  -24.1138   18.7123 H   0  0  0  0  0  0
  -29.6742  -24.8612   18.8504 H   0  0  0  0  0  0
  -29.1010  -25.2652   21.3655 H   0  0  0  0  0  0
  -27.4457  -24.9940   20.9048 H   0  0  0  0  0  0
  1 25  1  0  0  0
  1 30  2  0  0  0
  1 85  1  0  0  0
  2  3  1  0  0  0
  2 25  1  0  0  0
  2 88  1  0  0  0
  2 89  1  0  0  0
  3  4  1  0  0  0
  3 90  1  0  0  0
  3 91  1  0  0  0
  4  5  1  0  0  0
  4 92  1  0  0  0
  4 93  1  0  0  0
  5  6  1  0  0  0
  5 26  1  0  0  0
  5 94  1  0  0  0
  6 25  1  0  0  0
  6 95  1  0  0  0
  6 96  1  0  0  0
  7  8  2  0  0  0
  7 26  1  0  0  0
  7 29  1  0  0  0
  8  9  1  0  0  0
  8 22  1  0  0  0
  9 10  1  0  0  0
  9 27  2  0  0  0
 10 11  2  0  0  0
 10 15  1  0  0  0
 11 12  1  0  0  0
 11 97  1  0  0  0
 12 13  2  0  0  0
 12 98  1  0  0  0
 13 14  1  0  0  0
 13 31  1  0  0  0
 14 15  2  0  0  0
 14 99  1  0  0  0
 15100  1  0  0  0
 16 17  2  0  0  0
 16 21  1  0  0  0
 16 31  1  0  0  0
 17 18  1  0  0  0
 17101  1  0  0  0
 18 19  2  0  0  0
 18102  1  0  0  0
 19 20  1  0  0  0
 19 24  1  0  0  0
 20 21  2  0  0  0
 20103  1  0  0  0
 21 23  1  0  0  0
 22 28  1  0  0  0
 22 32  2  0  0  0
 26 27  1  0  0  0
 28104  1  0  0  0
 28105  1  0  0  0
 29106  1  0  0  0
 29107  1  0  0  0
 33 34  1  0  0  0
 33 66  1  0  0  0
 33 70  2  0  0  0
 34 36  1  0  0  0
 34 59  1  0  0  0
 34108  1  0  0  0
 35 44  2  0  0  0
 35 45  1  0  0  0
 35 68  1  0  0  0
 36 56  1  0  0  0
 36109  1  0  0  0
 37 39  1  0  0  0
 37 47  1  0  0  0
 37 66  1  0  0  0
 37110  1  0  0  0
 38 43  2  0  0  0
 38 46  1  0  0  0
 38 47  1  0  0  0
 39 64  1  0  0  0
 39 67  2  0  0  0
 40 52  1  0  0  0
 40 53  2  0  0  0
 40 58  1  0  0  0
 41111  1  0  0  0
 41112  1  0  0  0
 41113  1  0  0  0
 41 48  1  0  0  0
 42 43  1  0  0  0
 42 66  1  0  0  0
 42114  1  0  0  0
 42115  1  0  0  0
 43 44  1  0  0  0
 44116  1  0  0  0
 45 46  2  0  0  0
 45117  1  0  0  0
 46118  1  0  0  0
 47119  1  0  0  0
 47120  1  0  0  0
 48 56  1  0  0  0
 48 65  1  0  0  0
 48121  1  0  0  0
 49 50  1  0  0  0
 49 53  1  0  0  0
 49 64  1  0  0  0
 49122  1  0  0  0
 50 51  1  0  0  0
 50123  1  0  0  0
 50124  1  0  0  0
 51 52  1  0  0  0
 51125  1  0  0  0
 51126  1  0  0  0
 52127  1  0  0  0
 52128  1  0  0  0
 53 54  1  0  0  0
 54 55  2  0  0  0
 54129  1  0  0  0
 55 57  1  0  0  0
 55130  1  0  0  0
 56 69  2  0  0  0
 57 58  2  0  0  0
 57131  1  0  0  0
 58132  1  0  0  0
 59 60  1  0  0  0
 59 61  1  0  0  0
 59 62  1  0  0  0
 60133  1  0  0  0
 60134  1  0  0  0
 60135  1  0  0  0
 61136  1  0  0  0
 61137  1  0  0  0
 61138  1  0  0  0
 62139  1  0  0  0
 62140  1  0  0  0
 62141  1  0  0  0
 63 65  1  0  0  0
 63142  1  0  0  0
 63143  1  0  0  0
 63144  1  0  0  0
 64145  1  0  0  0
 65146  1  0  0  0
 68 83  1  0  0  0
 71 72  2  0  0  0
 71 73  1  0  0  0
 71147  1  0  0  0
 72 80  1  0  0  0
 72 86  1  0  0  0
 73 84  1  0  0  0
 73 87  2  0  0  0
 74 75  1  0  0  0
 74 86  2  0  0  0
 74 87  1  0  0  0
 75148  1  0  0  0
 75149  1  0  0  0
 75150  1  0  0  0
 76151  1  0  0  0
 76152  1  0  0  0
 76153  1  0  0  0
 76 84  1  0  0  0
 77 84  1  0  0  0
 77154  1  0  0  0
 77155  1  0  0  0
 77156  1  0  0  0
 78157  1  0  0  0
 78158  1  0  0  0
 78159  1  0  0  0
 78 85  1  0  0  0
 79 85  1  0  0  0
 79160  1  0  0  0
 79161  1  0  0  0
 79162  1  0  0  0
 80 81  1  0  0  0
 80163  1  0  0  0
 80164  1  0  0  0
 81 82  1  0  0  0
 81165  1  0  0  0
 81166  1  0  0  0
 82 83  1  0  0  0
 82167  1  0  0  0
 82168  1  0  0  0
 83169  1  0  0  0
 83170  1  0  0  0
 84 85  1  0  0  0
M  ISO  4   1 100  68 101  83 101  85 100
M  END
> <chiral flag>
0

> <version>
0

> <s_m_source_file>
/data/baiqing/PycharmProjects/Reinvent-master-3.2/result/LINK_invent/BTK/process_docking_weight1_custom_sum_contain_oxygen_bond_distance_aromatic_linkinvent_7_9_3/rearranged_h_0075.sdf

> <i_m_source_file_index>
33

> <r_mmod_Potential_Energy-OPLS-2005>
-322.11083984375

> <r_mmod_Stretch_Energy-OPLS-2005>
78.5057525634766

> <r_mmod_Bend_Energy-OPLS-2005>
157.816757202148

> <r_mmod_Torsional_Energy-OPLS-2005>
199.55354309082

> <r_mmod_Improper_Torsional_Energy-OPLS-2005>
1.92446708679199

> <r_mmod_Van_der_Waal_Energy-OPLS-2005>
191.751266479492

> <r_mmod_Electrostatic_Energy-OPLS-2005>
-770.498962402344

> <r_mmod_Solvation_Energy-OPLS-2005>
-200.865356445312

> <b_mmod_Minimization_Converged-OPLS-2005>
0

> <r_mmod_RMS_Derivative-OPLS-2005>
2.22319722175598

$$$$
34
                    3D
 Structure written by MMmdl.
160168  0  0  1  0            999 V2000
  -30.5979  -14.7047   20.5641 C   0  0  0  0  0  0
  -30.4576  -12.4776   19.4397 C   0  0  0  0  0  0
  -29.4975  -12.5769   18.2276 C   0  0  0  0  0  0
  -28.0170  -12.4170   18.6361 C   0  0  0  0  0  0
  -27.6629  -13.2162   19.9127 C   0  0  2  0  0  0
  -28.7284  -12.9512   20.9995 C   0  0  0  0  0  0
  -25.2587  -13.8195   20.5769 C   0  0  0  0  0  0
  -24.1842  -13.0450   20.9247 C   0  0  0  0  0  0
  -24.6415  -11.6941   20.8824 C   0  0  0  0  0  0
  -23.9100  -10.4317   21.0499 C   0  0  0  0  0  0
  -24.3648   -9.4227   21.9253 C   0  0  0  0  0  0
  -23.6316   -8.2258   22.0784 C   0  0  0  0  0  0
  -22.4310   -8.0308   21.3554 C   0  0  0  0  0  0
  -21.9968   -9.0312   20.4677 C   0  0  0  0  0  0
  -22.7297  -10.2193   20.3137 C   0  0  0  0  0  0
  -21.6866   -6.0752   22.5270 C   0  0  0  0  0  0
  -21.4014   -6.5638   23.8208 C   0  0  0  0  0  0
  -21.3667   -5.6780   24.9160 C   0  0  0  0  0  0
  -21.6052   -4.3045   24.7208 C   0  0  0  0  0  0
  -21.8810   -3.8156   23.4318 C   0  0  0  0  0  0
  -21.9191   -4.6979   22.3390 C   0  0  0  0  0  0
  -22.7862  -13.5294   21.1802 C   0  0  0  0  0  0
  -22.1654   -4.2172   21.0965 F   0  0  0  0  0  0
  -21.5649   -3.4534   25.7721 F   0  0  0  0  0  0
  -30.0091  -13.4526   20.4623 N   0  0  0  0  0  0
  -26.3050  -12.9352   20.3621 N   0  0  0  0  0  0
  -25.9362  -11.6505   20.5915 N   0  0  0  0  0  0
  -22.0460  -12.8353   22.0397 N   0  0  0  0  0  0
  -25.4161  -15.1907   20.4056 N   0  0  0  0  0  0
  -31.7141  -14.8548   20.0511 O   0  0  0  0  0  0
  -21.6649   -6.8915   21.4248 O   0  0  0  0  0  0
  -22.3608  -14.5601   20.6624 O   0  0  0  0  0  0
  -24.6258  -31.8583   23.2035 C   0  0  0  0  0  0
  -25.9105  -32.4774   23.8347 C   0  0  1  0  0  0
  -27.2094  -27.2876   20.1224 C   0  0  0  0  0  0
  -25.5940  -33.8576   24.2267 N   0  0  0  0  0  0
  -23.4196  -30.4856   21.5464 C   0  0  2  0  0  0
  -24.8623  -28.9394   20.1090 C   0  0  0  0  0  0
  -22.7464  -29.4629   22.4929 C   0  0  0  0  0  0
  -18.0272  -28.1369   22.8509 C   0  0  0  0  0  0
  -24.1488  -36.7270   23.2642 C   0  0  0  0  0  0
  -25.9636  -30.7812   21.3784 C   0  0  0  0  0  0
  -26.0316  -29.4090   20.7157 C   0  0  0  0  0  0
  -27.2062  -28.5928   20.7133 C   0  0  0  0  0  0
  -26.0110  -26.8777   19.4912 C   0  0  0  0  0  0
  -24.8549  -27.6812   19.4877 C   0  0  0  0  0  0
  -23.6342  -29.8258   20.1588 C   0  0  0  0  0  0
  -25.4127  -36.3071   24.0319 C   0  0  1  0  0  0
  -20.5867  -28.3688   23.1277 C   0  0  2  0  0  0
  -20.6772  -26.9423   22.5368 C   0  0  0  0  0  0
  -19.5737  -26.6387   21.5183 C   0  0  0  0  0  0
  -18.1939  -26.7899   22.1674 C   0  0  0  0  0  0
  -19.1523  -28.8842   23.2897 C   0  0  0  0  0  0
  -18.9490  -30.1435   23.8931 C   0  0  0  0  0  0
  -17.6499  -30.6617   24.0588 C   0  0  0  0  0  0
  -25.9059  -34.9441   23.5085 C   0  0  0  0  0  0
  -16.5385  -29.9111   23.6363 C   0  0  0  0  0  0
  -16.7261  -28.6520   23.0365 C   0  0  0  0  0  0
  -26.4475  -31.6599   25.0723 C   0  0  0  0  0  0
  -25.3713  -31.3735   26.1447 C   0  0  0  0  0  0
  -27.0286  -30.3018   24.6201 C   0  0  0  0  0  0
  -27.6038  -32.4310   25.7494 C   0  0  0  0  0  0
  -27.5562  -37.1794   24.8459 C   0  0  0  0  0  0
  -21.4171  -29.3075   22.3683 N   0  0  0  0  0  0
  -26.4278  -37.3781   23.9413 N   0  0  0  0  0  0
  -24.6885  -31.0580   22.1001 N   0  0  0  0  0  0
  -23.4188  -28.8145   23.2984 O   0  0  0  0  0  0
  -28.3381  -26.4462   20.2077 O   0  0  0  0  0  0
  -26.5625  -34.8903   22.4641 O   0  0  0  0  0  0
  -23.5418  -32.1372   23.7369 O   0  0  0  0  0  0
  -29.2966  -18.9090   19.1949 C   0  0  0  0  0  0
  -29.4845  -18.5581   21.3055 C   0  0  0  0  0  0
  -29.0929  -19.5787   20.4526 C   0  0  0  0  0  0
  -28.7780  -15.7357   22.2157 C   0  0  0  0  0  0
  -28.6479  -21.1411   22.3922 C   0  0  0  0  0  0
  -26.9396  -20.8390   20.6085 C   0  0  0  0  0  0
  -28.4811  -23.7826   20.7106 C   0  0  0  0  0  0
  -28.9231  -22.3363   20.1268 C   0  0  0  0  0  0
  -28.3843  -25.0356   19.7134 C   0  0  0  0  0  0
  -29.9850  -16.0031   21.3057 C   0  0  2  0  0  0
  -28.4551  -20.9794   20.8638 C   0  0  0  0  0  0
  -29.6449  -17.6048   19.3084 N   0  0  0  0  0  0
  -29.7587  -17.3550   20.6387 N   0  0  0  0  0  0
  -30.4854  -11.4691   19.8531 H   0  0  0  0  0  0
  -31.4778  -12.6689   19.1027 H   0  0  0  0  0  0
  -29.7580  -11.8225   17.4882 H   0  0  0  0  0  0
  -29.6270  -13.5448   17.7392 H   0  0  0  0  0  0
  -27.8173  -11.3547   18.7915 H   0  0  0  0  0  0
  -27.3675  -12.7320   17.8175 H   0  0  0  0  0  0
  -27.7046  -14.2732   19.6514 H   0  0  0  0  0  0
  -28.4643  -13.3019   21.9897 H   0  0  0  0  0  0
  -28.7977  -11.8760   21.1735 H   0  0  0  0  0  0
  -25.2800   -9.5664   22.4827 H   0  0  0  0  0  0
  -24.0028   -7.4625   22.7483 H   0  0  0  0  0  0
  -21.0909   -8.8877   19.8948 H   0  0  0  0  0  0
  -22.3828  -10.9766   19.6262 H   0  0  0  0  0  0
  -21.2001   -7.6153   23.9728 H   0  0  0  0  0  0
  -21.1502   -6.0500   25.9062 H   0  0  0  0  0  0
  -22.0591   -2.7630   23.2800 H   0  0  0  0  0  0
  -22.4053  -12.0097   22.4935 H   0  0  0  0  0  0
  -21.1050  -13.1416   22.2416 H   0  0  0  0  0  0
  -24.6448  -15.8350   20.5461 H   0  0  0  0  0  0
  -26.2677  -15.6529   20.1105 H   0  0  0  0  0  0
  -26.7191  -32.5442   23.1100 H   0  0  0  0  0  0
  -25.0079  -33.9737   25.0405 H   0  0  0  0  0  0
  -22.7154  -31.3099   21.4081 H   0  0  0  0  0  0
  -23.3746  -35.9592   23.3302 H   0  0  0  0  0  0
  -24.3565  -36.8897   22.2050 H   0  0  0  0  0  0
  -23.7224  -37.6472   23.6662 H   0  0  0  0  0  0
  -26.1004  -31.5475   20.6131 H   0  0  0  0  0  0
  -26.8419  -30.8276   22.0083 H   0  0  0  0  0  0
  -28.1035  -28.9441   21.2026 H   0  0  0  0  0  0
  -25.9061  -25.9181   19.0137 H   0  0  0  0  0  0
  -23.9557  -27.3175   19.0085 H   0  0  0  0  0  0
  -23.7679  -30.6086   19.4104 H   0  0  0  0  0  0
  -22.7473  -29.2703   19.8463 H   0  0  0  0  0  0
  -25.1303  -36.1917   25.0810 H   0  0  0  0  0  0
  -20.9970  -28.3237   24.1400 H   0  0  0  0  0  0
  -20.5735  -26.2281   23.3525 H   0  0  0  0  0  0
  -21.6637  -26.7499   22.1128 H   0  0  0  0  0  0
  -19.6928  -25.6311   21.1206 H   0  0  0  0  0  0
  -19.6638  -27.3203   20.6713 H   0  0  0  0  0  0
  -17.4139  -26.6515   21.4179 H   0  0  0  0  0  0
  -18.0499  -26.0075   22.9147 H   0  0  0  0  0  0
  -19.7991  -30.7208   24.2331 H   0  0  0  0  0  0
  -17.5096  -31.6307   24.5174 H   0  0  0  0  0  0
  -15.5393  -30.3041   23.7711 H   0  0  0  0  0  0
  -15.8640  -28.0880   22.7098 H   0  0  0  0  0  0
  -24.5915  -30.7052   25.7782 H   0  0  0  0  0  0
  -24.8840  -32.2890   26.4826 H   0  0  0  0  0  0
  -25.8036  -30.8958   27.0261 H   0  0  0  0  0  0
  -26.2856  -29.6824   24.1175 H   0  0  0  0  0  0
  -27.3897  -29.7238   25.4725 H   0  0  0  0  0  0
  -27.8763  -30.4269   23.9456 H   0  0  0  0  0  0
  -27.2693  -33.3652   26.2016 H   0  0  0  0  0  0
  -28.3892  -32.6809   25.0343 H   0  0  0  0  0  0
  -28.0665  -31.8475   26.5468 H   0  0  0  0  0  0
  -28.2580  -38.0090   24.7499 H   0  0  0  0  0  0
  -28.1064  -36.2614   24.6307 H   0  0  0  0  0  0
  -27.2268  -37.1466   25.8860 H   0  0  0  0  0  0
  -20.9312  -29.8889   21.6993 H   0  0  0  0  0  0
  -26.0147  -38.2840   24.1462 H   0  0  0  0  0  0
  -29.1244  -19.2924   18.1962 H   0  0  0  0  0  0
  -29.4979  -18.5618   22.3846 H   0  0  0  0  0  0
  -27.9264  -15.4056   21.6309 H   0  0  0  0  0  0
  -29.0176  -15.0076   22.9857 H   0  0  0  0  0  0
  -28.4433  -16.6194   22.7539 H   0  0  0  0  0  0
  -28.2099  -22.0579   22.7816 H   0  0  0  0  0  0
  -29.7004  -21.1340   22.6759 H   0  0  0  0  0  0
  -28.1578  -20.3315   22.9363 H   0  0  0  0  0  0
  -26.5211  -19.9588   21.1024 H   0  0  0  0  0  0
  -26.7188  -20.7422   19.5452 H   0  0  0  0  0  0
  -26.3805  -21.6996   20.9722 H   0  0  0  0  0  0
  -29.1745  -24.0388   21.5141 H   0  0  0  0  0  0
  -27.5151  -23.6920   21.2047 H   0  0  0  0  0  0
  -30.0132  -22.3368   20.0652 H   0  0  0  0  0  0
  -28.5895  -22.2812   19.0900 H   0  0  0  0  0  0
  -27.5992  -24.8154   18.9950 H   0  0  0  0  0  0
  -29.2854  -25.0025   19.1020 H   0  0  0  0  0  0
  -30.7918  -16.2239   22.0066 H   0  0  0  0  0  0
  1 25  1  0  0  0
  1 30  2  0  0  0
  1 80  1  0  0  0
  2  3  1  0  0  0
  2 25  1  0  0  0
  2 84  1  0  0  0
  2 85  1  0  0  0
  3  4  1  0  0  0
  3 86  1  0  0  0
  3 87  1  0  0  0
  4  5  1  0  0  0
  4 88  1  0  0  0
  4 89  1  0  0  0
  5  6  1  0  0  0
  5 26  1  0  0  0
  5 90  1  0  0  0
  6 25  1  0  0  0
  6 91  1  0  0  0
  6 92  1  0  0  0
  7  8  2  0  0  0
  7 26  1  0  0  0
  7 29  1  0  0  0
  8  9  1  0  0  0
  8 22  1  0  0  0
  9 10  1  0  0  0
  9 27  2  0  0  0
 10 11  2  0  0  0
 10 15  1  0  0  0
 11 12  1  0  0  0
 11 93  1  0  0  0
 12 13  2  0  0  0
 12 94  1  0  0  0
 13 14  1  0  0  0
 13 31  1  0  0  0
 14 15  2  0  0  0
 14 95  1  0  0  0
 15 96  1  0  0  0
 16 17  2  0  0  0
 16 21  1  0  0  0
 16 31  1  0  0  0
 17 18  1  0  0  0
 17 97  1  0  0  0
 18 19  2  0  0  0
 18 98  1  0  0  0
 19 20  1  0  0  0
 19 24  1  0  0  0
 20 21  2  0  0  0
 20 99  1  0  0  0
 21 23  1  0  0  0
 22 28  1  0  0  0
 22 32  2  0  0  0
 26 27  1  0  0  0
 28100  1  0  0  0
 28101  1  0  0  0
 29102  1  0  0  0
 29103  1  0  0  0
 33 34  1  0  0  0
 33 66  1  0  0  0
 33 70  2  0  0  0
 34 36  1  0  0  0
 34 59  1  0  0  0
 34104  1  0  0  0
 35 44  2  0  0  0
 35 45  1  0  0  0
 35 68  1  0  0  0
 36 56  1  0  0  0
 36105  1  0  0  0
 37 39  1  0  0  0
 37 47  1  0  0  0
 37 66  1  0  0  0
 37106  1  0  0  0
 38 43  2  0  0  0
 38 46  1  0  0  0
 38 47  1  0  0  0
 39 64  1  0  0  0
 39 67  2  0  0  0
 40 52  1  0  0  0
 40 53  2  0  0  0
 40 58  1  0  0  0
 41107  1  0  0  0
 41108  1  0  0  0
 41109  1  0  0  0
 41 48  1  0  0  0
 42 43  1  0  0  0
 42 66  1  0  0  0
 42110  1  0  0  0
 42111  1  0  0  0
 43 44  1  0  0  0
 44112  1  0  0  0
 45 46  2  0  0  0
 45113  1  0  0  0
 46114  1  0  0  0
 47115  1  0  0  0
 47116  1  0  0  0
 48 56  1  0  0  0
 48 65  1  0  0  0
 48117  1  0  0  0
 49 50  1  0  0  0
 49 53  1  0  0  0
 49 64  1  0  0  0
 49118  1  0  0  0
 50 51  1  0  0  0
 50119  1  0  0  0
 50120  1  0  0  0
 51 52  1  0  0  0
 51121  1  0  0  0
 51122  1  0  0  0
 52123  1  0  0  0
 52124  1  0  0  0
 53 54  1  0  0  0
 54 55  2  0  0  0
 54125  1  0  0  0
 55 57  1  0  0  0
 55126  1  0  0  0
 56 69  2  0  0  0
 57 58  2  0  0  0
 57127  1  0  0  0
 58128  1  0  0  0
 59 60  1  0  0  0
 59 61  1  0  0  0
 59 62  1  0  0  0
 60129  1  0  0  0
 60130  1  0  0  0
 60131  1  0  0  0
 61132  1  0  0  0
 61133  1  0  0  0
 61134  1  0  0  0
 62135  1  0  0  0
 62136  1  0  0  0
 62137  1  0  0  0
 63 65  1  0  0  0
 63138  1  0  0  0
 63139  1  0  0  0
 63140  1  0  0  0
 64141  1  0  0  0
 65142  1  0  0  0
 68 79  1  0  0  0
 71 73  1  0  0  0
 71 82  2  0  0  0
 71143  1  0  0  0
 72 73  2  0  0  0
 72 83  1  0  0  0
 72144  1  0  0  0
 73 81  1  0  0  0
 74145  1  0  0  0
 74146  1  0  0  0
 74147  1  0  0  0
 74 80  1  0  0  0
 75148  1  0  0  0
 75149  1  0  0  0
 75150  1  0  0  0
 75 81  1  0  0  0
 76 81  1  0  0  0
 76151  1  0  0  0
 76152  1  0  0  0
 76153  1  0  0  0
 77 78  1  0  0  0
 77 79  1  0  0  0
 77154  1  0  0  0
 77155  1  0  0  0
 78 81  1  0  0  0
 78156  1  0  0  0
 78157  1  0  0  0
 79158  1  0  0  0
 79159  1  0  0  0
 80 83  1  0  0  0
 80160  1  0  0  0
 82 83  1  0  0  0
M  ISO  4   1 100  68 101  79 101  80 100
M  END
> <chiral flag>
0

> <version>
0

> <s_m_source_file>
/data/baiqing/PycharmProjects/Reinvent-master-3.2/result/LINK_invent/BTK/process_docking_weight1_custom_sum_contain_oxygen_bond_distance_aromatic_linkinvent_7_9_3/rearranged_h_0075.sdf

> <i_m_source_file_index>
34

> <r_mmod_Potential_Energy-OPLS-2005>
259.458099365234

> <r_mmod_Stretch_Energy-OPLS-2005>
113.089706420898

> <r_mmod_Bend_Energy-OPLS-2005>
220.896728515625

> <r_mmod_Torsional_Energy-OPLS-2005>
214.442047119141

> <r_mmod_Improper_Torsional_Energy-OPLS-2005>
3.37545824050903

> <r_mmod_Van_der_Waal_Energy-OPLS-2005>
137.62043762207

> <r_mmod_Electrostatic_Energy-OPLS-2005>
-289.913330078125

> <r_mmod_Solvation_Energy-OPLS-2005>
-203.319259643555

> <b_mmod_Minimization_Converged-OPLS-2005>
0

> <r_mmod_RMS_Derivative-OPLS-2005>
6.46560001373291

$$$$
35
                    3D
 Structure written by MMmdl.
160168  0  0  1  0            999 V2000
  -30.5553  -14.8615   20.3902 C   0  0  0  0  0  0
  -30.4285  -12.5397   19.4553 C   0  0  0  0  0  0
  -29.4899  -12.5245   18.2281 C   0  0  0  0  0  0
  -28.0238  -12.3181   18.6543 C   0  0  0  0  0  0
  -27.6158  -13.2230   19.8514 C   0  0  2  0  0  0
  -28.6809  -13.2135   20.9716 C   0  0  0  0  0  0
  -25.2259  -13.7857   20.6114 C   0  0  0  0  0  0
  -24.1588  -13.0144   20.9349 C   0  0  0  0  0  0
  -24.6263  -11.6684   20.8747 C   0  0  0  0  0  0
  -23.8994  -10.4126   21.0373 C   0  0  0  0  0  0
  -24.3586   -9.4087   21.9168 C   0  0  0  0  0  0
  -23.6246   -8.2141   22.0771 C   0  0  0  0  0  0
  -22.4225   -8.0194   21.3542 C   0  0  0  0  0  0
  -21.9841   -9.0157   20.4642 C   0  0  0  0  0  0
  -22.7179  -10.2012   20.3022 C   0  0  0  0  0  0
  -21.6824   -6.0677   22.5268 C   0  0  0  0  0  0
  -21.3998   -6.5619   23.8192 C   0  0  0  0  0  0
  -21.3659   -5.6774   24.9172 C   0  0  0  0  0  0
  -21.6059   -4.3039   24.7212 C   0  0  0  0  0  0
  -21.8836   -3.8127   23.4339 C   0  0  0  0  0  0
  -21.9192   -4.6922   22.3400 C   0  0  0  0  0  0
  -22.7645  -13.4995   21.1956 C   0  0  0  0  0  0
  -22.1657   -4.2120   21.0957 F   0  0  0  0  0  0
  -21.5642   -3.4534   25.7723 F   0  0  0  0  0  0
  -29.9516  -13.6158   20.3529 N   0  0  0  0  0  0
  -26.2759  -12.9231   20.3419 N   0  0  0  0  0  0
  -25.9182  -11.6358   20.5742 N   0  0  0  0  0  0
  -22.0241  -12.8046   22.0526 N   0  0  0  0  0  0
  -25.3451  -15.1566   20.5248 N   0  0  0  0  0  0
  -31.7718  -14.9164   20.1732 O   0  0  0  0  0  0
  -21.6605   -6.8804   21.4220 O   0  0  0  0  0  0
  -22.3370  -14.5313   20.6739 O   0  0  0  0  0  0
  -24.6281  -31.8520   23.1953 C   0  0  0  0  0  0
  -25.9127  -32.4710   23.8258 C   0  0  1  0  0  0
  -27.2512  -27.2968   20.0841 C   0  0  0  0  0  0
  -25.5950  -33.8529   24.2194 N   0  0  0  0  0  0
  -23.4224  -30.4735   21.5408 C   0  0  2  0  0  0
  -24.8721  -28.9101   20.1091 C   0  0  0  0  0  0
  -22.7478  -29.4580   22.4882 C   0  0  0  0  0  0
  -18.0319  -28.1458   22.8559 C   0  0  0  0  0  0
  -24.1516  -36.7279   23.2649 C   0  0  0  0  0  0
  -25.9662  -30.7589   21.3786 C   0  0  0  0  0  0
  -26.0379  -29.3861   20.7191 C   0  0  0  0  0  0
  -27.2217  -28.5872   20.7033 C   0  0  0  0  0  0
  -26.0489  -26.8590   19.4782 C   0  0  0  0  0  0
  -24.8780  -27.6474   19.4910 C   0  0  0  0  0  0
  -23.6391  -29.7955   20.1600 C   0  0  0  0  0  0
  -25.4146  -36.3039   24.0305 C   0  0  1  0  0  0
  -20.5909  -28.3753   23.1299 C   0  0  2  0  0  0
  -20.6787  -26.9436   22.5497 C   0  0  0  0  0  0
  -19.5763  -26.6537   21.5253 C   0  0  0  0  0  0
  -18.1958  -26.8020   22.1702 C   0  0  0  0  0  0
  -19.1578  -28.8917   23.2943 C   0  0  0  0  0  0
  -18.9492  -30.1542   23.8865 C   0  0  0  0  0  0
  -17.6539  -30.6674   24.0545 C   0  0  0  0  0  0
  -25.9087  -34.9422   23.5057 C   0  0  0  0  0  0
  -16.5394  -29.9186   23.6392 C   0  0  0  0  0  0
  -16.7325  -28.6595   23.0438 C   0  0  0  0  0  0
  -26.4520  -31.6554   25.0654 C   0  0  0  0  0  0
  -25.3706  -31.3705   26.1332 C   0  0  0  0  0  0
  -27.0364  -30.2958   24.6156 C   0  0  0  0  0  0
  -27.6052  -32.4301   25.7430 C   0  0  0  0  0  0
  -27.5565  -37.1814   24.8472 C   0  0  0  0  0  0
  -21.4209  -29.3004   22.3623 N   0  0  0  0  0  0
  -26.4313  -37.3732   23.9365 N   0  0  0  0  0  0
  -24.6923  -31.0474   22.0922 N   0  0  0  0  0  0
  -23.4195  -28.8171   23.3001 O   0  0  0  0  0  0
  -28.4143  -26.4956   20.1436 O   0  0  0  0  0  0
  -26.5645  -34.8920   22.4617 O   0  0  0  0  0  0
  -23.5442  -32.1375   23.7277 O   0  0  0  0  0  0
  -27.5198  -20.4613   20.2142 C   0  0  0  0  0  0
  -26.7710  -19.3404   20.1287 C   0  0  0  0  0  0
  -28.8986  -20.1117   20.1860 C   0  0  0  0  0  0
  -28.9475  -18.6734   20.1539 C   0  0  0  0  0  0
  -31.1592  -17.8834   19.2356 C   0  0  0  0  0  0
  -27.1183  -17.1167   19.1883 C   0  0  0  0  0  0
  -29.9911  -21.2521   20.1026 C   0  0  0  0  0  0
  -29.7471  -22.8420   20.4418 C   0  0  0  0  0  0
  -28.4785  -23.7449   20.0312 C   0  0  0  0  0  0
  -28.6183  -25.2236   19.3967 C   0  0  0  0  0  0
  -30.0892  -17.5612   20.2958 C   0  0  2  0  0  0
  -27.6330  -18.3238   19.7981 N   0  0  0  0  0  0
  -29.7757  -16.0310   20.4270 N   0  0  0  0  0  0
  -31.4533  -12.7166   19.1226 H   0  0  0  0  0  0
  -30.4434  -11.5752   19.9724 H   0  0  0  0  0  0
  -29.7922  -11.7369   17.5369 H   0  0  0  0  0  0
  -29.5881  -13.4678   17.6862 H   0  0  0  0  0  0
  -27.8971  -11.2693   18.9175 H   0  0  0  0  0  0
  -27.3590  -12.5050   17.8084 H   0  0  0  0  0  0
  -27.5728  -14.2244   19.4385 H   0  0  0  0  0  0
  -28.7632  -12.2248   21.4241 H   0  0  0  0  0  0
  -28.4145  -13.8913   21.7851 H   0  0  0  0  0  0
  -25.2746   -9.5608   22.4725 H   0  0  0  0  0  0
  -23.9981   -7.4570   22.7522 H   0  0  0  0  0  0
  -21.0750   -8.8655   19.8970 H   0  0  0  0  0  0
  -22.3639  -10.9541   19.6138 H   0  0  0  0  0  0
  -21.1966   -7.6123   23.9677 H   0  0  0  0  0  0
  -21.1472   -6.0504   25.9054 H   0  0  0  0  0  0
  -22.0617   -2.7576   23.2824 H   0  0  0  0  0  0
  -22.3877  -11.9809   22.5072 H   0  0  0  0  0  0
  -21.0830  -13.1032   22.2639 H   0  0  0  0  0  0
  -24.5452  -15.7540   20.7103 H   0  0  0  0  0  0
  -26.1956  -15.6660   20.3588 H   0  0  0  0  0  0
  -26.7151  -32.5345   23.0950 H   0  0  0  0  0  0
  -25.0035  -33.9664   25.0295 H   0  0  0  0  0  0
  -22.7228  -31.2991   21.3921 H   0  0  0  0  0  0
  -23.3736  -35.9660   23.3356 H   0  0  0  0  0  0
  -24.3605  -36.8847   22.2053 H   0  0  0  0  0  0
  -23.7342  -37.6523   23.6654 H   0  0  0  0  0  0
  -26.1150  -31.5178   20.6115 H   0  0  0  0  0  0
  -26.8386  -30.8013   22.0123 H   0  0  0  0  0  0
  -28.1140  -28.9541   21.1847 H   0  0  0  0  0  0
  -25.9902  -25.8888   19.0016 H   0  0  0  0  0  0
  -23.9794  -27.2726   19.0247 H   0  0  0  0  0  0
  -23.7683  -30.5722   19.4067 H   0  0  0  0  0  0
  -22.7536  -29.2303   19.8544 H   0  0  0  0  0  0
  -25.1362  -36.1865   25.0796 H   0  0  0  0  0  0
  -21.0096  -28.3379   24.1381 H   0  0  0  0  0  0
  -21.6642  -26.7452   22.1315 H   0  0  0  0  0  0
  -20.5558  -26.2344   23.3696 H   0  0  0  0  0  0
  -19.6985  -25.6531   21.1199 H   0  0  0  0  0  0
  -19.6744  -27.3383   20.6816 H   0  0  0  0  0  0
  -17.4170  -26.6621   21.4173 H   0  0  0  0  0  0
  -18.0585  -26.0144   22.9160 H   0  0  0  0  0  0
  -19.8025  -30.7302   24.2237 H   0  0  0  0  0  0
  -17.5204  -31.6329   24.5178 H   0  0  0  0  0  0
  -15.5412  -30.3120   23.7750 H   0  0  0  0  0  0
  -15.8776  -28.0877   22.7182 H   0  0  0  0  0  0
  -24.5889  -30.7074   25.7598 H   0  0  0  0  0  0
  -24.8899  -32.2875   26.4731 H   0  0  0  0  0  0
  -25.7993  -30.8840   27.0092 H   0  0  0  0  0  0
  -26.2942  -29.6657   24.1219 H   0  0  0  0  0  0
  -27.4065  -29.7270   25.4690 H   0  0  0  0  0  0
  -27.8817  -30.4198   23.9387 H   0  0  0  0  0  0
  -27.2641  -33.3582   26.2031 H   0  0  0  0  0  0
  -28.3859  -32.6884   25.0259 H   0  0  0  0  0  0
  -28.0720  -31.8388   26.5313 H   0  0  0  0  0  0
  -28.2639  -38.0051   24.7410 H   0  0  0  0  0  0
  -28.1011  -36.2572   24.6451 H   0  0  0  0  0  0
  -27.2265  -37.1628   25.8877 H   0  0  0  0  0  0
  -20.9392  -29.8802   21.6955 H   0  0  0  0  0  0
  -26.0177  -38.2819   24.1264 H   0  0  0  0  0  0
  -27.0530  -21.4327   20.2274 H   0  0  0  0  0  0
  -25.6964  -19.2138   20.1363 H   0  0  0  0  0  0
  -31.5817  -18.8720   19.4369 H   0  0  0  0  0  0
  -30.7109  -17.9042   18.2404 H   0  0  0  0  0  0
  -31.9967  -17.1890   19.2284 H   0  0  0  0  0  0
  -26.0324  -17.1877   19.1217 H   0  0  0  0  0  0
  -27.3860  -16.2724   19.7964 H   0  0  0  0  0  0
  -27.4780  -16.9664   18.1664 H   0  0  0  0  0  0
  -30.3706  -21.2172   19.0775 H   0  0  0  0  0  0
  -30.8357  -20.9139   20.7027 H   0  0  0  0  0  0
  -30.6225  -23.3771   20.0555 H   0  0  0  0  0  0
  -29.8576  -22.9563   21.5227 H   0  0  0  0  0  0
  -27.7818  -23.7772   20.8725 H   0  0  0  0  0  0
  -27.9634  -23.1833   19.2468 H   0  0  0  0  0  0
  -27.9648  -25.2404   18.5258 H   0  0  0  0  0  0
  -29.6035  -25.2951   18.9230 H   0  0  0  0  0  0
  -30.5579  -17.7832   21.2570 H   0  0  0  0  0  0
  -28.7976  -15.8455   20.5932 H   0  0  0  0  0  0
  1 25  1  0  0  0
  1 30  2  0  0  0
  1 83  1  0  0  0
  2  3  1  0  0  0
  2 25  1  0  0  0
  2 84  1  0  0  0
  2 85  1  0  0  0
  3  4  1  0  0  0
  3 86  1  0  0  0
  3 87  1  0  0  0
  4  5  1  0  0  0
  4 88  1  0  0  0
  4 89  1  0  0  0
  5  6  1  0  0  0
  5 26  1  0  0  0
  5 90  1  0  0  0
  6 25  1  0  0  0
  6 91  1  0  0  0
  6 92  1  0  0  0
  7  8  2  0  0  0
  7 26  1  0  0  0
  7 29  1  0  0  0
  8  9  1  0  0  0
  8 22  1  0  0  0
  9 10  1  0  0  0
  9 27  2  0  0  0
 10 11  2  0  0  0
 10 15  1  0  0  0
 11 12  1  0  0  0
 11 93  1  0  0  0
 12 13  2  0  0  0
 12 94  1  0  0  0
 13 14  1  0  0  0
 13 31  1  0  0  0
 14 15  2  0  0  0
 14 95  1  0  0  0
 15 96  1  0  0  0
 16 17  2  0  0  0
 16 21  1  0  0  0
 16 31  1  0  0  0
 17 18  1  0  0  0
 17 97  1  0  0  0
 18 19  2  0  0  0
 18 98  1  0  0  0
 19 20  1  0  0  0
 19 24  1  0  0  0
 20 21  2  0  0  0
 20 99  1  0  0  0
 21 23  1  0  0  0
 22 28  1  0  0  0
 22 32  2  0  0  0
 26 27  1  0  0  0
 28100  1  0  0  0
 28101  1  0  0  0
 29102  1  0  0  0
 29103  1  0  0  0
 33 34  1  0  0  0
 33 66  1  0  0  0
 33 70  2  0  0  0
 34 36  1  0  0  0
 34 59  1  0  0  0
 34104  1  0  0  0
 35 44  2  0  0  0
 35 45  1  0  0  0
 35 68  1  0  0  0
 36 56  1  0  0  0
 36105  1  0  0  0
 37 39  1  0  0  0
 37 47  1  0  0  0
 37 66  1  0  0  0
 37106  1  0  0  0
 38 43  2  0  0  0
 38 46  1  0  0  0
 38 47  1  0  0  0
 39 64  1  0  0  0
 39 67  2  0  0  0
 40 52  1  0  0  0
 40 53  2  0  0  0
 40 58  1  0  0  0
 41107  1  0  0  0
 41108  1  0  0  0
 41109  1  0  0  0
 41 48  1  0  0  0
 42 43  1  0  0  0
 42 66  1  0  0  0
 42110  1  0  0  0
 42111  1  0  0  0
 43 44  1  0  0  0
 44112  1  0  0  0
 45 46  2  0  0  0
 45113  1  0  0  0
 46114  1  0  0  0
 47115  1  0  0  0
 47116  1  0  0  0
 48 56  1  0  0  0
 48 65  1  0  0  0
 48117  1  0  0  0
 49 50  1  0  0  0
 49 53  1  0  0  0
 49 64  1  0  0  0
 49118  1  0  0  0
 50 51  1  0  0  0
 50119  1  0  0  0
 50120  1  0  0  0
 51 52  1  0  0  0
 51121  1  0  0  0
 51122  1  0  0  0
 52123  1  0  0  0
 52124  1  0  0  0
 53 54  1  0  0  0
 54 55  2  0  0  0
 54125  1  0  0  0
 55 57  1  0  0  0
 55126  1  0  0  0
 56 69  2  0  0  0
 57 58  2  0  0  0
 57127  1  0  0  0
 58128  1  0  0  0
 59 60  1  0  0  0
 59 61  1  0  0  0
 59 62  1  0  0  0
 60129  1  0  0  0
 60130  1  0  0  0
 60131  1  0  0  0
 61132  1  0  0  0
 61133  1  0  0  0
 61134  1  0  0  0
 62135  1  0  0  0
 62136  1  0  0  0
 62137  1  0  0  0
 63 65  1  0  0  0
 63138  1  0  0  0
 63139  1  0  0  0
 63140  1  0  0  0
 64141  1  0  0  0
 65142  1  0  0  0
 68 80  1  0  0  0
 71 72  2  0  0  0
 71 73  1  0  0  0
 71143  1  0  0  0
 72 82  1  0  0  0
 72144  1  0  0  0
 73 74  2  0  0  0
 73 77  1  0  0  0
 74 81  1  0  0  0
 74 82  1  0  0  0
 75145  1  0  0  0
 75146  1  0  0  0
 75147  1  0  0  0
 75 81  1  0  0  0
 76 82  1  0  0  0
 76148  1  0  0  0
 76149  1  0  0  0
 76150  1  0  0  0
 77 78  1  0  0  0
 77151  1  0  0  0
 77152  1  0  0  0
 78 79  1  0  0  0
 78153  1  0  0  0
 78154  1  0  0  0
 79 80  1  0  0  0
 79155  1  0  0  0
 79156  1  0  0  0
 80157  1  0  0  0
 80158  1  0  0  0
 81 83  1  0  0  0
 81159  1  0  0  0
 83160  1  0  0  0
M  ISO  4   1 100  68 101  80 101  83 100
M  END
> <chiral flag>
0

> <version>
0

> <s_m_source_file>
/data/baiqing/PycharmProjects/Reinvent-master-3.2/result/LINK_invent/BTK/process_docking_weight1_custom_sum_contain_oxygen_bond_distance_aromatic_linkinvent_7_9_3/rearranged_h_0075.sdf

> <i_m_source_file_index>
35

> <r_mmod_Potential_Energy-OPLS-2005>
289.184295654297

> <r_mmod_Stretch_Energy-OPLS-2005>
148.678573608398

> <r_mmod_Bend_Energy-OPLS-2005>
244.809417724609

> <r_mmod_Torsional_Energy-OPLS-2005>
260.205047607422

> <r_mmod_Improper_Torsional_Energy-OPLS-2005>
6.05417394638062

> <r_mmod_Van_der_Waal_Energy-OPLS-2005>
128.319152832031

> <r_mmod_Electrostatic_Energy-OPLS-2005>
-401.878845214844

> <r_mmod_Solvation_Energy-OPLS-2005>
-208.245788574219

> <b_mmod_Minimization_Converged-OPLS-2005>
0

> <r_mmod_RMS_Derivative-OPLS-2005>
11.9213695526123

$$$$
36
                    3D
 Structure written by MMmdl.
164172  0  0  1  0            999 V2000
  -30.7148  -14.4612   20.5696 C   0  0  0  0  0  0
  -30.4186  -12.2993   19.4237 C   0  0  0  0  0  0
  -29.4937  -12.4962   18.2057 C   0  0  0  0  0  0
  -28.0138  -12.3631   18.6157 C   0  0  0  0  0  0
  -27.6606  -13.2090   19.8699 C   0  0  2  0  0  0
  -28.7012  -12.9963   20.9921 C   0  0  0  0  0  0
  -25.2574  -13.8160   20.5680 C   0  0  0  0  0  0
  -24.1830  -13.0429   20.9171 C   0  0  0  0  0  0
  -24.6392  -11.6902   20.8717 C   0  0  0  0  0  0
  -23.9070  -10.4279   21.0385 C   0  0  0  0  0  0
  -24.3619   -9.4197   21.9168 C   0  0  0  0  0  0
  -23.6292   -8.2230   22.0747 C   0  0  0  0  0  0
  -22.4266   -8.0279   21.3543 C   0  0  0  0  0  0
  -21.9898   -9.0257   20.4642 C   0  0  0  0  0  0
  -22.7234  -10.2130   20.3046 C   0  0  0  0  0  0
  -21.6844   -6.0734   22.5281 C   0  0  0  0  0  0
  -21.4018   -6.5638   23.8216 C   0  0  0  0  0  0
  -21.3664   -5.6787   24.9178 C   0  0  0  0  0  0
  -21.6043   -4.3049   24.7229 C   0  0  0  0  0  0
  -21.8819   -3.8147   23.4346 C   0  0  0  0  0  0
  -21.9184   -4.6963   22.3402 C   0  0  0  0  0  0
  -22.7848  -13.5234   21.1836 C   0  0  0  0  0  0
  -22.1649   -4.2150   21.0978 F   0  0  0  0  0  0
  -21.5629   -3.4533   25.7741 F   0  0  0  0  0  0
  -30.0337  -13.2916   20.4389 N   0  0  0  0  0  0
  -26.3017  -12.9337   20.3345 N   0  0  0  0  0  0
  -25.9317  -11.6496   20.5747 N   0  0  0  0  0  0
  -22.0484  -12.8245   22.0403 N   0  0  0  0  0  0
  -25.4289  -15.1886   20.4092 N   0  0  0  0  0  0
  -31.8422  -14.6349   20.1047 O   0  0  0  0  0  0
  -21.6629   -6.8881   21.4240 O   0  0  0  0  0  0
  -22.3527  -14.5530   20.6669 O   0  0  0  0  0  0
  -24.6173  -31.8683   23.2144 C   0  0  0  0  0  0
  -25.9066  -32.4821   23.8417 C   0  0  1  0  0  0
  -27.2256  -27.4174   20.0818 C   0  0  0  0  0  0
  -25.5921  -33.8624   24.2335 N   0  0  0  0  0  0
  -23.4052  -30.4974   21.5545 C   0  0  2  0  0  0
  -24.8482  -28.9708   20.1161 C   0  0  0  0  0  0
  -22.7420  -29.4668   22.4974 C   0  0  0  0  0  0
  -18.0277  -28.1376   22.8497 C   0  0  0  0  0  0
  -24.1495  -36.7309   23.2635 C   0  0  0  0  0  0
  -25.9417  -30.8237   21.3792 C   0  0  0  0  0  0
  -26.0141  -29.4627   20.7152 C   0  0  0  0  0  0
  -27.2044  -28.6931   20.6990 C   0  0  0  0  0  0
  -26.0313  -26.9569   19.4693 C   0  0  0  0  0  0
  -24.8518  -27.7154   19.4942 C   0  0  0  0  0  0
  -23.6153  -29.8419   20.1666 C   0  0  0  0  0  0
  -25.4119  -36.3107   24.0332 C   0  0  1  0  0  0
  -20.5871  -28.3668   23.1308 C   0  0  2  0  0  0
  -20.6770  -26.9398   22.5416 C   0  0  0  0  0  0
  -19.5746  -26.6381   21.5219 C   0  0  0  0  0  0
  -18.1923  -26.7923   22.1628 C   0  0  0  0  0  0
  -19.1527  -28.8839   23.2904 C   0  0  0  0  0  0
  -18.9455  -30.1443   23.8917 C   0  0  0  0  0  0
  -17.6456  -30.6581   24.0566 C   0  0  0  0  0  0
  -25.9043  -34.9469   23.5125 C   0  0  0  0  0  0
  -16.5348  -29.9082   23.6328 C   0  0  0  0  0  0
  -16.7266  -28.6500   23.0351 C   0  0  0  0  0  0
  -26.4483  -31.6617   25.0760 C   0  0  0  0  0  0
  -25.3744  -31.3740   26.1509 C   0  0  0  0  0  0
  -27.0320  -30.3045   24.6189 C   0  0  0  0  0  0
  -27.6050  -32.4356   25.7514 C   0  0  0  0  0  0
  -27.5585  -37.1815   24.8462 C   0  0  0  0  0  0
  -21.4145  -29.3037   22.3710 N   0  0  0  0  0  0
  -26.4302  -37.3793   23.9400 N   0  0  0  0  0  0
  -24.6722  -31.0770   22.1055 N   0  0  0  0  0  0
  -23.4192  -28.8180   23.2994 O   0  0  0  0  0  0
  -28.3817  -26.6462   20.1007 O   0  0  0  0  0  0
  -26.5588  -34.8921   22.4675 O   0  0  0  0  0  0
  -23.5365  -32.1441   23.7527 O   0  0  0  0  0  0
  -31.2717  -21.9193   20.3676 C   0  0  0  0  0  0
  -29.4639  -20.3477   20.0771 C   0  0  0  0  0  0
  -29.9049  -21.6903   20.1193 C   0  0  0  0  0  0
  -32.1280  -20.8145   20.5307 C   0  0  0  0  0  0
  -30.3867  -19.2939   20.2635 C   0  0  0  0  0  0
  -33.9449  -20.9412   22.2914 C   0  0  0  0  0  0
  -30.3255  -17.3281   18.6801 C   0  0  0  0  0  0
  -28.9112  -22.8213   19.8491 C   0  0  0  0  0  0
  -33.6071  -21.0163   20.7975 C   0  0  0  0  0  0
  -29.3611  -24.2852   20.1188 C   0  0  0  0  0  0
  -30.4783  -16.8836   21.2224 C   0  0  0  0  0  0
  -28.2071  -25.2514   19.7757 C   0  0  0  0  0  0
  -29.9605  -17.8234   20.0906 C   0  0  1  0  0  0
  -31.7011  -19.5341   20.4713 N   0  0  0  0  0  0
  -30.0248  -15.4804   21.1138 N   0  0  0  0  0  0
  -31.4649  -12.3870   19.1253 H   0  0  0  0  0  0
  -30.3122  -11.2925   19.8298 H   0  0  0  0  0  0
  -29.7320  -11.7671   17.4298 H   0  0  0  0  0  0
  -29.6659  -13.4809   17.7673 H   0  0  0  0  0  0
  -27.8230  -11.3091   18.8203 H   0  0  0  0  0  0
  -27.3665  -12.6315   17.7796 H   0  0  0  0  0  0
  -27.7054  -14.2554   19.5676 H   0  0  0  0  0  0
  -28.6717  -11.9639   21.3447 H   0  0  0  0  0  0
  -28.4646  -13.6069   21.8638 H   0  0  0  0  0  0
  -25.2762   -9.5665   22.4750 H   0  0  0  0  0  0
  -23.9999   -7.4613   22.7456 H   0  0  0  0  0  0
  -21.0834   -8.8787   19.8943 H   0  0  0  0  0  0
  -22.3698  -10.9680   19.6165 H   0  0  0  0  0  0
  -21.2022   -7.6145   23.9730 H   0  0  0  0  0  0
  -21.1480   -6.0511   25.9085 H   0  0  0  0  0  0
  -22.0592   -2.7610   23.2843 H   0  0  0  0  0  0
  -22.4092  -11.9949   22.4869 H   0  0  0  0  0  0
  -21.1093  -13.1266   22.2564 H   0  0  0  0  0  0
  -24.6624  -15.8440   20.5158 H   0  0  0  0  0  0
  -26.2801  -15.6245   20.0794 H   0  0  0  0  0  0
  -26.7128  -32.5513   23.1167 H   0  0  0  0  0  0
  -25.0107  -33.9791   25.0506 H   0  0  0  0  0  0
  -22.6954  -31.3156   21.4200 H   0  0  0  0  0  0
  -23.3754  -35.9644   23.3315 H   0  0  0  0  0  0
  -24.3587  -36.8910   22.2045 H   0  0  0  0  0  0
  -23.7262  -37.6524   23.6642 H   0  0  0  0  0  0
  -26.0761  -31.5972   20.6220 H   0  0  0  0  0  0
  -26.8211  -30.8572   22.0105 H   0  0  0  0  0  0
  -28.1005  -29.0666   21.1750 H   0  0  0  0  0  0
  -25.9710  -26.0066   18.9600 H   0  0  0  0  0  0
  -23.9556  -27.3306   19.0268 H   0  0  0  0  0  0
  -23.7341  -30.6232   19.4145 H   0  0  0  0  0  0
  -22.7372  -29.2706   19.8604 H   0  0  0  0  0  0
  -25.1303  -36.1963   25.0826 H   0  0  0  0  0  0
  -20.9975  -28.3232   24.1424 H   0  0  0  0  0  0
  -20.5686  -26.2263   23.3600 H   0  0  0  0  0  0
  -21.6635  -26.7439   22.1196 H   0  0  0  0  0  0
  -19.6901  -25.6297   21.1234 H   0  0  0  0  0  0
  -19.6685  -27.3201   20.6756 H   0  0  0  0  0  0
  -17.4191  -26.6679   21.4027 H   0  0  0  0  0  0
  -18.0315  -26.0059   22.9016 H   0  0  0  0  0  0
  -19.7932  -30.7253   24.2294 H   0  0  0  0  0  0
  -17.5013  -31.6268   24.5151 H   0  0  0  0  0  0
  -15.5349  -30.2990   23.7651 H   0  0  0  0  0  0
  -15.8663  -28.0826   22.7061 H   0  0  0  0  0  0
  -24.5887  -30.7124   25.7849 H   0  0  0  0  0  0
  -24.8976  -32.2906   26.4990 H   0  0  0  0  0  0
  -25.8091  -30.8875   27.0249 H   0  0  0  0  0  0
  -26.2884  -29.6811   24.1210 H   0  0  0  0  0  0
  -27.4018  -29.7290   25.4685 H   0  0  0  0  0  0
  -27.8758  -30.4342   23.9409 H   0  0  0  0  0  0
  -27.2648  -33.3632   26.2132 H   0  0  0  0  0  0
  -28.3827  -32.6970   25.0323 H   0  0  0  0  0  0
  -28.0759  -31.8469   26.5398 H   0  0  0  0  0  0
  -28.2610  -38.0105   24.7502 H   0  0  0  0  0  0
  -28.1074  -36.2637   24.6299 H   0  0  0  0  0  0
  -27.2292  -37.1481   25.8861 H   0  0  0  0  0  0
  -20.9293  -29.8769   21.6950 H   0  0  0  0  0  0
  -26.0186  -38.2868   24.1408 H   0  0  0  0  0  0
  -31.6742  -22.9216   20.4193 H   0  0  0  0  0  0
  -28.4270  -20.1246   19.8677 H   0  0  0  0  0  0
  -35.0124  -21.0846   22.4581 H   0  0  0  0  0  0
  -33.6673  -19.9701   22.7028 H   0  0  0  0  0  0
  -33.4103  -21.7081   22.8521 H   0  0  0  0  0  0
  -29.9357  -18.0074   17.9218 H   0  0  0  0  0  0
  -29.9072  -16.3439   18.4720 H   0  0  0  0  0  0
  -31.4064  -17.2704   18.5516 H   0  0  0  0  0  0
  -28.0181  -22.6117   20.4400 H   0  0  0  0  0  0
  -28.6065  -22.7319   18.8047 H   0  0  0  0  0  0
  -33.9173  -21.9809   20.3932 H   0  0  0  0  0  0
  -34.1764  -20.2617   20.2524 H   0  0  0  0  0  0
  -30.2368  -24.5341   19.5189 H   0  0  0  0  0  0
  -29.6420  -24.3971   21.1658 H   0  0  0  0  0  0
  -30.1462  -17.2694   22.1877 H   0  0  0  0  0  0
  -31.5692  -16.9166   21.2531 H   0  0  0  0  0  0
  -27.3315  -24.8747   20.3080 H   0  0  0  0  0  0
  -28.0027  -25.1669   18.7068 H   0  0  0  0  0  0
  -28.8711  -17.8122   20.1515 H   0  0  0  0  0  0
  -29.1011  -15.2693   21.4604 H   0  0  0  0  0  0
  1 25  1  0  0  0
  1 30  2  0  0  0
  1 85  1  0  0  0
  2  3  1  0  0  0
  2 25  1  0  0  0
  2 86  1  0  0  0
  2 87  1  0  0  0
  3  4  1  0  0  0
  3 88  1  0  0  0
  3 89  1  0  0  0
  4  5  1  0  0  0
  4 90  1  0  0  0
  4 91  1  0  0  0
  5  6  1  0  0  0
  5 26  1  0  0  0
  5 92  1  0  0  0
  6 25  1  0  0  0
  6 93  1  0  0  0
  6 94  1  0  0  0
  7  8  2  0  0  0
  7 26  1  0  0  0
  7 29  1  0  0  0
  8  9  1  0  0  0
  8 22  1  0  0  0
  9 10  1  0  0  0
  9 27  2  0  0  0
 10 11  2  0  0  0
 10 15  1  0  0  0
 11 12  1  0  0  0
 11 95  1  0  0  0
 12 13  2  0  0  0
 12 96  1  0  0  0
 13 14  1  0  0  0
 13 31  1  0  0  0
 14 15  2  0  0  0
 14 97  1  0  0  0
 15 98  1  0  0  0
 16 17  2  0  0  0
 16 21  1  0  0  0
 16 31  1  0  0  0
 17 18  1  0  0  0
 17 99  1  0  0  0
 18 19  2  0  0  0
 18100  1  0  0  0
 19 20  1  0  0  0
 19 24  1  0  0  0
 20 21  2  0  0  0
 20101  1  0  0  0
 21 23  1  0  0  0
 22 28  1  0  0  0
 22 32  2  0  0  0
 26 27  1  0  0  0
 28102  1  0  0  0
 28103  1  0  0  0
 29104  1  0  0  0
 29105  1  0  0  0
 33 34  1  0  0  0
 33 66  1  0  0  0
 33 70  2  0  0  0
 34 36  1  0  0  0
 34 59  1  0  0  0
 34106  1  0  0  0
 35 44  2  0  0  0
 35 45  1  0  0  0
 35 68  1  0  0  0
 36 56  1  0  0  0
 36107  1  0  0  0
 37 39  1  0  0  0
 37 47  1  0  0  0
 37 66  1  0  0  0
 37108  1  0  0  0
 38 43  2  0  0  0
 38 46  1  0  0  0
 38 47  1  0  0  0
 39 64  1  0  0  0
 39 67  2  0  0  0
 40 52  1  0  0  0
 40 53  2  0  0  0
 40 58  1  0  0  0
 41109  1  0  0  0
 41110  1  0  0  0
 41111  1  0  0  0
 41 48  1  0  0  0
 42 43  1  0  0  0
 42 66  1  0  0  0
 42112  1  0  0  0
 42113  1  0  0  0
 43 44  1  0  0  0
 44114  1  0  0  0
 45 46  2  0  0  0
 45115  1  0  0  0
 46116  1  0  0  0
 47117  1  0  0  0
 47118  1  0  0  0
 48 56  1  0  0  0
 48 65  1  0  0  0
 48119  1  0  0  0
 49 50  1  0  0  0
 49 53  1  0  0  0
 49 64  1  0  0  0
 49120  1  0  0  0
 50 51  1  0  0  0
 50121  1  0  0  0
 50122  1  0  0  0
 51 52  1  0  0  0
 51123  1  0  0  0
 51124  1  0  0  0
 52125  1  0  0  0
 52126  1  0  0  0
 53 54  1  0  0  0
 54 55  2  0  0  0
 54127  1  0  0  0
 55 57  1  0  0  0
 55128  1  0  0  0
 56 69  2  0  0  0
 57 58  2  0  0  0
 57129  1  0  0  0
 58130  1  0  0  0
 59 60  1  0  0  0
 59 61  1  0  0  0
 59 62  1  0  0  0
 60131  1  0  0  0
 60132  1  0  0  0
 60133  1  0  0  0
 61134  1  0  0  0
 61135  1  0  0  0
 61136  1  0  0  0
 62137  1  0  0  0
 62138  1  0  0  0
 62139  1  0  0  0
 63 65  1  0  0  0
 63140  1  0  0  0
 63141  1  0  0  0
 63142  1  0  0  0
 64143  1  0  0  0
 65144  1  0  0  0
 68 82  1  0  0  0
 71 73  2  0  0  0
 71 74  1  0  0  0
 71145  1  0  0  0
 72 73  1  0  0  0
 72 75  2  0  0  0
 72146  1  0  0  0
 73 78  1  0  0  0
 74 79  1  0  0  0
 74 84  2  0  0  0
 75 83  1  0  0  0
 75 84  1  0  0  0
 76 79  1  0  0  0
 76147  1  0  0  0
 76148  1  0  0  0
 76149  1  0  0  0
 77150  1  0  0  0
 77151  1  0  0  0
 77152  1  0  0  0
 77 83  1  0  0  0
 78 80  1  0  0  0
 78153  1  0  0  0
 78154  1  0  0  0
 79155  1  0  0  0
 79156  1  0  0  0
 80 82  1  0  0  0
 80157  1  0  0  0
 80158  1  0  0  0
 81 83  1  0  0  0
 81 85  1  0  0  0
 81159  1  0  0  0
 81160  1  0  0  0
 82161  1  0  0  0
 82162  1  0  0  0
 83163  1  0  0  0
 85164  1  0  0  0
M  ISO  4   1 100  68 101  82 101  85 100
M  END
> <chiral flag>
0

> <version>
0

> <s_m_source_file>
/data/baiqing/PycharmProjects/Reinvent-master-3.2/result/LINK_invent/BTK/process_docking_weight1_custom_sum_contain_oxygen_bond_distance_aromatic_linkinvent_7_9_3/rearranged_h_0075.sdf

> <i_m_source_file_index>
36

> <r_mmod_Potential_Energy-OPLS-2005>
-282.860076904297

> <r_mmod_Stretch_Energy-OPLS-2005>
39.4009971618652

> <r_mmod_Bend_Energy-OPLS-2005>
100.1357421875

> <r_mmod_Torsional_Energy-OPLS-2005>
176.101821899414

> <r_mmod_Improper_Torsional_Energy-OPLS-2005>
3.59748435020447

> <r_mmod_Van_der_Waal_Energy-OPLS-2005>
160.80207824707

> <r_mmod_Electrostatic_Energy-OPLS-2005>
-557.925659179688

> <r_mmod_Solvation_Energy-OPLS-2005>
-219.910308837891

> <b_mmod_Minimization_Converged-OPLS-2005>
0

> <r_mmod_RMS_Derivative-OPLS-2005>
2.00279808044434

$$$$
37
                    3D
 Structure written by MMmdl.
160168  0  0  1  0            999 V2000
  -30.5860  -14.7735   20.3866 C   0  0  0  0  0  0
  -30.4426  -12.4499   19.4862 C   0  0  0  0  0  0
  -29.5182  -12.4727   18.2454 C   0  0  0  0  0  0
  -28.0355  -12.3349   18.6508 C   0  0  0  0  0  0
  -27.6410  -13.2170   19.8664 C   0  0  2  0  0  0
  -28.6970  -13.1621   20.9922 C   0  0  0  0  0  0
  -25.2517  -13.8114   20.5732 C   0  0  0  0  0  0
  -24.1771  -13.0341   20.9224 C   0  0  0  0  0  0
  -24.6340  -11.6849   20.8719 C   0  0  0  0  0  0
  -23.8984  -10.4240   21.0395 C   0  0  0  0  0  0
  -24.3556   -9.4177   21.9166 C   0  0  0  0  0  0
  -23.6270   -8.2193   22.0754 C   0  0  0  0  0  0
  -22.4266   -8.0226   21.3540 C   0  0  0  0  0  0
  -21.9872   -9.0186   20.4640 C   0  0  0  0  0  0
  -22.7160  -10.2094   20.3065 C   0  0  0  0  0  0
  -21.6831   -6.0676   22.5244 C   0  0  0  0  0  0
  -21.3995   -6.5575   23.8177 C   0  0  0  0  0  0
  -21.3700   -5.6754   24.9138 C   0  0  0  0  0  0
  -21.6067   -4.3027   24.7220 C   0  0  0  0  0  0
  -21.8825   -3.8097   23.4354 C   0  0  0  0  0  0
  -21.9200   -4.6895   22.3389 C   0  0  0  0  0  0
  -22.7824  -13.5163   21.1879 C   0  0  0  0  0  0
  -22.1708   -4.2095   21.0977 F   0  0  0  0  0  0
  -21.5660   -3.4522   25.7749 F   0  0  0  0  0  0
  -30.0055  -13.5177   20.4168 N   0  0  0  0  0  0
  -26.2928  -12.9266   20.3392 N   0  0  0  0  0  0
  -25.9282  -11.6418   20.5784 N   0  0  0  0  0  0
  -22.0511  -12.8103   22.0457 N   0  0  0  0  0  0
  -25.4168  -15.1838   20.4191 N   0  0  0  0  0  0
  -31.7987  -14.8554   20.1755 O   0  0  0  0  0  0
  -21.6659   -6.8823   21.4205 O   0  0  0  0  0  0
  -22.3480  -14.5462   20.6776 O   0  0  0  0  0  0
  -24.6177  -31.8639   23.2042 C   0  0  0  0  0  0
  -25.9053  -32.4803   23.8372 C   0  0  1  0  0  0
  -27.2281  -27.3424   20.1315 C   0  0  0  0  0  0
  -25.5901  -33.8606   24.2297 N   0  0  0  0  0  0
  -23.4127  -30.4782   21.5494 C   0  0  2  0  0  0
  -24.8619  -28.9293   20.1205 C   0  0  0  0  0  0
  -22.7443  -29.4607   22.5018 C   0  0  0  0  0  0
  -18.0292  -28.1341   22.8497 C   0  0  0  0  0  0
  -24.1506  -36.7286   23.2633 C   0  0  0  0  0  0
  -25.9505  -30.7975   21.3772 C   0  0  0  0  0  0
  -26.0267  -29.4248   20.7190 C   0  0  0  0  0  0
  -27.2148  -28.6422   20.7158 C   0  0  0  0  0  0
  -26.0464  -26.8850   19.5130 C   0  0  0  0  0  0
  -24.8701  -27.6623   19.5110 C   0  0  0  0  0  0
  -23.6242  -29.8022   20.1687 C   0  0  0  0  0  0
  -25.4137  -36.3113   24.0333 C   0  0  1  0  0  0
  -20.5882  -28.3631   23.1328 C   0  0  2  0  0  0
  -20.6807  -26.9365   22.5426 C   0  0  0  0  0  0
  -19.5807  -26.6349   21.5216 C   0  0  0  0  0  0
  -18.1963  -26.7894   22.1599 C   0  0  0  0  0  0
  -19.1537  -28.8807   23.2893 C   0  0  0  0  0  0
  -18.9457  -30.1420   23.8885 C   0  0  0  0  0  0
  -17.6455  -30.6555   24.0529 C   0  0  0  0  0  0
  -25.9063  -34.9469   23.5116 C   0  0  0  0  0  0
  -16.5349  -29.9044   23.6320 C   0  0  0  0  0  0
  -16.7274  -28.6453   23.0366 C   0  0  0  0  0  0
  -26.4432  -31.6608   25.0732 C   0  0  0  0  0  0
  -25.3641  -31.3758   26.1441 C   0  0  0  0  0  0
  -27.0263  -30.3048   24.6146 C   0  0  0  0  0  0
  -27.6012  -32.4310   25.7480 C   0  0  0  0  0  0
  -27.5617  -37.1791   24.8441 C   0  0  0  0  0  0
  -21.4179  -29.2970   22.3720 N   0  0  0  0  0  0
  -26.4322  -37.3804   23.9396 N   0  0  0  0  0  0
  -24.6781  -31.0633   22.1000 N   0  0  0  0  0  0
  -23.4178  -28.8194   23.3122 O   0  0  0  0  0  0
  -28.3570  -26.5232   20.1355 O   0  0  0  0  0  0
  -26.5629  -34.8928   22.4685 O   0  0  0  0  0  0
  -23.5352  -32.1424   23.7390 O   0  0  0  0  0  0
  -29.7553  -19.8683   20.4462 C   0  0  0  0  0  0
  -30.9599  -19.5817   21.0574 C   0  0  0  0  0  0
  -30.0318  -17.6016   20.5363 C   0  0  0  0  0  0
  -31.9792  -20.5960   21.4903 C   0  0  0  0  0  0
  -29.4163  -16.1472   18.6273 C   0  0  0  0  0  0
  -32.2477  -17.4614   21.7437 C   0  0  0  0  0  0
  -29.1776  -21.2203   19.8765 C   0  0  0  0  0  0
  -29.0023  -22.5464   20.7633 C   0  0  0  0  0  0
  -28.7389  -23.9203   19.9697 C   0  0  0  0  0  0
  -28.2567  -25.2069   20.7881 C   0  0  0  0  0  0
  -29.6714  -16.0935   20.1584 C   0  0  1  0  0  0
  -29.1779  -18.6073   20.1907 N   0  0  0  0  0  0
  -31.1153  -18.1646   21.1458 N   0  0  0  0  0  0
  -31.4860  -12.5719   19.1861 H   0  0  0  0  0  0
  -30.3846  -11.4787   19.9796 H   0  0  0  0  0  0
  -29.7814  -11.6600   17.5669 H   0  0  0  0  0  0
  -29.6852  -13.3841   17.6762 H   0  0  0  0  0  0
  -27.8639  -11.2865   18.8953 H   0  0  0  0  0  0
  -27.3883  -12.5489   17.8018 H   0  0  0  0  0  0
  -27.6081  -14.2371   19.5057 H   0  0  0  0  0  0
  -28.7486  -12.1613   21.4282 H   0  0  0  0  0  0
  -28.4312  -13.8301   21.8127 H   0  0  0  0  0  0
  -25.2708   -9.5668   22.4726 H   0  0  0  0  0  0
  -24.0000   -7.4567   22.7429 H   0  0  0  0  0  0
  -21.0838   -8.8657   19.8904 H   0  0  0  0  0  0
  -22.3591  -10.9634   19.6187 H   0  0  0  0  0  0
  -21.1976   -7.6086   23.9655 H   0  0  0  0  0  0
  -21.1549   -6.0499   25.9049 H   0  0  0  0  0  0
  -22.0603   -2.7569   23.2847 H   0  0  0  0  0  0
  -22.4190  -11.9763   22.4768 H   0  0  0  0  0  0
  -21.1159  -13.1109   22.2767 H   0  0  0  0  0  0
  -24.6377  -15.8290   20.5135 H   0  0  0  0  0  0
  -26.2598  -15.6338   20.0822 H   0  0  0  0  0  0
  -26.7100  -32.5480   23.1109 H   0  0  0  0  0  0
  -25.0077  -33.9779   25.0460 H   0  0  0  0  0  0
  -22.7025  -31.2951   21.4050 H   0  0  0  0  0  0
  -23.3832  -35.9552   23.3259 H   0  0  0  0  0  0
  -24.3610  -36.8939   22.2055 H   0  0  0  0  0  0
  -23.7177  -37.6439   23.6671 H   0  0  0  0  0  0
  -26.0842  -31.5649   20.6159 H   0  0  0  0  0  0
  -26.8266  -30.8392   22.0107 H   0  0  0  0  0  0
  -28.1168  -29.0193   21.1827 H   0  0  0  0  0  0
  -26.0382  -25.9169   19.0375 H   0  0  0  0  0  0
  -23.9761  -27.2713   19.0527 H   0  0  0  0  0  0
  -23.7304  -30.5706   19.4027 H   0  0  0  0  0  0
  -22.7483  -29.2171   19.8804 H   0  0  0  0  0  0
  -25.1321  -36.1997   25.0828 H   0  0  0  0  0  0
  -20.9948  -28.3204   24.1463 H   0  0  0  0  0  0
  -20.5768  -26.2216   23.3603 H   0  0  0  0  0  0
  -21.6689  -26.7454   22.1194 H   0  0  0  0  0  0
  -19.6986  -25.6264   21.1251 H   0  0  0  0  0  0
  -19.6787  -27.3162   20.6755 H   0  0  0  0  0  0
  -17.4260  -26.6660   21.3962 H   0  0  0  0  0  0
  -18.0338  -26.0001   22.8956 H   0  0  0  0  0  0
  -19.7930  -30.7232   24.2269 H   0  0  0  0  0  0
  -17.5006  -31.6254   24.5091 H   0  0  0  0  0  0
  -15.5355  -30.2926   23.7646 H   0  0  0  0  0  0
  -15.8687  -28.0739   22.7122 H   0  0  0  0  0  0
  -24.5773  -30.7183   25.7722 H   0  0  0  0  0  0
  -24.8883  -32.2939   26.4890 H   0  0  0  0  0  0
  -25.7912  -30.8863   27.0199 H   0  0  0  0  0  0
  -26.2846  -29.6854   24.1095 H   0  0  0  0  0  0
  -27.3902  -29.7243   25.4627 H   0  0  0  0  0  0
  -27.8735  -30.4374   23.9418 H   0  0  0  0  0  0
  -27.2651  -33.3580   26.2131 H   0  0  0  0  0  0
  -28.3777  -32.6913   25.0275 H   0  0  0  0  0  0
  -28.0728  -31.8383   26.5321 H   0  0  0  0  0  0
  -28.2592  -38.0135   24.7600 H   0  0  0  0  0  0
  -28.1173  -36.2681   24.6169 H   0  0  0  0  0  0
  -27.2337  -37.1303   25.8838 H   0  0  0  0  0  0
  -20.9373  -29.8562   21.6812 H   0  0  0  0  0  0
  -26.0236  -38.2876   24.1449 H   0  0  0  0  0  0
  -31.5971  -21.2049   22.3104 H   0  0  0  0  0  0
  -32.1932  -21.2851   20.6754 H   0  0  0  0  0  0
  -32.9292  -20.1592   21.7989 H   0  0  0  0  0  0
  -28.7782  -16.9803   18.3318 H   0  0  0  0  0  0
  -28.9216  -15.2659   18.2476 H   0  0  0  0  0  0
  -30.3535  -16.2539   18.0781 H   0  0  0  0  0  0
  -32.7067  -18.0358   22.5498 H   0  0  0  0  0  0
  -32.9984  -17.2342   20.9827 H   0  0  0  0  0  0
  -31.9013  -16.5299   22.1909 H   0  0  0  0  0  0
  -28.2016  -21.0203   19.4237 H   0  0  0  0  0  0
  -29.8114  -21.5026   19.0297 H   0  0  0  0  0  0
  -29.8966  -22.6927   21.3729 H   0  0  0  0  0  0
  -28.1931  -22.3851   21.4781 H   0  0  0  0  0  0
  -28.0088  -23.7361   19.1765 H   0  0  0  0  0  0
  -29.6583  -24.1880   19.4402 H   0  0  0  0  0  0
  -28.8651  -25.2915   21.6872 H   0  0  0  0  0  0
  -27.2430  -25.0459   21.1667 H   0  0  0  0  0  0
  -28.7296  -15.9065   20.6683 H   0  0  0  0  0  0
  1 25  1  0  0  0
  1 30  2  0  0  0
  1 81  1  0  0  0
  2  3  1  0  0  0
  2 25  1  0  0  0
  2 84  1  0  0  0
  2 85  1  0  0  0
  3  4  1  0  0  0
  3 86  1  0  0  0
  3 87  1  0  0  0
  4  5  1  0  0  0
  4 88  1  0  0  0
  4 89  1  0  0  0
  5  6  1  0  0  0
  5 26  1  0  0  0
  5 90  1  0  0  0
  6 25  1  0  0  0
  6 91  1  0  0  0
  6 92  1  0  0  0
  7  8  2  0  0  0
  7 26  1  0  0  0
  7 29  1  0  0  0
  8  9  1  0  0  0
  8 22  1  0  0  0
  9 10  1  0  0  0
  9 27  2  0  0  0
 10 11  2  0  0  0
 10 15  1  0  0  0
 11 12  1  0  0  0
 11 93  1  0  0  0
 12 13  2  0  0  0
 12 94  1  0  0  0
 13 14  1  0  0  0
 13 31  1  0  0  0
 14 15  2  0  0  0
 14 95  1  0  0  0
 15 96  1  0  0  0
 16 17  2  0  0  0
 16 21  1  0  0  0
 16 31  1  0  0  0
 17 18  1  0  0  0
 17 97  1  0  0  0
 18 19  2  0  0  0
 18 98  1  0  0  0
 19 20  1  0  0  0
 19 24  1  0  0  0
 20 21  2  0  0  0
 20 99  1  0  0  0
 21 23  1  0  0  0
 22 28  1  0  0  0
 22 32  2  0  0  0
 26 27  1  0  0  0
 28100  1  0  0  0
 28101  1  0  0  0
 29102  1  0  0  0
 29103  1  0  0  0
 33 34  1  0  0  0
 33 66  1  0  0  0
 33 70  2  0  0  0
 34 36  1  0  0  0
 34 59  1  0  0  0
 34104  1  0  0  0
 35 44  2  0  0  0
 35 45  1  0  0  0
 35 68  1  0  0  0
 36 56  1  0  0  0
 36105  1  0  0  0
 37 39  1  0  0  0
 37 47  1  0  0  0
 37 66  1  0  0  0
 37106  1  0  0  0
 38 43  2  0  0  0
 38 46  1  0  0  0
 38 47  1  0  0  0
 39 64  1  0  0  0
 39 67  2  0  0  0
 40 52  1  0  0  0
 40 53  2  0  0  0
 40 58  1  0  0  0
 41107  1  0  0  0
 41108  1  0  0  0
 41109  1  0  0  0
 41 48  1  0  0  0
 42 43  1  0  0  0
 42 66  1  0  0  0
 42110  1  0  0  0
 42111  1  0  0  0
 43 44  1  0  0  0
 44112  1  0  0  0
 45 46  2  0  0  0
 45113  1  0  0  0
 46114  1  0  0  0
 47115  1  0  0  0
 47116  1  0  0  0
 48 56  1  0  0  0
 48 65  1  0  0  0
 48117  1  0  0  0
 49 50  1  0  0  0
 49 53  1  0  0  0
 49 64  1  0  0  0
 49118  1  0  0  0
 50 51  1  0  0  0
 50119  1  0  0  0
 50120  1  0  0  0
 51 52  1  0  0  0
 51121  1  0  0  0
 51122  1  0  0  0
 52123  1  0  0  0
 52124  1  0  0  0
 53 54  1  0  0  0
 54 55  2  0  0  0
 54125  1  0  0  0
 55 57  1  0  0  0
 55126  1  0  0  0
 56 69  2  0  0  0
 57 58  2  0  0  0
 57127  1  0  0  0
 58128  1  0  0  0
 59 60  1  0  0  0
 59 61  1  0  0  0
 59 62  1  0  0  0
 60129  1  0  0  0
 60130  1  0  0  0
 60131  1  0  0  0
 61132  1  0  0  0
 61133  1  0  0  0
 61134  1  0  0  0
 62135  1  0  0  0
 62136  1  0  0  0
 62137  1  0  0  0
 63 65  1  0  0  0
 63138  1  0  0  0
 63139  1  0  0  0
 63140  1  0  0  0
 64141  1  0  0  0
 65142  1  0  0  0
 68 80  1  0  0  0
 71 72  2  0  0  0
 71 77  1  0  0  0
 71 82  1  0  0  0
 72 74  1  0  0  0
 72 83  1  0  0  0
 73 81  1  0  0  0
 73 82  2  0  0  0
 73 83  1  0  0  0
 74143  1  0  0  0
 74144  1  0  0  0
 74145  1  0  0  0
 75146  1  0  0  0
 75147  1  0  0  0
 75148  1  0  0  0
 75 81  1  0  0  0
 76 83  1  0  0  0
 76149  1  0  0  0
 76150  1  0  0  0
 76151  1  0  0  0
 77 78  1  0  0  0
 77152  1  0  0  0
 77153  1  0  0  0
 78 79  1  0  0  0
 78154  1  0  0  0
 78155  1  0  0  0
 79 80  1  0  0  0
 79156  1  0  0  0
 79157  1  0  0  0
 80158  1  0  0  0
 80159  1  0  0  0
 81160  1  0  0  0
M  ISO  4   1 100  68 101  80 101  81 100
M  END
> <chiral flag>
0

> <version>
0

> <s_m_source_file>
/data/baiqing/PycharmProjects/Reinvent-master-3.2/result/LINK_invent/BTK/process_docking_weight1_custom_sum_contain_oxygen_bond_distance_aromatic_linkinvent_7_9_3/rearranged_h_0075.sdf

> <i_m_source_file_index>
37

> <r_mmod_Potential_Energy-OPLS-2005>
219.482315063477

> <r_mmod_Stretch_Energy-OPLS-2005>
106.948089599609

> <r_mmod_Bend_Energy-OPLS-2005>
201.382843017578

> <r_mmod_Torsional_Energy-OPLS-2005>
229.868560791016

> <r_mmod_Improper_Torsional_Energy-OPLS-2005>
12.8549127578735

> <r_mmod_Van_der_Waal_Energy-OPLS-2005>
118.440849304199

> <r_mmod_Electrostatic_Energy-OPLS-2005>
-324.588348388672

> <r_mmod_Solvation_Energy-OPLS-2005>
-198.80029296875

> <b_mmod_Minimization_Converged-OPLS-2005>
0

> <r_mmod_RMS_Derivative-OPLS-2005>
7.27560901641846

$$$$
38
                    3D
 Structure written by MMmdl.
173181  0  0  1  0            999 V2000
  -30.7236  -14.4595   20.6096 C   0  0  0  0  0  0
  -30.4202  -12.3114   19.4108 C   0  0  0  0  0  0
  -29.4861  -12.5087   18.2001 C   0  0  0  0  0  0
  -28.0097  -12.3646   18.6169 C   0  0  0  0  0  0
  -27.6614  -13.2083   19.8711 C   0  0  2  0  0  0
  -28.7059  -12.9887   20.9868 C   0  0  0  0  0  0
  -25.2599  -13.8159   20.5666 C   0  0  0  0  0  0
  -24.1856  -13.0432   20.9172 C   0  0  0  0  0  0
  -24.6417  -11.6904   20.8742 C   0  0  0  0  0  0
  -23.9084  -10.4283   21.0411 C   0  0  0  0  0  0
  -24.3626   -9.4197   21.9188 C   0  0  0  0  0  0
  -23.6293   -8.2235   22.0754 C   0  0  0  0  0  0
  -22.4267   -8.0283   21.3545 C   0  0  0  0  0  0
  -21.9916   -9.0262   20.4644 C   0  0  0  0  0  0
  -22.7259  -10.2137   20.3057 C   0  0  0  0  0  0
  -21.6841   -6.0743   22.5282 C   0  0  0  0  0  0
  -21.4010   -6.5647   23.8213 C   0  0  0  0  0  0
  -21.3658   -5.6798   24.9174 C   0  0  0  0  0  0
  -21.6047   -4.3061   24.7228 C   0  0  0  0  0  0
  -21.8816   -3.8155   23.4343 C   0  0  0  0  0  0
  -21.9191   -4.6972   22.3402 C   0  0  0  0  0  0
  -22.7878  -13.5228   21.1844 C   0  0  0  0  0  0
  -22.1657   -4.2160   21.0978 F   0  0  0  0  0  0
  -21.5629   -3.4552   25.7739 F   0  0  0  0  0  0
  -30.0344  -13.2956   20.4352 N   0  0  0  0  0  0
  -26.3036  -12.9335   20.3353 N   0  0  0  0  0  0
  -25.9343  -11.6490   20.5784 N   0  0  0  0  0  0
  -22.0533  -12.8197   22.0393 N   0  0  0  0  0  0
  -25.4286  -15.1877   20.4052 N   0  0  0  0  0  0
  -31.8323  -14.6280   20.0942 O   0  0  0  0  0  0
  -21.6631   -6.8885   21.4241 O   0  0  0  0  0  0
  -22.3556  -14.5541   20.6712 O   0  0  0  0  0  0
  -24.6191  -31.8682   23.2136 C   0  0  0  0  0  0
  -25.9088  -32.4815   23.8408 C   0  0  1  0  0  0
  -27.2143  -27.4000   20.0940 C   0  0  0  0  0  0
  -25.5943  -33.8602   24.2324 N   0  0  0  0  0  0
  -23.4055  -30.4972   21.5557 C   0  0  2  0  0  0
  -24.8471  -28.9769   20.1112 C   0  0  0  0  0  0
  -22.7468  -29.4630   22.4981 C   0  0  0  0  0  0
  -18.0294  -28.1368   22.8463 C   0  0  0  0  0  0
  -24.1496  -36.7299   23.2638 C   0  0  0  0  0  0
  -25.9436  -30.8244   21.3758 C   0  0  0  0  0  0
  -26.0161  -29.4626   20.7112 C   0  0  0  0  0  0
  -27.2020  -28.6841   20.6988 C   0  0  0  0  0  0
  -26.0221  -26.9581   19.4664 C   0  0  0  0  0  0
  -24.8488  -27.7258   19.4834 C   0  0  0  0  0  0
  -23.6149  -29.8491   20.1645 C   0  0  0  0  0  0
  -25.4110  -36.3085   24.0343 C   0  0  1  0  0  0
  -20.5888  -28.3634   23.1329 C   0  0  2  0  0  0
  -20.6783  -26.9369   22.5421 C   0  0  0  0  0  0
  -19.5760  -26.6353   21.5229 C   0  0  0  0  0  0
  -18.1924  -26.7899   22.1616 C   0  0  0  0  0  0
  -19.1541  -28.8828   23.2873 C   0  0  0  0  0  0
  -18.9469  -30.1436   23.8871 C   0  0  0  0  0  0
  -17.6460  -30.6554   24.0561 C   0  0  0  0  0  0
  -25.9056  -34.9461   23.5128 C   0  0  0  0  0  0
  -16.5354  -29.9045   23.6339 C   0  0  0  0  0  0
  -16.7280  -28.6493   23.0306 C   0  0  0  0  0  0
  -26.4494  -31.6605   25.0753 C   0  0  0  0  0  0
  -25.3749  -31.3717   26.1495 C   0  0  0  0  0  0
  -27.0342  -30.3051   24.6137 C   0  0  0  0  0  0
  -27.6054  -32.4339   25.7516 C   0  0  0  0  0  0
  -27.5577  -37.1790   24.8462 C   0  0  0  0  0  0
  -21.4185  -29.3005   22.3746 N   0  0  0  0  0  0
  -26.4280  -37.3787   23.9433 N   0  0  0  0  0  0
  -24.6748  -31.0763   22.1050 N   0  0  0  0  0  0
  -23.4243  -28.8155   23.3016 O   0  0  0  0  0  0
  -28.3444  -26.5881   20.1424 O   0  0  0  0  0  0
  -26.5593  -34.8923   22.4672 O   0  0  0  0  0  0
  -23.5382  -32.1443   23.7518 O   0  0  0  0  0  0
  -29.1315  -17.8554   17.6367 C   0  0  0  0  0  0
  -29.8692  -17.0708   18.5458 C   0  0  0  0  0  0
  -28.7007  -18.9444   18.3245 C   0  0  0  0  0  0
  -29.8701  -17.6817   19.7724 C   0  0  0  0  0  0
  -28.2372  -18.6347   22.7619 C   0  0  0  0  0  0
  -30.3749  -15.4426   22.9067 C   0  0  0  0  0  0
  -30.2043  -21.5255   18.8802 C   0  0  0  0  0  0
  -27.2233  -20.1837   20.4696 C   0  0  0  0  0  0
  -30.5878  -17.0746   20.9636 C   0  0  0  0  0  0
  -29.0404  -19.7718   22.0997 C   0  0  0  0  0  0
  -29.2104  -24.1429   20.3549 C   0  0  0  0  0  0
  -28.6114  -22.7031   20.4851 C   0  0  0  0  0  0
  -28.0532  -25.1682   20.2264 C   0  0  0  0  0  0
  -30.1000  -15.6462   21.4034 C   0  0  1  0  0  0
  -29.5059  -21.4331   20.2528 C   0  0  1  0  0  0
  -28.7731  -20.0378   20.5886 C   0  0  2  0  0  0
  -29.1389  -18.9040   19.6523 N   0  0  0  0  0  0
  -31.4623  -12.4068   19.1017 H   0  0  0  0  0  0
  -30.3235  -11.2993   19.8080 H   0  0  0  0  0  0
  -29.7225  -11.7874   17.4161 H   0  0  0  0  0  0
  -29.6485  -13.4964   17.7671 H   0  0  0  0  0  0
  -27.8212  -11.3082   18.8167 H   0  0  0  0  0  0
  -27.3547  -12.6371   17.7886 H   0  0  0  0  0  0
  -27.7060  -14.2560   19.5718 H   0  0  0  0  0  0
  -28.6852  -11.9516   21.3240 H   0  0  0  0  0  0
  -28.4608  -13.5810   21.8669 H   0  0  0  0  0  0
  -25.2776   -9.5663   22.4758 H   0  0  0  0  0  0
  -24.0000   -7.4618   22.7465 H   0  0  0  0  0  0
  -21.0850   -8.8788   19.8943 H   0  0  0  0  0  0
  -22.3730  -10.9674   19.6162 H   0  0  0  0  0  0
  -21.1991   -7.6152   23.9726 H   0  0  0  0  0  0
  -21.1486   -6.0524   25.9076 H   0  0  0  0  0  0
  -22.0597   -2.7619   23.2842 H   0  0  0  0  0  0
  -22.4171  -11.9845   22.4736 H   0  0  0  0  0  0
  -21.1160  -13.1201   22.2649 H   0  0  0  0  0  0
  -24.6593  -15.8401   20.5100 H   0  0  0  0  0  0
  -26.2814  -15.6299   20.0841 H   0  0  0  0  0  0
  -26.7159  -32.5510   23.1168 H   0  0  0  0  0  0
  -25.0146  -33.9784   25.0495 H   0  0  0  0  0  0
  -22.6919  -31.3131   21.4249 H   0  0  0  0  0  0
  -23.3773  -35.9619   23.3286 H   0  0  0  0  0  0
  -24.3597  -36.8930   22.2057 H   0  0  0  0  0  0
  -23.7241  -37.6493   23.6665 H   0  0  0  0  0  0
  -26.0725  -31.5981   20.6170 H   0  0  0  0  0  0
  -26.8259  -30.8611   22.0031 H   0  0  0  0  0  0
  -28.0956  -29.0499   21.1840 H   0  0  0  0  0  0
  -25.9471  -26.0152   18.9494 H   0  0  0  0  0  0
  -23.9556  -27.3495   19.0053 H   0  0  0  0  0  0
  -23.7283  -30.6358   19.4169 H   0  0  0  0  0  0
  -22.7351  -29.2795   19.8559 H   0  0  0  0  0  0
  -25.1278  -36.1938   25.0833 H   0  0  0  0  0  0
  -20.9950  -28.3180   24.1471 H   0  0  0  0  0  0
  -20.5735  -26.2231   23.3597 H   0  0  0  0  0  0
  -21.6633  -26.7417   22.1173 H   0  0  0  0  0  0
  -19.6929  -25.6286   21.1209 H   0  0  0  0  0  0
  -19.6708  -27.3206   20.6792 H   0  0  0  0  0  0
  -17.4202  -26.6682   21.3996 H   0  0  0  0  0  0
  -18.0283  -26.0035   22.9012 H   0  0  0  0  0  0
  -19.7955  -30.7264   24.2190 H   0  0  0  0  0  0
  -17.5021  -31.6230   24.5162 H   0  0  0  0  0  0
  -15.5352  -30.2932   23.7690 H   0  0  0  0  0  0
  -15.8687  -28.0831   22.6983 H   0  0  0  0  0  0
  -24.5942  -30.7039   25.7838 H   0  0  0  0  0  0
  -24.8919  -32.2875   26.4910 H   0  0  0  0  0  0
  -25.8090  -30.8911   27.0270 H   0  0  0  0  0  0
  -26.2889  -29.6816   24.1182 H   0  0  0  0  0  0
  -27.4131  -29.7283   25.4585 H   0  0  0  0  0  0
  -27.8717  -30.4398   23.9290 H   0  0  0  0  0  0
  -27.2649  -33.3639   26.2076 H   0  0  0  0  0  0
  -28.3858  -32.6898   25.0340 H   0  0  0  0  0  0
  -28.0726  -31.8489   26.5449 H   0  0  0  0  0  0
  -28.2545  -38.0125   24.7530 H   0  0  0  0  0  0
  -28.1105  -36.2656   24.6225 H   0  0  0  0  0  0
  -27.2304  -37.1360   25.8861 H   0  0  0  0  0  0
  -20.9355  -29.8770   21.6992 H   0  0  0  0  0  0
  -26.0164  -38.2860   24.1456 H   0  0  0  0  0  0
  -28.9397  -17.6466   16.5930 H   0  0  0  0  0  0
  -30.3582  -16.1346   18.3127 H   0  0  0  0  0  0
  -28.1138  -19.7758   17.9604 H   0  0  0  0  0  0
  -28.6598  -18.3824   23.7337 H   0  0  0  0  0  0
  -28.2144  -17.7313   22.1561 H   0  0  0  0  0  0
  -27.2026  -18.9305   22.9323 H   0  0  0  0  0  0
  -29.7990  -16.1428   23.5107 H   0  0  0  0  0  0
  -31.4299  -15.5945   23.1379 H   0  0  0  0  0  0
  -30.1105  -14.4396   23.2419 H   0  0  0  0  0  0
  -30.8507  -22.3990   18.8235 H   0  0  0  0  0  0
  -29.4861  -21.6026   18.0642 H   0  0  0  0  0  0
  -30.8520  -20.6696   18.6926 H   0  0  0  0  0  0
  -26.7975  -20.7869   21.2707 H   0  0  0  0  0  0
  -26.7260  -19.2137   20.5231 H   0  0  0  0  0  0
  -26.9063  -20.6376   19.5321 H   0  0  0  0  0  0
  -30.5684  -17.7240   21.8243 H   0  0  0  0  0  0
  -31.6514  -17.0337   20.7240 H   0  0  0  0  0  0
  -30.1074  -19.6607   22.2777 H   0  0  0  0  0  0
  -28.7977  -20.6769   22.6587 H   0  0  0  0  0  0
  -29.8336  -24.2328   19.4659 H   0  0  0  0  0  0
  -29.8465  -24.3658   21.2133 H   0  0  0  0  0  0
  -27.7790  -22.6486   19.7835 H   0  0  0  0  0  0
  -28.1607  -22.6366   21.4757 H   0  0  0  0  0  0
  -27.3590  -25.0078   21.0562 H   0  0  0  0  0  0
  -27.5447  -24.8546   19.3162 H   0  0  0  0  0  0
  -29.0201  -15.6343   21.2623 H   0  0  0  0  0  0
  -30.3354  -21.5256   20.9561 H   0  0  0  0  0  0
  1 25  1  0  0  0
  1 30  2  0  0  0
  1 84  1  0  0  0
  2  3  1  0  0  0
  2 25  1  0  0  0
  2 88  1  0  0  0
  2 89  1  0  0  0
  3  4  1  0  0  0
  3 90  1  0  0  0
  3 91  1  0  0  0
  4  5  1  0  0  0
  4 92  1  0  0  0
  4 93  1  0  0  0
  5  6  1  0  0  0
  5 26  1  0  0  0
  5 94  1  0  0  0
  6 25  1  0  0  0
  6 95  1  0  0  0
  6 96  1  0  0  0
  7  8  2  0  0  0
  7 26  1  0  0  0
  7 29  1  0  0  0
  8  9  1  0  0  0
  8 22  1  0  0  0
  9 10  1  0  0  0
  9 27  2  0  0  0
 10 11  2  0  0  0
 10 15  1  0  0  0
 11 12  1  0  0  0
 11 97  1  0  0  0
 12 13  2  0  0  0
 12 98  1  0  0  0
 13 14  1  0  0  0
 13 31  1  0  0  0
 14 15  2  0  0  0
 14 99  1  0  0  0
 15100  1  0  0  0
 16 17  2  0  0  0
 16 21  1  0  0  0
 16 31  1  0  0  0
 17 18  1  0  0  0
 17101  1  0  0  0
 18 19  2  0  0  0
 18102  1  0  0  0
 19 20  1  0  0  0
 19 24  1  0  0  0
 20 21  2  0  0  0
 20103  1  0  0  0
 21 23  1  0  0  0
 22 28  1  0  0  0
 22 32  2  0  0  0
 26 27  1  0  0  0
 28104  1  0  0  0
 28105  1  0  0  0
 29106  1  0  0  0
 29107  1  0  0  0
 33 34  1  0  0  0
 33 66  1  0  0  0
 33 70  2  0  0  0
 34 36  1  0  0  0
 34 59  1  0  0  0
 34108  1  0  0  0
 35 44  2  0  0  0
 35 45  1  0  0  0
 35 68  1  0  0  0
 36 56  1  0  0  0
 36109  1  0  0  0
 37 39  1  0  0  0
 37 47  1  0  0  0
 37 66  1  0  0  0
 37110  1  0  0  0
 38 43  2  0  0  0
 38 46  1  0  0  0
 38 47  1  0  0  0
 39 64  1  0  0  0
 39 67  2  0  0  0
 40 52  1  0  0  0
 40 53  2  0  0  0
 40 58  1  0  0  0
 41111  1  0  0  0
 41112  1  0  0  0
 41113  1  0  0  0
 41 48  1  0  0  0
 42 43  1  0  0  0
 42 66  1  0  0  0
 42114  1  0  0  0
 42115  1  0  0  0
 43 44  1  0  0  0
 44116  1  0  0  0
 45 46  2  0  0  0
 45117  1  0  0  0
 46118  1  0  0  0
 47119  1  0  0  0
 47120  1  0  0  0
 48 56  1  0  0  0
 48 65  1  0  0  0
 48121  1  0  0  0
 49 50  1  0  0  0
 49 53  1  0  0  0
 49 64  1  0  0  0
 49122  1  0  0  0
 50 51  1  0  0  0
 50123  1  0  0  0
 50124  1  0  0  0
 51 52  1  0  0  0
 51125  1  0  0  0
 51126  1  0  0  0
 52127  1  0  0  0
 52128  1  0  0  0
 53 54  1  0  0  0
 54 55  2  0  0  0
 54129  1  0  0  0
 55 57  1  0  0  0
 55130  1  0  0  0
 56 69  2  0  0  0
 57 58  2  0  0  0
 57131  1  0  0  0
 58132  1  0  0  0
 59 60  1  0  0  0
 59 61  1  0  0  0
 59 62  1  0  0  0
 60133  1  0  0  0
 60134  1  0  0  0
 60135  1  0  0  0
 61136  1  0  0  0
 61137  1  0  0  0
 61138  1  0  0  0
 62139  1  0  0  0
 62140  1  0  0  0
 62141  1  0  0  0
 63 65  1  0  0  0
 63142  1  0  0  0
 63143  1  0  0  0
 63144  1  0  0  0
 64145  1  0  0  0
 65146  1  0  0  0
 68 83  1  0  0  0
 71 72  1  0  0  0
 71 73  2  0  0  0
 71147  1  0  0  0
 72 74  2  0  0  0
 72148  1  0  0  0
 73 87  1  0  0  0
 73149  1  0  0  0
 74 79  1  0  0  0
 74 87  1  0  0  0
 75 80  1  0  0  0
 75150  1  0  0  0
 75151  1  0  0  0
 75152  1  0  0  0
 76153  1  0  0  0
 76154  1  0  0  0
 76155  1  0  0  0
 76 84  1  0  0  0
 77156  1  0  0  0
 77157  1  0  0  0
 77158  1  0  0  0
 77 85  1  0  0  0
 78159  1  0  0  0
 78160  1  0  0  0
 78161  1  0  0  0
 78 86  1  0  0  0
 79 84  1  0  0  0
 79162  1  0  0  0
 79163  1  0  0  0
 80 86  1  0  0  0
 80164  1  0  0  0
 80165  1  0  0  0
 81 82  1  0  0  0
 81 83  1  0  0  0
 81166  1  0  0  0
 81167  1  0  0  0
 82 85  1  0  0  0
 82168  1  0  0  0
 82169  1  0  0  0
 83170  1  0  0  0
 83171  1  0  0  0
 84172  1  0  0  0
 85 86  1  0  0  0
 85173  1  0  0  0
 86 87  1  0  0  0
M  ISO  4   1 100  68 101  83 101  84 100
M  END
> <chiral flag>
0

> <version>
0

> <s_m_source_file>
/data/baiqing/PycharmProjects/Reinvent-master-3.2/result/LINK_invent/BTK/process_docking_weight1_custom_sum_contain_oxygen_bond_distance_aromatic_linkinvent_7_9_3/rearranged_h_0075.sdf

> <i_m_source_file_index>
38

> <r_mmod_Potential_Energy-OPLS-2005>
137.130813598633

> <r_mmod_Stretch_Energy-OPLS-2005>
65.7187652587891

> <r_mmod_Bend_Energy-OPLS-2005>
160.337173461914

> <r_mmod_Torsional_Energy-OPLS-2005>
245.742309570312

> <r_mmod_Improper_Torsional_Energy-OPLS-2005>
1.97550284862518

> <r_mmod_Van_der_Waal_Energy-OPLS-2005>
159.293991088867

> <r_mmod_Electrostatic_Energy-OPLS-2005>
-341.024230957031

> <r_mmod_Solvation_Energy-OPLS-2005>
-172.472274780273

> <b_mmod_Minimization_Converged-OPLS-2005>
0

> <r_mmod_RMS_Derivative-OPLS-2005>
2.53125

$$$$
39
                    3D
 Structure written by MMmdl.
160168  0  0  1  0            999 V2000
  -30.5659  -14.9839   20.4479 C   0  0  0  0  0  0
  -30.4330  -12.6216   19.5094 C   0  0  0  0  0  0
  -29.5173  -12.5341   18.2665 C   0  0  0  0  0  0
  -28.0530  -12.3181   18.6860 C   0  0  0  0  0  0
  -27.6261  -13.2565   19.8434 C   0  0  2  0  0  0
  -28.6663  -13.3033   20.9815 C   0  0  0  0  0  0
  -25.2452  -13.8240   20.5755 C   0  0  0  0  0  0
  -24.1764  -13.0445   20.9243 C   0  0  0  0  0  0
  -24.6390  -11.6939   20.8771 C   0  0  0  0  0  0
  -23.9083  -10.4306   21.0414 C   0  0  0  0  0  0
  -24.3630   -9.4213   21.9187 C   0  0  0  0  0  0
  -23.6310   -8.2240   22.0746 C   0  0  0  0  0  0
  -22.4292   -8.0281   21.3534 C   0  0  0  0  0  0
  -21.9930   -9.0257   20.4634 C   0  0  0  0  0  0
  -22.7258  -10.2141   20.3055 C   0  0  0  0  0  0
  -21.6855   -6.0744   22.5283 C   0  0  0  0  0  0
  -21.4016   -6.5647   23.8221 C   0  0  0  0  0  0
  -21.3657   -5.6793   24.9180 C   0  0  0  0  0  0
  -21.6040   -4.3054   24.7226 C   0  0  0  0  0  0
  -21.8822   -3.8155   23.4346 C   0  0  0  0  0  0
  -21.9197   -4.6974   22.3405 C   0  0  0  0  0  0
  -22.7789  -13.5205   21.1902 C   0  0  0  0  0  0
  -22.1669   -4.2162   21.0978 F   0  0  0  0  0  0
  -21.5620   -3.4539   25.7737 F   0  0  0  0  0  0
  -29.9357  -13.7341   20.3799 N   0  0  0  0  0  0
  -26.2873  -12.9480   20.3299 N   0  0  0  0  0  0
  -25.9328  -11.6603   20.5780 N   0  0  0  0  0  0
  -22.0448  -12.8166   22.0449 N   0  0  0  0  0  0
  -25.4176  -15.1966   20.4199 N   0  0  0  0  0  0
  -31.7541  -14.9986   20.1115 O   0  0  0  0  0  0
  -21.6640   -6.8886   21.4240 O   0  0  0  0  0  0
  -22.3469  -14.5518   20.6770 O   0  0  0  0  0  0
  -24.6427  -31.8409   23.1855 C   0  0  0  0  0  0
  -25.9189  -32.4666   23.8239 C   0  0  1  0  0  0
  -27.2066  -27.1041   20.1551 C   0  0  0  0  0  0
  -25.5923  -33.8482   24.2149 N   0  0  0  0  0  0
  -23.4469  -30.4594   21.5337 C   0  0  2  0  0  0
  -24.8958  -28.8826   20.1083 C   0  0  0  0  0  0
  -22.7557  -29.4521   22.4870 C   0  0  0  0  0  0
  -18.0301  -28.1394   22.8489 C   0  0  0  0  0  0
  -24.1509  -36.7260   23.2648 C   0  0  0  0  0  0
  -26.0049  -30.7022   21.3913 C   0  0  0  0  0  0
  -26.0740  -29.3123   20.7306 C   0  0  0  0  0  0
  -27.2285  -28.4385   20.7380 C   0  0  0  0  0  0
  -26.0068  -26.7886   19.4795 C   0  0  0  0  0  0
  -24.8769  -27.6348   19.4686 C   0  0  0  0  0  0
  -23.6729  -29.7874   20.1534 C   0  0  0  0  0  0
  -25.4138  -36.3027   24.0314 C   0  0  1  0  0  0
  -20.5912  -28.3708   23.1255 C   0  0  2  0  0  0
  -20.6794  -26.9416   22.5421 C   0  0  0  0  0  0
  -19.5761  -26.6373   21.5237 C   0  0  0  0  0  0
  -18.1932  -26.7928   22.1637 C   0  0  0  0  0  0
  -19.1558  -28.8873   23.2859 C   0  0  0  0  0  0
  -18.9483  -30.1472   23.8875 C   0  0  0  0  0  0
  -17.6483  -30.6595   24.0561 C   0  0  0  0  0  0
  -25.9082  -34.9392   23.5057 C   0  0  0  0  0  0
  -16.5370  -29.9086   23.6351 C   0  0  0  0  0  0
  -16.7290  -28.6513   23.0361 C   0  0  0  0  0  0
  -26.4510  -31.6540   25.0689 C   0  0  0  0  0  0
  -25.3692  -31.3707   26.1389 C   0  0  0  0  0  0
  -27.0364  -30.2924   24.6283 C   0  0  0  0  0  0
  -27.6045  -32.4325   25.7458 C   0  0  0  0  0  0
  -27.5587  -37.1775   24.8466 C   0  0  0  0  0  0
  -21.4252  -29.3023   22.3617 N   0  0  0  0  0  0
  -26.4302  -37.3736   23.9409 N   0  0  0  0  0  0
  -24.7184  -31.0222   22.0913 N   0  0  0  0  0  0
  -23.4195  -28.8069   23.3023 O   0  0  0  0  0  0
  -28.2447  -26.0986   20.2593 O   0  0  0  0  0  0
  -26.5694  -34.8899   22.4651 O   0  0  0  0  0  0
  -23.5543  -32.1326   23.7038 O   0  0  0  0  0  0
  -29.6521  -19.1530   18.2175 C   0  0  0  0  0  0
  -29.9529  -18.0454   17.4790 C   0  0  0  0  0  0
  -29.8402  -17.4099   19.6288 C   0  0  0  0  0  0
  -30.1293  -17.8547   16.0091 C   0  0  0  0  0  0
  -30.2971  -23.6230   20.7788 C   0  0  0  0  0  0
  -29.3389  -16.5307   21.9486 C   0  0  0  0  0  0
  -28.8328  -21.6507   19.8696 C   0  0  0  0  0  0
  -29.2745  -20.1088   20.5067 C   0  0  0  0  0  0
  -28.0438  -24.5765   19.9243 C   0  0  0  0  0  0
  -28.8362  -23.2101   20.5641 C   0  0  2  0  0  0
  -29.5723  -18.8347   19.5608 N   0  0  0  0  0  0
  -30.0753  -17.0253   18.3664 N   0  3  0  0  0  0
  -29.8783  -16.2409   20.6211 N   0  0  0  0  0  0
  -31.4650  -12.7723   19.1872 H   0  0  0  0  0  0
  -30.4365  -11.6776   20.0574 H   0  0  0  0  0  0
  -29.8404  -11.7239   17.6117 H   0  0  0  0  0  0
  -29.5997  -13.4529   17.6841 H   0  0  0  0  0  0
  -27.9541  -11.2795   19.0028 H   0  0  0  0  0  0
  -27.3867  -12.4391   17.8315 H   0  0  0  0  0  0
  -27.5842  -14.2562   19.4098 H   0  0  0  0  0  0
  -28.7648  -12.3290   21.4619 H   0  0  0  0  0  0
  -28.3479  -13.9952   21.7606 H   0  0  0  0  0  0
  -25.2763   -9.5689   22.4774 H   0  0  0  0  0  0
  -24.0023   -7.4621   22.7456 H   0  0  0  0  0  0
  -21.0863   -8.8771   19.8934 H   0  0  0  0  0  0
  -22.3709  -10.9679   19.6172 H   0  0  0  0  0  0
  -21.2010   -7.6156   23.9732 H   0  0  0  0  0  0
  -21.1472   -6.0518   25.9079 H   0  0  0  0  0  0
  -22.0604   -2.7620   23.2844 H   0  0  0  0  0  0
  -22.4086  -11.9819   22.4795 H   0  0  0  0  0  0
  -21.1068  -13.1176   22.2685 H   0  0  0  0  0  0
  -24.6574  -15.8577   20.5338 H   0  0  0  0  0  0
  -26.2707  -15.6271   20.0861 H   0  0  0  0  0  0
  -26.7228  -32.5255   23.0936 H   0  0  0  0  0  0
  -24.9967  -33.9591   25.0219 H   0  0  0  0  0  0
  -22.7522  -31.2873   21.3763 H   0  0  0  0  0  0
  -23.3777  -35.9583   23.3287 H   0  0  0  0  0  0
  -24.3593  -36.8933   22.2068 H   0  0  0  0  0  0
  -23.7267  -37.6448   23.6717 H   0  0  0  0  0  0
  -26.1638  -31.4539   20.6174 H   0  0  0  0  0  0
  -26.8739  -30.7489   22.0369 H   0  0  0  0  0  0
  -28.1228  -28.7552   21.2558 H   0  0  0  0  0  0
  -25.8995  -25.8398   18.9769 H   0  0  0  0  0  0
  -23.9749  -27.3011   18.9737 H   0  0  0  0  0  0
  -23.8063  -30.5620   19.3975 H   0  0  0  0  0  0
  -22.7869  -29.2301   19.8453 H   0  0  0  0  0  0
  -25.1316  -36.1859   25.0802 H   0  0  0  0  0  0
  -20.9996  -28.3299   24.1385 H   0  0  0  0  0  0
  -20.5737  -26.2303   23.3629 H   0  0  0  0  0  0
  -21.6647  -26.7446   22.1187 H   0  0  0  0  0  0
  -19.6927  -25.6280   21.1280 H   0  0  0  0  0  0
  -19.6711  -27.3175   20.6761 H   0  0  0  0  0  0
  -17.4215  -26.6703   21.4024 H   0  0  0  0  0  0
  -18.0312  -26.0060   22.9021 H   0  0  0  0  0  0
  -19.7955  -30.7295   24.2237 H   0  0  0  0  0  0
  -17.5034  -31.6287   24.5135 H   0  0  0  0  0  0
  -15.5368  -30.2978   23.7696 H   0  0  0  0  0  0
  -15.8688  -28.0830   22.7082 H   0  0  0  0  0  0
  -24.5920  -30.6999   25.7705 H   0  0  0  0  0  0
  -24.8810  -32.2856   26.4744 H   0  0  0  0  0  0
  -25.7976  -30.8945   27.0215 H   0  0  0  0  0  0
  -26.2950  -29.6634   24.1338 H   0  0  0  0  0  0
  -27.4002  -29.7245   25.4854 H   0  0  0  0  0  0
  -27.8859  -30.4134   23.9559 H   0  0  0  0  0  0
  -27.2653  -33.3679   26.1918 H   0  0  0  0  0  0
  -28.3884  -32.6801   25.0284 H   0  0  0  0  0  0
  -28.0667  -31.8523   26.5457 H   0  0  0  0  0  0
  -28.2575  -38.0094   24.7523 H   0  0  0  0  0  0
  -28.1117  -36.2624   24.6288 H   0  0  0  0  0  0
  -27.2306  -37.1409   25.8867 H   0  0  0  0  0  0
  -20.9473  -29.8724   21.6782 H   0  0  0  0  0  0
  -26.0179  -38.2814   24.1393 H   0  0  0  0  0  0
  -29.4907  -20.1463   17.8344 H   0  0  0  0  0  0
  -29.9482  -18.7886   15.4772 H   0  0  0  0  0  0
  -29.4277  -17.1072   15.6400 H   0  0  0  0  0  0
  -31.1416  -17.5216   15.7832 H   0  0  0  0  0  0
  -30.8648  -22.8540   21.3030 H   0  0  0  0  0  0
  -30.3537  -24.5357   21.3732 H   0  0  0  0  0  0
  -30.7882  -23.8220   19.8258 H   0  0  0  0  0  0
  -28.2518  -16.4422   21.9425 H   0  0  0  0  0  0
  -29.5829  -17.5496   22.2516 H   0  0  0  0  0  0
  -29.7294  -15.8659   22.7206 H   0  0  0  0  0  0
  -27.8366  -21.5074   19.4512 H   0  0  0  0  0  0
  -29.4677  -21.8159   19.0037 H   0  0  0  0  0  0
  -28.5021  -19.7901   21.2053 H   0  0  0  0  0  0
  -30.1725  -20.2406   21.1092 H   0  0  0  0  0  0
  -26.9884  -24.3570   20.0826 H   0  0  0  0  0  0
  -28.1762  -24.5234   18.8429 H   0  0  0  0  0  0
  -28.4097  -23.0803   21.5593 H   0  0  0  0  0  0
  -30.3185  -16.0837   18.0903 H   0  0  0  0  0  0
  1 25  1  0  0  0
  1 30  2  0  0  0
  1 83  1  0  0  0
  2  3  1  0  0  0
  2 25  1  0  0  0
  2 84  1  0  0  0
  2 85  1  0  0  0
  3  4  1  0  0  0
  3 86  1  0  0  0
  3 87  1  0  0  0
  4  5  1  0  0  0
  4 88  1  0  0  0
  4 89  1  0  0  0
  5  6  1  0  0  0
  5 26  1  0  0  0
  5 90  1  0  0  0
  6 25  1  0  0  0
  6 91  1  0  0  0
  6 92  1  0  0  0
  7  8  2  0  0  0
  7 26  1  0  0  0
  7 29  1  0  0  0
  8  9  1  0  0  0
  8 22  1  0  0  0
  9 10  1  0  0  0
  9 27  2  0  0  0
 10 11  2  0  0  0
 10 15  1  0  0  0
 11 12  1  0  0  0
 11 93  1  0  0  0
 12 13  2  0  0  0
 12 94  1  0  0  0
 13 14  1  0  0  0
 13 31  1  0  0  0
 14 15  2  0  0  0
 14 95  1  0  0  0
 15 96  1  0  0  0
 16 17  2  0  0  0
 16 21  1  0  0  0
 16 31  1  0  0  0
 17 18  1  0  0  0
 17 97  1  0  0  0
 18 19  2  0  0  0
 18 98  1  0  0  0
 19 20  1  0  0  0
 19 24  1  0  0  0
 20 21  2  0  0  0
 20 99  1  0  0  0
 21 23  1  0  0  0
 22 28  1  0  0  0
 22 32  2  0  0  0
 26 27  1  0  0  0
 28100  1  0  0  0
 28101  1  0  0  0
 29102  1  0  0  0
 29103  1  0  0  0
 33 34  1  0  0  0
 33 66  1  0  0  0
 33 70  2  0  0  0
 34 36  1  0  0  0
 34 59  1  0  0  0
 34104  1  0  0  0
 35 44  2  0  0  0
 35 45  1  0  0  0
 35 68  1  0  0  0
 36 56  1  0  0  0
 36105  1  0  0  0
 37 39  1  0  0  0
 37 47  1  0  0  0
 37 66  1  0  0  0
 37106  1  0  0  0
 38 43  2  0  0  0
 38 46  1  0  0  0
 38 47  1  0  0  0
 39 64  1  0  0  0
 39 67  2  0  0  0
 40 52  1  0  0  0
 40 53  2  0  0  0
 40 58  1  0  0  0
 41107  1  0  0  0
 41108  1  0  0  0
 41109  1  0  0  0
 41 48  1  0  0  0
 42 43  1  0  0  0
 42 66  1  0  0  0
 42110  1  0  0  0
 42111  1  0  0  0
 43 44  1  0  0  0
 44112  1  0  0  0
 45 46  2  0  0  0
 45113  1  0  0  0
 46114  1  0  0  0
 47115  1  0  0  0
 47116  1  0  0  0
 48 56  1  0  0  0
 48 65  1  0  0  0
 48117  1  0  0  0
 49 50  1  0  0  0
 49 53  1  0  0  0
 49 64  1  0  0  0
 49118  1  0  0  0
 50 51  1  0  0  0
 50119  1  0  0  0
 50120  1  0  0  0
 51 52  1  0  0  0
 51121  1  0  0  0
 51122  1  0  0  0
 52123  1  0  0  0
 52124  1  0  0  0
 53 54  1  0  0  0
 54 55  2  0  0  0
 54125  1  0  0  0
 55 57  1  0  0  0
 55126  1  0  0  0
 56 69  2  0  0  0
 57 58  2  0  0  0
 57127  1  0  0  0
 58128  1  0  0  0
 59 60  1  0  0  0
 59 61  1  0  0  0
 59 62  1  0  0  0
 60129  1  0  0  0
 60130  1  0  0  0
 60131  1  0  0  0
 61132  1  0  0  0
 61133  1  0  0  0
 61134  1  0  0  0
 62135  1  0  0  0
 62136  1  0  0  0
 62137  1  0  0  0
 63 65  1  0  0  0
 63138  1  0  0  0
 63139  1  0  0  0
 63140  1  0  0  0
 64141  1  0  0  0
 65142  1  0  0  0
 68 79  1  0  0  0
 71 72  2  0  0  0
 71 81  1  0  0  0
 71143  1  0  0  0
 72 74  1  0  0  0
 72 82  1  0  0  0
 73 81  1  0  0  0
 73 82  2  0  0  0
 73 83  1  0  0  0
 74144  1  0  0  0
 74145  1  0  0  0
 74146  1  0  0  0
 75147  1  0  0  0
 75148  1  0  0  0
 75149  1  0  0  0
 75 80  1  0  0  0
 76 83  1  0  0  0
 76150  1  0  0  0
 76151  1  0  0  0
 76152  1  0  0  0
 77 78  1  0  0  0
 77 80  1  0  0  0
 77153  1  0  0  0
 77154  1  0  0  0
 78 81  1  0  0  0
 78155  1  0  0  0
 78156  1  0  0  0
 79 80  1  0  0  0
 79157  1  0  0  0
 79158  1  0  0  0
 80159  1  0  0  0
 82160  1  0  0  0
M  CHG  1  82   1
M  ISO  4   1 100  68 101  79 101  83 100
M  END
> <chiral flag>
0

> <version>
0

> <s_m_source_file>
/data/baiqing/PycharmProjects/Reinvent-master-3.2/result/LINK_invent/BTK/process_docking_weight1_custom_sum_contain_oxygen_bond_distance_aromatic_linkinvent_7_9_3/rearranged_h_0075.sdf

> <i_m_source_file_index>
39

> <r_mmod_Potential_Energy-OPLS-2005>
703.974182128906

> <r_mmod_Stretch_Energy-OPLS-2005>
325.401214599609

> <r_mmod_Bend_Energy-OPLS-2005>
353.592712402344

> <r_mmod_Torsional_Energy-OPLS-2005>
284.718017578125

> <r_mmod_Improper_Torsional_Energy-OPLS-2005>
6.39235019683838

> <r_mmod_Van_der_Waal_Energy-OPLS-2005>
112.558753967285

> <r_mmod_Electrostatic_Energy-OPLS-2005>
-202.386856079102

> <r_mmod_Solvation_Energy-OPLS-2005>
-394.557098388672

> <b_mmod_Minimization_Converged-OPLS-2005>
0

> <r_mmod_RMS_Derivative-OPLS-2005>
2.25125694274902

$$$$
40
                    3D
 Structure written by MMmdl.
172180  0  0  1  0            999 V2000
  -30.7458  -14.5180   20.6408 C   0  0  0  0  0  0
  -30.4136  -12.3541   19.4524 C   0  0  0  0  0  0
  -29.4990  -12.5193   18.2223 C   0  0  0  0  0  0
  -28.0233  -12.3517   18.6255 C   0  0  0  0  0  0
  -27.6553  -13.2091   19.8623 C   0  0  2  0  0  0
  -28.6914  -13.0415   20.9957 C   0  0  0  0  0  0
  -25.2521  -13.8090   20.5548 C   0  0  0  0  0  0
  -24.1814  -13.0390   20.9162 C   0  0  0  0  0  0
  -24.6395  -11.6871   20.8745 C   0  0  0  0  0  0
  -23.9063  -10.4268   21.0417 C   0  0  0  0  0  0
  -24.3613   -9.4186   21.9195 C   0  0  0  0  0  0
  -23.6284   -8.2225   22.0759 C   0  0  0  0  0  0
  -22.4266   -8.0271   21.3544 C   0  0  0  0  0  0
  -21.9905   -9.0247   20.4648 C   0  0  0  0  0  0
  -22.7237  -10.2122   20.3062 C   0  0  0  0  0  0
  -21.6848   -6.0731   22.5281 C   0  0  0  0  0  0
  -21.4009   -6.5636   23.8215 C   0  0  0  0  0  0
  -21.3657   -5.6788   24.9177 C   0  0  0  0  0  0
  -21.6045   -4.3052   24.7226 C   0  0  0  0  0  0
  -21.8820   -3.8144   23.4348 C   0  0  0  0  0  0
  -21.9192   -4.6960   22.3404 C   0  0  0  0  0  0
  -22.7847  -13.5206   21.1843 C   0  0  0  0  0  0
  -22.1662   -4.2146   21.0982 F   0  0  0  0  0  0
  -21.5631   -3.4537   25.7740 F   0  0  0  0  0  0
  -30.0252  -13.3619   20.4656 N   0  0  0  0  0  0
  -26.2987  -12.9300   20.3277 N   0  0  0  0  0  0
  -25.9325  -11.6464   20.5767 N   0  0  0  0  0  0
  -22.0495  -12.8212   22.0416 N   0  0  0  0  0  0
  -25.4131  -15.1760   20.3740 N   0  0  0  0  0  0
  -31.7948  -14.6610   20.0046 O   0  0  0  0  0  0
  -21.6631   -6.8870   21.4241 O   0  0  0  0  0  0
  -22.3533  -14.5519   20.6704 O   0  0  0  0  0  0
  -24.6162  -31.8666   23.2081 C   0  0  0  0  0  0
  -25.9046  -32.4818   23.8387 C   0  0  1  0  0  0
  -27.2358  -27.4105   20.1078 C   0  0  0  0  0  0
  -25.5894  -33.8615   24.2317 N   0  0  0  0  0  0
  -23.4072  -30.4887   21.5477 C   0  0  2  0  0  0
  -24.8578  -28.9481   20.1186 C   0  0  0  0  0  0
  -22.7427  -29.4653   22.4969 C   0  0  0  0  0  0
  -18.0280  -28.1384   22.8490 C   0  0  0  0  0  0
  -24.1488  -36.7309   23.2640 C   0  0  0  0  0  0
  -25.9385  -30.8227   21.3680 C   0  0  0  0  0  0
  -26.0173  -29.4518   20.7233 C   0  0  0  0  0  0
  -27.2112  -28.6883   20.7219 C   0  0  0  0  0  0
  -26.0648  -26.9294   19.4914 C   0  0  0  0  0  0
  -24.8768  -27.6850   19.5008 C   0  0  0  0  0  0
  -23.6208  -29.8187   20.1636 C   0  0  0  0  0  0
  -25.4105  -36.3106   24.0339 C   0  0  1  0  0  0
  -20.5874  -28.3668   23.1314 C   0  0  2  0  0  0
  -20.6776  -26.9403   22.5420 C   0  0  0  0  0  0
  -19.5755  -26.6389   21.5219 C   0  0  0  0  0  0
  -18.1929  -26.7931   22.1624 C   0  0  0  0  0  0
  -19.1531  -28.8840   23.2901 C   0  0  0  0  0  0
  -18.9458  -30.1446   23.8910 C   0  0  0  0  0  0
  -17.6461  -30.6587   24.0565 C   0  0  0  0  0  0
  -25.9033  -34.9474   23.5127 C   0  0  0  0  0  0
  -16.5351  -29.9090   23.6328 C   0  0  0  0  0  0
  -16.7271  -28.6511   23.0342 C   0  0  0  0  0  0
  -26.4472  -31.6600   25.0718 C   0  0  0  0  0  0
  -25.3732  -31.3712   26.1462 C   0  0  0  0  0  0
  -27.0303  -30.3042   24.6098 C   0  0  0  0  0  0
  -27.6041  -32.4323   25.7483 C   0  0  0  0  0  0
  -27.5578  -37.1809   24.8466 C   0  0  0  0  0  0
  -21.4152  -29.3032   22.3711 N   0  0  0  0  0  0
  -26.4291  -37.3790   23.9409 N   0  0  0  0  0  0
  -24.6719  -31.0747   22.0991 N   0  0  0  0  0  0
  -23.4190  -28.8204   23.3026 O   0  0  0  0  0  0
  -28.3682  -26.6218   20.0505 O   0  0  0  0  0  0
  -26.5602  -34.8927   22.4695 O   0  0  0  0  0  0
  -23.5344  -32.1432   23.7450 O   0  0  0  0  0  0
  -27.7354  -23.8922   22.3082 C   0  0  0  0  0  0
  -29.3067  -22.2977   20.7147 C   0  0  0  0  0  0
  -27.6824  -22.4951   22.4793 C   0  0  0  0  0  0
  -28.5026  -21.6563   21.6917 C   0  0  0  0  0  0
  -28.5950  -24.4500   21.3446 C   0  0  0  0  0  0
  -26.7600  -21.8967   23.5248 C   0  0  0  0  0  0
  -30.2138  -26.4102   21.5751 C   0  0  0  0  0  0
  -31.5561  -16.6916   21.6927 C   0  0  0  0  0  0
  -30.1670  -15.1386   23.0533 C   0  0  0  0  0  0
  -27.0489  -17.9258   21.3691 C   0  0  0  0  0  0
  -28.5872  -17.8172   23.3000 C   0  0  0  0  0  0
  -29.1193  -16.5488   21.0771 C   0  0  0  0  0  0
  -29.1557  -19.2564   21.2736 C   0  0  0  0  0  0
  -28.7682  -25.9916   21.2812 C   0  0  1  0  0  0
  -30.3511  -15.7112   21.6198 C   0  0  0  0  0  0
  -28.5460  -17.8778   21.7560 C   0  0  0  0  0  0
  -29.3478  -23.6514   20.5382 N   0  0  0  0  0  0
  -28.4362  -20.2954   21.9702 O   0  0  0  0  0  0
  -31.4604  -12.4274   19.1542 H   0  0  0  0  0  0
  -30.3078  -11.3519   19.8705 H   0  0  0  0  0  0
  -29.7621  -11.7886   17.4565 H   0  0  0  0  0  0
  -29.6531  -13.5030   17.7764 H   0  0  0  0  0  0
  -27.8551  -11.2960   18.8423 H   0  0  0  0  0  0
  -27.3709  -12.5971   17.7869 H   0  0  0  0  0  0
  -27.6841  -14.2469   19.5321 H   0  0  0  0  0  0
  -28.6823  -12.0184   21.3746 H   0  0  0  0  0  0
  -28.3990  -13.6623   21.8332 H   0  0  0  0  0  0
  -25.2760   -9.5663   22.4766 H   0  0  0  0  0  0
  -23.9996   -7.4615   22.7473 H   0  0  0  0  0  0
  -21.0840   -8.8765   19.8951 H   0  0  0  0  0  0
  -22.3703  -10.9662   19.6169 H   0  0  0  0  0  0
  -21.1996   -7.6143   23.9717 H   0  0  0  0  0  0
  -21.1480   -6.0519   25.9080 H   0  0  0  0  0  0
  -22.0601   -2.7605   23.2850 H   0  0  0  0  0  0
  -22.4109  -11.9868   22.4796 H   0  0  0  0  0  0
  -21.1122  -13.1250   22.2636 H   0  0  0  0  0  0
  -24.6428  -15.8262   20.4795 H   0  0  0  0  0  0
  -26.2660  -15.6172   20.0575 H   0  0  0  0  0  0
  -26.7111  -32.5537   23.1145 H   0  0  0  0  0  0
  -25.0050  -33.9779   25.0465 H   0  0  0  0  0  0
  -22.6967  -31.3057   21.4047 H   0  0  0  0  0  0
  -23.3753  -35.9642   23.3316 H   0  0  0  0  0  0
  -24.3584  -36.8911   22.2052 H   0  0  0  0  0  0
  -23.7248  -37.6520   23.6648 H   0  0  0  0  0  0
  -26.0532  -31.5834   20.5941 H   0  0  0  0  0  0
  -26.8256  -30.8811   21.9869 H   0  0  0  0  0  0
  -28.1084  -29.0762   21.1834 H   0  0  0  0  0  0
  -26.0740  -25.9615   19.0093 H   0  0  0  0  0  0
  -23.9868  -27.2920   19.0290 H   0  0  0  0  0  0
  -23.7342  -30.5934   19.4039 H   0  0  0  0  0  0
  -22.7451  -29.2405   19.8645 H   0  0  0  0  0  0
  -25.1289  -36.1969   25.0833 H   0  0  0  0  0  0
  -20.9961  -28.3235   24.1436 H   0  0  0  0  0  0
  -20.5687  -26.2269   23.3602 H   0  0  0  0  0  0
  -21.6645  -26.7452   22.1202 H   0  0  0  0  0  0
  -19.6916  -25.6307   21.1235 H   0  0  0  0  0  0
  -19.6701  -27.3207   20.6757 H   0  0  0  0  0  0
  -17.4202  -26.6682   21.4022 H   0  0  0  0  0  0
  -18.0323  -26.0075   22.9019 H   0  0  0  0  0  0
  -19.7936  -30.7261   24.2282 H   0  0  0  0  0  0
  -17.5021  -31.6270   24.5161 H   0  0  0  0  0  0
  -15.5353  -30.2998   23.7646 H   0  0  0  0  0  0
  -15.8673  -28.0839   22.7038 H   0  0  0  0  0  0
  -24.5897  -30.7069   25.7799 H   0  0  0  0  0  0
  -24.8931  -32.2873   26.4920 H   0  0  0  0  0  0
  -25.8076  -30.8876   27.0221 H   0  0  0  0  0  0
  -26.2848  -29.6807   24.1143 H   0  0  0  0  0  0
  -27.4076  -29.7271   25.4554 H   0  0  0  0  0  0
  -27.8686  -30.4369   23.9249 H   0  0  0  0  0  0
  -27.2651  -33.3613   26.2083 H   0  0  0  0  0  0
  -28.3834  -32.6901   25.0298 H   0  0  0  0  0  0
  -28.0727  -31.8440   26.5385 H   0  0  0  0  0  0
  -28.2602  -38.0100   24.7509 H   0  0  0  0  0  0
  -28.1072  -36.2636   24.6298 H   0  0  0  0  0  0
  -27.2303  -37.1462   25.8872 H   0  0  0  0  0  0
  -20.9309  -29.8742   21.6926 H   0  0  0  0  0  0
  -26.0187  -38.2872   24.1413 H   0  0  0  0  0  0
  -27.1398  -24.5395   22.9382 H   0  0  0  0  0  0
  -29.9496  -21.7193   20.0684 H   0  0  0  0  0  0
  -26.1391  -22.6581   23.9971 H   0  0  0  0  0  0
  -27.3410  -21.3997   24.3013 H   0  0  0  0  0  0
  -26.0990  -21.1598   23.0682 H   0  0  0  0  0  0
  -30.5418  -26.0203   22.5387 H   0  0  0  0  0  0
  -30.3098  -27.4954   21.6033 H   0  0  0  0  0  0
  -30.8940  -26.0324   20.8116 H   0  0  0  0  0  0
  -31.3966  -17.4958   22.4081 H   0  0  0  0  0  0
  -31.7510  -17.1624   20.7278 H   0  0  0  0  0  0
  -32.4711  -16.1833   22.0015 H   0  0  0  0  0  0
  -30.5533  -15.8097   23.8197 H   0  0  0  0  0  0
  -30.7003  -14.1971   23.1932 H   0  0  0  0  0  0
  -29.1253  -14.9590   23.3083 H   0  0  0  0  0  0
  -26.5072  -17.0821   21.7939 H   0  0  0  0  0  0
  -26.9143  -17.9077   20.2867 H   0  0  0  0  0  0
  -26.5425  -18.8168   21.7407 H   0  0  0  0  0  0
  -28.1175  -16.9121   23.6815 H   0  0  0  0  0  0
  -28.0428  -18.6472   23.7516 H   0  0  0  0  0  0
  -29.6022  -17.8733   23.6878 H   0  0  0  0  0  0
  -28.2975  -15.8370   21.0529 H   0  0  0  0  0  0
  -29.2998  -16.7741   20.0244 H   0  0  0  0  0  0
  -29.0421  -19.3728   20.1949 H   0  0  0  0  0  0
  -30.2188  -19.3275   21.5034 H   0  0  0  0  0  0
  -28.1678  -26.4034   22.0958 H   0  0  0  0  0  0
  1 25  1  0  0  0
  1 30  2  0  0  0
  1 85  1  0  0  0
  2  3  1  0  0  0
  2 25  1  0  0  0
  2 89  1  0  0  0
  2 90  1  0  0  0
  3  4  1  0  0  0
  3 91  1  0  0  0
  3 92  1  0  0  0
  4  5  1  0  0  0
  4 93  1  0  0  0
  4 94  1  0  0  0
  5  6  1  0  0  0
  5 26  1  0  0  0
  5 95  1  0  0  0
  6 25  1  0  0  0
  6 96  1  0  0  0
  6 97  1  0  0  0
  7  8  2  0  0  0
  7 26  1  0  0  0
  7 29  1  0  0  0
  8  9  1  0  0  0
  8 22  1  0  0  0
  9 10  1  0  0  0
  9 27  2  0  0  0
 10 11  2  0  0  0
 10 15  1  0  0  0
 11 12  1  0  0  0
 11 98  1  0  0  0
 12 13  2  0  0  0
 12 99  1  0  0  0
 13 14  1  0  0  0
 13 31  1  0  0  0
 14 15  2  0  0  0
 14100  1  0  0  0
 15101  1  0  0  0
 16 17  2  0  0  0
 16 21  1  0  0  0
 16 31  1  0  0  0
 17 18  1  0  0  0
 17102  1  0  0  0
 18 19  2  0  0  0
 18103  1  0  0  0
 19 20  1  0  0  0
 19 24  1  0  0  0
 20 21  2  0  0  0
 20104  1  0  0  0
 21 23  1  0  0  0
 22 28  1  0  0  0
 22 32  2  0  0  0
 26 27  1  0  0  0
 28105  1  0  0  0
 28106  1  0  0  0
 29107  1  0  0  0
 29108  1  0  0  0
 33 34  1  0  0  0
 33 66  1  0  0  0
 33 70  2  0  0  0
 34 36  1  0  0  0
 34 59  1  0  0  0
 34109  1  0  0  0
 35 44  2  0  0  0
 35 45  1  0  0  0
 35 68  1  0  0  0
 36 56  1  0  0  0
 36110  1  0  0  0
 37 39  1  0  0  0
 37 47  1  0  0  0
 37 66  1  0  0  0
 37111  1  0  0  0
 38 43  2  0  0  0
 38 46  1  0  0  0
 38 47  1  0  0  0
 39 64  1  0  0  0
 39 67  2  0  0  0
 40 52  1  0  0  0
 40 53  2  0  0  0
 40 58  1  0  0  0
 41112  1  0  0  0
 41113  1  0  0  0
 41114  1  0  0  0
 41 48  1  0  0  0
 42 43  1  0  0  0
 42 66  1  0  0  0
 42115  1  0  0  0
 42116  1  0  0  0
 43 44  1  0  0  0
 44117  1  0  0  0
 45 46  2  0  0  0
 45118  1  0  0  0
 46119  1  0  0  0
 47120  1  0  0  0
 47121  1  0  0  0
 48 56  1  0  0  0
 48 65  1  0  0  0
 48122  1  0  0  0
 49 50  1  0  0  0
 49 53  1  0  0  0
 49 64  1  0  0  0
 49123  1  0  0  0
 50 51  1  0  0  0
 50124  1  0  0  0
 50125  1  0  0  0
 51 52  1  0  0  0
 51126  1  0  0  0
 51127  1  0  0  0
 52128  1  0  0  0
 52129  1  0  0  0
 53 54  1  0  0  0
 54 55  2  0  0  0
 54130  1  0  0  0
 55 57  1  0  0  0
 55131  1  0  0  0
 56 69  2  0  0  0
 57 58  2  0  0  0
 57132  1  0  0  0
 58133  1  0  0  0
 59 60  1  0  0  0
 59 61  1  0  0  0
 59 62  1  0  0  0
 60134  1  0  0  0
 60135  1  0  0  0
 60136  1  0  0  0
 61137  1  0  0  0
 61138  1  0  0  0
 61139  1  0  0  0
 62140  1  0  0  0
 62141  1  0  0  0
 62142  1  0  0  0
 63 65  1  0  0  0
 63143  1  0  0  0
 63144  1  0  0  0
 63145  1  0  0  0
 64146  1  0  0  0
 65147  1  0  0  0
 68 84  1  0  0  0
 71 73  2  0  0  0
 71 75  1  0  0  0
 71148  1  0  0  0
 72 74  2  0  0  0
 72 87  1  0  0  0
 72149  1  0  0  0
 73 74  1  0  0  0
 73 76  1  0  0  0
 74 88  1  0  0  0
 75 84  1  0  0  0
 75 87  2  0  0  0
 76150  1  0  0  0
 76151  1  0  0  0
 76152  1  0  0  0
 77153  1  0  0  0
 77154  1  0  0  0
 77155  1  0  0  0
 77 84  1  0  0  0
 78156  1  0  0  0
 78157  1  0  0  0
 78158  1  0  0  0
 78 85  1  0  0  0
 79 85  1  0  0  0
 79159  1  0  0  0
 79160  1  0  0  0
 79161  1  0  0  0
 80162  1  0  0  0
 80163  1  0  0  0
 80164  1  0  0  0
 80 86  1  0  0  0
 81 86  1  0  0  0
 81165  1  0  0  0
 81166  1  0  0  0
 81167  1  0  0  0
 82 85  1  0  0  0
 82 86  1  0  0  0
 82168  1  0  0  0
 82169  1  0  0  0
 83 86  1  0  0  0
 83 88  1  0  0  0
 83170  1  0  0  0
 83171  1  0  0  0
 84172  1  0  0  0
M  ISO  4   1 100  68 101  84 101  85 100
M  END
> <chiral flag>
0

> <version>
0

> <s_m_source_file>
/data/baiqing/PycharmProjects/Reinvent-master-3.2/result/LINK_invent/BTK/process_docking_weight1_custom_sum_contain_oxygen_bond_distance_aromatic_linkinvent_7_9_3/rearranged_h_0075.sdf

> <i_m_source_file_index>
40

> <r_mmod_Potential_Energy-OPLS-2005>
32.4242324829102

> <r_mmod_Stretch_Energy-OPLS-2005>
63.5257263183594

> <r_mmod_Bend_Energy-OPLS-2005>
165.284576416016

> <r_mmod_Torsional_Energy-OPLS-2005>
234.069427490234

> <r_mmod_Improper_Torsional_Energy-OPLS-2005>
1.93552339076996

> <r_mmod_Van_der_Waal_Energy-OPLS-2005>
157.742752075195

> <r_mmod_Electrostatic_Energy-OPLS-2005>
-421.863647460938

> <r_mmod_Solvation_Energy-OPLS-2005>
-186.231109619141

> <b_mmod_Minimization_Converged-OPLS-2005>
0

> <r_mmod_RMS_Derivative-OPLS-2005>
0.874664962291718

$$$$
41
                    3D
 Structure written by MMmdl.
169177  0  0  1  0            999 V2000
  -30.7723  -14.6639   20.3825 C   0  0  0  0  0  0
  -30.3889  -12.4134   19.4551 C   0  0  0  0  0  0
  -29.4844  -12.4638   18.2114 C   0  0  0  0  0  0
  -28.0124  -12.3215   18.6333 C   0  0  0  0  0  0
  -27.6276  -13.2519   19.8170 C   0  0  2  0  0  0
  -28.6850  -13.2760   20.9403 C   0  0  0  0  0  0
  -25.2491  -13.8251   20.5745 C   0  0  0  0  0  0
  -24.1813  -13.0472   20.9223 C   0  0  0  0  0  0
  -24.6421  -11.6945   20.8771 C   0  0  0  0  0  0
  -23.9094  -10.4307   21.0420 C   0  0  0  0  0  0
  -24.3642   -9.4220   21.9200 C   0  0  0  0  0  0
  -23.6312   -8.2256   22.0769 C   0  0  0  0  0  0
  -22.4299   -8.0295   21.3553 C   0  0  0  0  0  0
  -21.9942   -9.0260   20.4646 C   0  0  0  0  0  0
  -22.7269  -10.2136   20.3059 C   0  0  0  0  0  0
  -21.6848   -6.0745   22.5281 C   0  0  0  0  0  0
  -21.4016   -6.5649   23.8214 C   0  0  0  0  0  0
  -21.3661   -5.6807   24.9177 C   0  0  0  0  0  0
  -21.6039   -4.3067   24.7225 C   0  0  0  0  0  0
  -21.8823   -3.8157   23.4346 C   0  0  0  0  0  0
  -21.9198   -4.6974   22.3404 C   0  0  0  0  0  0
  -22.7828  -13.5221   21.1869 C   0  0  0  0  0  0
  -22.1666   -4.2158   21.0983 F   0  0  0  0  0  0
  -21.5626   -3.4554   25.7737 F   0  0  0  0  0  0
  -29.9840  -13.5420   20.3207 N   0  0  0  0  0  0
  -26.2924  -12.9502   20.3241 N   0  0  0  0  0  0
  -25.9359  -11.6622   20.5753 N   0  0  0  0  0  0
  -22.0472  -12.8211   22.0406 N   0  0  0  0  0  0
  -25.4173  -15.1983   20.4230 N   0  0  0  0  0  0
  -31.9849  -14.4666   20.3937 O   0  0  0  0  0  0
  -21.6654   -6.8899   21.4250 O   0  0  0  0  0  0
  -22.3502  -14.5517   20.6699 O   0  0  0  0  0  0
  -24.6270  -31.8589   23.2024 C   0  0  0  0  0  0
  -25.9120  -32.4752   23.8387 C   0  0  1  0  0  0
  -27.2152  -27.3120   20.1160 C   0  0  0  0  0  0
  -25.5942  -33.8556   24.2294 N   0  0  0  0  0  0
  -23.4216  -30.4814   21.5455 C   0  0  2  0  0  0
  -24.8663  -28.9307   20.1134 C   0  0  0  0  0  0
  -22.7481  -29.4629   22.4952 C   0  0  0  0  0  0
  -18.0275  -28.1389   22.8457 C   0  0  0  0  0  0
  -24.1477  -36.7255   23.2646 C   0  0  0  0  0  0
  -25.9635  -30.7844   21.3782 C   0  0  0  0  0  0
  -26.0345  -29.4110   20.7193 C   0  0  0  0  0  0
  -27.2150  -28.6123   20.7087 C   0  0  0  0  0  0
  -26.0292  -26.8808   19.4908 C   0  0  0  0  0  0
  -24.8644  -27.6714   19.4921 C   0  0  0  0  0  0
  -23.6369  -29.8146   20.1614 C   0  0  0  0  0  0
  -25.4096  -36.3030   24.0329 C   0  0  1  0  0  0
  -20.5873  -28.3697   23.1260 C   0  0  2  0  0  0
  -20.6766  -26.9427   22.5384 C   0  0  0  0  0  0
  -19.5756  -26.6385   21.5172 C   0  0  0  0  0  0
  -18.1930  -26.7931   22.1593 C   0  0  0  0  0  0
  -19.1529  -28.8867   23.2851 C   0  0  0  0  0  0
  -18.9469  -30.1459   23.8890 C   0  0  0  0  0  0
  -17.6474  -30.6600   24.0543 C   0  0  0  0  0  0
  -25.9031  -34.9411   23.5086 C   0  0  0  0  0  0
  -16.5354  -29.9095   23.6325 C   0  0  0  0  0  0
  -16.7261  -28.6502   23.0350 C   0  0  0  0  0  0
  -26.4480  -31.6593   25.0787 C   0  0  0  0  0  0
  -25.3696  -31.3723   26.1503 C   0  0  0  0  0  0
  -27.0378  -30.3026   24.6287 C   0  0  0  0  0  0
  -27.6014  -32.4364   25.7553 C   0  0  0  0  0  0
  -27.5550  -37.1760   24.8471 C   0  0  0  0  0  0
  -21.4198  -29.3062   22.3700 N   0  0  0  0  0  0
  -26.4254  -37.3731   23.9421 N   0  0  0  0  0  0
  -24.6891  -31.0600   22.0977 N   0  0  0  0  0  0
  -23.4181  -28.8158   23.3043 O   0  0  0  0  0  0
  -28.3455  -26.4881   20.1200 O   0  0  0  0  0  0
  -26.5588  -34.8884   22.4647 O   0  0  0  0  0  0
  -23.5435  -32.1405   23.7322 O   0  0  0  0  0  0
  -27.2343  -20.1479   20.3547 C   0  0  0  0  0  0
  -26.9520  -21.5680   20.3722 C   0  0  0  0  0  0
  -28.4863  -19.8034   19.9115 C   0  0  0  0  0  0
  -28.0075  -22.3716   19.9690 C   0  0  0  0  0  0
  -25.5893  -22.0843   20.7294 C   0  0  0  0  0  0
  -27.9941  -23.9501   22.9416 C   0  0  0  0  0  0
  -28.8892  -17.2446   21.7608 C   0  0  0  0  0  0
  -31.6182  -17.0524   20.4557 C   0  0  0  0  0  0
  -30.5772  -16.1045   18.3607 C   0  0  0  0  0  0
  -28.9998  -18.4234   19.4125 C   0  0  0  0  0  0
  -27.9980  -23.8951   19.5990 C   0  0  0  0  0  0
  -27.5217  -25.0331   21.9597 C   0  0  0  0  0  0
  -29.1218  -17.0409   20.2550 C   0  0  1  0  0  0
  -28.3031  -25.0851   20.6256 C   0  0  2  0  0  0
  -30.4390  -16.1787   19.9092 C   0  0  0  0  0  0
  -29.4013  -21.3101   19.6781 S   0  0  0  0  0  0
  -31.4351  -12.4601   19.1468 H   0  0  0  0  0  0
  -30.2745  -11.4681   19.9862 H   0  0  0  0  0  0
  -29.7539  -11.6658   17.5177 H   0  0  0  0  0  0
  -29.6323  -13.4001   17.6733 H   0  0  0  0  0  0
  -27.8561  -11.2787   18.9121 H   0  0  0  0  0  0
  -27.3577  -12.5128   17.7803 H   0  0  0  0  0  0
  -27.5907  -14.2537   19.3882 H   0  0  0  0  0  0
  -28.7126  -12.3288   21.4813 H   0  0  0  0  0  0
  -28.4483  -14.0522   21.6691 H   0  0  0  0  0  0
  -25.2778   -9.5694   22.4780 H   0  0  0  0  0  0
  -24.0011   -7.4654   22.7503 H   0  0  0  0  0  0
  -21.0874   -8.8780   19.8943 H   0  0  0  0  0  0
  -22.3737  -10.9684   19.6165 H   0  0  0  0  0  0
  -21.2010   -7.6160   23.9712 H   0  0  0  0  0  0
  -21.1476   -6.0542   25.9077 H   0  0  0  0  0  0
  -22.0599   -2.7619   23.2847 H   0  0  0  0  0  0
  -22.4096  -11.9869   22.4795 H   0  0  0  0  0  0
  -21.1078  -13.1217   22.2585 H   0  0  0  0  0  0
  -24.6566  -15.8542   20.5574 H   0  0  0  0  0  0
  -26.2753  -15.6443   20.1288 H   0  0  0  0  0  0
  -26.7209  -32.5423   23.1147 H   0  0  0  0  0  0
  -25.0163  -33.9721   25.0488 H   0  0  0  0  0  0
  -22.7169  -31.3023   21.3992 H   0  0  0  0  0  0
  -23.3721  -35.9606   23.3303 H   0  0  0  0  0  0
  -24.3543  -36.8894   22.2065 H   0  0  0  0  0  0
  -23.7277  -37.6461   23.6702 H   0  0  0  0  0  0
  -26.1025  -31.5464   20.6098 H   0  0  0  0  0  0
  -26.8412  -30.8273   22.0122 H   0  0  0  0  0  0
  -28.1196  -28.9668   21.1821 H   0  0  0  0  0  0
  -25.9886  -25.9282   18.9895 H   0  0  0  0  0  0
  -23.9694  -27.2994   19.0125 H   0  0  0  0  0  0
  -23.7655  -30.5884   19.4041 H   0  0  0  0  0  0
  -22.7590  -29.2445   19.8547 H   0  0  0  0  0  0
  -25.1264  -36.1828   25.0819 H   0  0  0  0  0  0
  -20.9926  -28.3267   24.1397 H   0  0  0  0  0  0
  -20.5638  -26.2318   23.3584 H   0  0  0  0  0  0
  -21.6649  -26.7464   22.1212 H   0  0  0  0  0  0
  -19.6923  -25.6274   21.1257 H   0  0  0  0  0  0
  -19.6706  -27.3164   20.6676 H   0  0  0  0  0  0
  -17.4196  -26.6645   21.4000 H   0  0  0  0  0  0
  -18.0356  -26.0087   22.9014 H   0  0  0  0  0  0
  -19.7959  -30.7241   24.2288 H   0  0  0  0  0  0
  -17.5050  -31.6288   24.5135 H   0  0  0  0  0  0
  -15.5359  -30.2997   23.7699 H   0  0  0  0  0  0
  -15.8642  -28.0818   22.7105 H   0  0  0  0  0  0
  -24.5867  -30.7066   25.7849 H   0  0  0  0  0  0
  -24.8872  -32.2875   26.4950 H   0  0  0  0  0  0
  -25.7999  -30.8907   27.0296 H   0  0  0  0  0  0
  -26.2953  -29.6632   24.1496 H   0  0  0  0  0  0
  -27.4278  -29.7423   25.4807 H   0  0  0  0  0  0
  -27.8715  -30.4320   23.9382 H   0  0  0  0  0  0
  -27.2609  -33.3666   26.2110 H   0  0  0  0  0  0
  -28.3819  -32.6923   25.0380 H   0  0  0  0  0  0
  -28.0683  -31.8529   26.5505 H   0  0  0  0  0  0
  -28.2541  -38.0076   24.7484 H   0  0  0  0  0  0
  -28.1066  -36.2591   24.6311 H   0  0  0  0  0  0
  -27.2270  -37.1414   25.8878 H   0  0  0  0  0  0
  -20.9434  -29.8804   21.6892 H   0  0  0  0  0  0
  -26.0097  -38.2779   24.1449 H   0  0  0  0  0  0
  -26.4660  -19.4222   20.5807 H   0  0  0  0  0  0
  -24.8217  -21.3236   20.5763 H   0  0  0  0  0  0
  -25.3101  -22.9456   20.1254 H   0  0  0  0  0  0
  -25.5371  -22.3881   21.7749 H   0  0  0  0  0  0
  -27.9305  -22.9479   22.5245 H   0  0  0  0  0  0
  -27.3866  -23.9616   23.8450 H   0  0  0  0  0  0
  -29.0283  -24.1190   23.2394 H   0  0  0  0  0  0
  -27.8811  -17.6172   21.9472 H   0  0  0  0  0  0
  -29.5896  -17.9650   22.1797 H   0  0  0  0  0  0
  -28.9993  -16.3096   22.3097 H   0  0  0  0  0  0
  -31.7798  -16.8657   21.5188 H   0  0  0  0  0  0
  -31.4619  -18.1253   20.3692 H   0  0  0  0  0  0
  -32.5640  -16.8503   19.9501 H   0  0  0  0  0  0
  -30.8880  -17.0436   17.9037 H   0  0  0  0  0  0
  -29.6339  -15.8101   17.9006 H   0  0  0  0  0  0
  -31.3239  -15.3773   18.0356 H   0  0  0  0  0  0
  -29.9614  -18.6533   18.9617 H   0  0  0  0  0  0
  -28.3991  -18.1769   18.5359 H   0  0  0  0  0  0
  -27.0381  -24.0970   19.1318 H   0  0  0  0  0  0
  -28.7050  -24.0212   18.7810 H   0  0  0  0  0  0
  -27.6538  -25.9854   22.4768 H   0  0  0  0  0  0
  -26.4517  -24.9463   21.7647 H   0  0  0  0  0  0
  -28.2825  -16.4247   19.9304 H   0  0  0  0  0  0
  -29.3470  -24.9216   20.8967 H   0  0  0  0  0  0
  1 25  1  0  0  0
  1 30  2  0  0  0
  1 85  1  0  0  0
  2  3  1  0  0  0
  2 25  1  0  0  0
  2 87  1  0  0  0
  2 88  1  0  0  0
  3  4  1  0  0  0
  3 89  1  0  0  0
  3 90  1  0  0  0
  4  5  1  0  0  0
  4 91  1  0  0  0
  4 92  1  0  0  0
  5  6  1  0  0  0
  5 26  1  0  0  0
  5 93  1  0  0  0
  6 25  1  0  0  0
  6 94  1  0  0  0
  6 95  1  0  0  0
  7  8  2  0  0  0
  7 26  1  0  0  0
  7 29  1  0  0  0
  8  9  1  0  0  0
  8 22  1  0  0  0
  9 10  1  0  0  0
  9 27  2  0  0  0
 10 11  2  0  0  0
 10 15  1  0  0  0
 11 12  1  0  0  0
 11 96  1  0  0  0
 12 13  2  0  0  0
 12 97  1  0  0  0
 13 14  1  0  0  0
 13 31  1  0  0  0
 14 15  2  0  0  0
 14 98  1  0  0  0
 15 99  1  0  0  0
 16 17  2  0  0  0
 16 21  1  0  0  0
 16 31  1  0  0  0
 17 18  1  0  0  0
 17100  1  0  0  0
 18 19  2  0  0  0
 18101  1  0  0  0
 19 20  1  0  0  0
 19 24  1  0  0  0
 20 21  2  0  0  0
 20102  1  0  0  0
 21 23  1  0  0  0
 22 28  1  0  0  0
 22 32  2  0  0  0
 26 27  1  0  0  0
 28103  1  0  0  0
 28104  1  0  0  0
 29105  1  0  0  0
 29106  1  0  0  0
 33 34  1  0  0  0
 33 66  1  0  0  0
 33 70  2  0  0  0
 34 36  1  0  0  0
 34 59  1  0  0  0
 34107  1  0  0  0
 35 44  2  0  0  0
 35 45  1  0  0  0
 35 68  1  0  0  0
 36 56  1  0  0  0
 36108  1  0  0  0
 37 39  1  0  0  0
 37 47  1  0  0  0
 37 66  1  0  0  0
 37109  1  0  0  0
 38 43  2  0  0  0
 38 46  1  0  0  0
 38 47  1  0  0  0
 39 64  1  0  0  0
 39 67  2  0  0  0
 40 52  1  0  0  0
 40 53  2  0  0  0
 40 58  1  0  0  0
 41110  1  0  0  0
 41111  1  0  0  0
 41112  1  0  0  0
 41 48  1  0  0  0
 42 43  1  0  0  0
 42 66  1  0  0  0
 42113  1  0  0  0
 42114  1  0  0  0
 43 44  1  0  0  0
 44115  1  0  0  0
 45 46  2  0  0  0
 45116  1  0  0  0
 46117  1  0  0  0
 47118  1  0  0  0
 47119  1  0  0  0
 48 56  1  0  0  0
 48 65  1  0  0  0
 48120  1  0  0  0
 49 50  1  0  0  0
 49 53  1  0  0  0
 49 64  1  0  0  0
 49121  1  0  0  0
 50 51  1  0  0  0
 50122  1  0  0  0
 50123  1  0  0  0
 51 52  1  0  0  0
 51124  1  0  0  0
 51125  1  0  0  0
 52126  1  0  0  0
 52127  1  0  0  0
 53 54  1  0  0  0
 54 55  2  0  0  0
 54128  1  0  0  0
 55 57  1  0  0  0
 55129  1  0  0  0
 56 69  2  0  0  0
 57 58  2  0  0  0
 57130  1  0  0  0
 58131  1  0  0  0
 59 60  1  0  0  0
 59 61  1  0  0  0
 59 62  1  0  0  0
 60132  1  0  0  0
 60133  1  0  0  0
 60134  1  0  0  0
 61135  1  0  0  0
 61136  1  0  0  0
 61137  1  0  0  0
 62138  1  0  0  0
 62139  1  0  0  0
 62140  1  0  0  0
 63 65  1  0  0  0
 63141  1  0  0  0
 63142  1  0  0  0
 63143  1  0  0  0
 64144  1  0  0  0
 65145  1  0  0  0
 68 84  1  0  0  0
 71 72  1  0  0  0
 71 73  2  0  0  0
 71146  1  0  0  0
 72 74  2  0  0  0
 72 75  1  0  0  0
 73 80  1  0  0  0
 73 86  1  0  0  0
 74 81  1  0  0  0
 74 86  1  0  0  0
 75147  1  0  0  0
 75148  1  0  0  0
 75149  1  0  0  0
 76 82  1  0  0  0
 76150  1  0  0  0
 76151  1  0  0  0
 76152  1  0  0  0
 77153  1  0  0  0
 77154  1  0  0  0
 77155  1  0  0  0
 77 83  1  0  0  0
 78156  1  0  0  0
 78157  1  0  0  0
 78158  1  0  0  0
 78 85  1  0  0  0
 79 85  1  0  0  0
 79159  1  0  0  0
 79160  1  0  0  0
 79161  1  0  0  0
 80 83  1  0  0  0
 80162  1  0  0  0
 80163  1  0  0  0
 81164  1  0  0  0
 81165  1  0  0  0
 81 84  1  0  0  0
 82 84  1  0  0  0
 82166  1  0  0  0
 82167  1  0  0  0
 83 85  1  0  0  0
 83168  1  0  0  0
 84169  1  0  0  0
M  ISO  4   1 100  68 101  84 101  85 100
M  END
> <chiral flag>
0

> <version>
0

> <s_m_source_file>
/data/baiqing/PycharmProjects/Reinvent-master-3.2/result/LINK_invent/BTK/process_docking_weight1_custom_sum_contain_oxygen_bond_distance_aromatic_linkinvent_7_9_3/rearranged_h_0075.sdf

> <i_m_source_file_index>
41

> <r_mmod_Potential_Energy-OPLS-2005>
332.683349609375

> <r_mmod_Stretch_Energy-OPLS-2005>
101.472534179688

> <r_mmod_Bend_Energy-OPLS-2005>
237.188415527344

> <r_mmod_Torsional_Energy-OPLS-2005>
244.976333618164

> <r_mmod_Improper_Torsional_Energy-OPLS-2005>
17.9238681793213

> <r_mmod_Van_der_Waal_Energy-OPLS-2005>
121.885620117188

> <r_mmod_Electrostatic_Energy-OPLS-2005>
-309.306365966797

> <r_mmod_Solvation_Energy-OPLS-2005>
-172.279647827148

> <b_mmod_Minimization_Converged-OPLS-2005>
0

> <r_mmod_RMS_Derivative-OPLS-2005>
3.48028469085693

$$$$
42
                    3D
 Structure written by MMmdl.
164172  0  0  1  0            999 V2000
  -30.7259  -14.4916   20.5795 C   0  0  0  0  0  0
  -30.4210  -12.3177   19.4381 C   0  0  0  0  0  0
  -29.4961  -12.4894   18.2143 C   0  0  0  0  0  0
  -28.0176  -12.3605   18.6270 C   0  0  0  0  0  0
  -27.6610  -13.2121   19.8756 C   0  0  2  0  0  0
  -28.7054  -13.0134   20.9967 C   0  0  0  0  0  0
  -25.2588  -13.8173   20.5691 C   0  0  0  0  0  0
  -24.1850  -13.0437   20.9182 C   0  0  0  0  0  0
  -24.6412  -11.6913   20.8737 C   0  0  0  0  0  0
  -23.9072  -10.4291   21.0411 C   0  0  0  0  0  0
  -24.3629   -9.4212   21.9181 C   0  0  0  0  0  0
  -23.6300   -8.2244   22.0753 C   0  0  0  0  0  0
  -22.4296   -8.0283   21.3540 C   0  0  0  0  0  0
  -21.9922   -9.0255   20.4646 C   0  0  0  0  0  0
  -22.7249  -10.2136   20.3052 C   0  0  0  0  0  0
  -21.6858   -6.0746   22.5273 C   0  0  0  0  0  0
  -21.4025   -6.5647   23.8204 C   0  0  0  0  0  0
  -21.3651   -5.6798   24.9166 C   0  0  0  0  0  0
  -21.6038   -4.3058   24.7217 C   0  0  0  0  0  0
  -21.8818   -3.8159   23.4340 C   0  0  0  0  0  0
  -21.9208   -4.6973   22.3399 C   0  0  0  0  0  0
  -22.7870  -13.5225   21.1837 C   0  0  0  0  0  0
  -22.1674   -4.2157   21.0980 F   0  0  0  0  0  0
  -21.5621   -3.4545   25.7739 F   0  0  0  0  0  0
  -30.0325  -13.3214   20.4463 N   0  0  0  0  0  0
  -26.3037  -12.9347   20.3398 N   0  0  0  0  0  0
  -25.9349  -11.6504   20.5797 N   0  0  0  0  0  0
  -22.0515  -12.8211   22.0385 N   0  0  0  0  0  0
  -25.4300  -15.1893   20.4088 N   0  0  0  0  0  0
  -31.8430  -14.6225   20.0720 O   0  0  0  0  0  0
  -21.6654   -6.8885   21.4232 O   0  0  0  0  0  0
  -22.3554  -14.5539   20.6702 O   0  0  0  0  0  0
  -24.6171  -31.8688   23.2112 C   0  0  0  0  0  0
  -25.9059  -32.4827   23.8405 C   0  0  1  0  0  0
  -27.2278  -27.4124   20.0912 C   0  0  0  0  0  0
  -25.5915  -33.8618   24.2338 N   0  0  0  0  0  0
  -23.4067  -30.4941   21.5528 C   0  0  2  0  0  0
  -24.8509  -28.9669   20.1095 C   0  0  0  0  0  0
  -22.7431  -29.4667   22.4979 C   0  0  0  0  0  0
  -18.0268  -28.1389   22.8472 C   0  0  0  0  0  0
  -24.1494  -36.7315   23.2632 C   0  0  0  0  0  0
  -25.9392  -30.8255   21.3691 C   0  0  0  0  0  0
  -26.0149  -29.4618   20.7122 C   0  0  0  0  0  0
  -27.2059  -28.6926   20.6996 C   0  0  0  0  0  0
  -26.0405  -26.9548   19.4640 C   0  0  0  0  0  0
  -24.8588  -27.7129   19.4825 C   0  0  0  0  0  0
  -23.6150  -29.8353   20.1644 C   0  0  0  0  0  0
  -25.4107  -36.3124   24.0338 C   0  0  1  0  0  0
  -20.5864  -28.3686   23.1282 C   0  0  2  0  0  0
  -20.6768  -26.9427   22.5385 C   0  0  0  0  0  0
  -19.5754  -26.6403   21.5186 C   0  0  0  0  0  0
  -18.1923  -26.7925   22.1606 C   0  0  0  0  0  0
  -19.1519  -28.8853   23.2863 C   0  0  0  0  0  0
  -18.9452  -30.1439   23.8898 C   0  0  0  0  0  0
  -17.6460  -30.6589   24.0578 C   0  0  0  0  0  0
  -25.9034  -34.9478   23.5137 C   0  0  0  0  0  0
  -16.5351  -29.9098   23.6342 C   0  0  0  0  0  0
  -16.7261  -28.6513   23.0358 C   0  0  0  0  0  0
  -26.4481  -31.6605   25.0734 C   0  0  0  0  0  0
  -25.3736  -31.3681   26.1478 C   0  0  0  0  0  0
  -27.0334  -30.3057   24.6107 C   0  0  0  0  0  0
  -27.6060  -32.4317   25.7495 C   0  0  0  0  0  0
  -27.5590  -37.1796   24.8466 C   0  0  0  0  0  0
  -21.4151  -29.3064   22.3715 N   0  0  0  0  0  0
  -26.4306  -37.3803   23.9409 N   0  0  0  0  0  0
  -24.6733  -31.0759   22.1032 N   0  0  0  0  0  0
  -23.4189  -28.8180   23.3011 O   0  0  0  0  0  0
  -28.3736  -26.6256   20.1409 O   0  0  0  0  0  0
  -26.5617  -34.8932   22.4704 O   0  0  0  0  0  0
  -23.5347  -32.1473   23.7465 O   0  0  0  0  0  0
  -29.3219  -18.7102   19.0175 C   0  0  0  0  0  0
  -29.2325  -17.6633   18.1431 C   0  0  0  0  0  0
  -29.7985  -16.8497   20.1663 C   0  0  0  0  0  0
  -28.8730  -17.6105   16.6936 C   0  0  0  0  0  0
  -31.0876  -16.2553   22.3425 C   0  0  0  0  0  0
  -29.6822  -21.6405   20.9581 C   0  0  0  0  0  0
  -28.6902  -22.7965   20.6625 C   0  0  0  0  0  0
  -28.9442  -20.3676   21.4653 C   0  0  0  0  0  0
  -29.2561  -24.2404   20.5168 C   0  0  0  0  0  0
  -29.7334  -19.0224   21.4908 C   0  0  0  0  0  0
  -28.1528  -25.2032   20.0024 C   0  0  0  0  0  0
  -30.1228  -15.7804   21.2287 C   0  0  2  0  0  0
  -29.6182  -18.1981   20.2602 N   0  0  0  0  0  0
  -29.5366  -16.5522   18.8797 N   0  3  0  0  0  0
  -31.4668  -12.3991   19.1353 H   0  0  0  0  0  0
  -30.3193  -11.3128   19.8526 H   0  0  0  0  0  0
  -29.7354  -11.7394   17.4581 H   0  0  0  0  0  0
  -29.6713  -13.4586   17.7481 H   0  0  0  0  0  0
  -27.8332  -11.3076   18.8403 H   0  0  0  0  0  0
  -27.3658  -12.6177   17.7919 H   0  0  0  0  0  0
  -27.6965  -14.2572   19.5692 H   0  0  0  0  0  0
  -28.6875  -11.9777   21.3403 H   0  0  0  0  0  0
  -28.4616  -13.6042   21.8789 H   0  0  0  0  0  0
  -25.2768   -9.5684   22.4749 H   0  0  0  0  0  0
  -24.0000   -7.4636   22.7478 H   0  0  0  0  0  0
  -21.0850   -8.8771   19.8954 H   0  0  0  0  0  0
  -22.3698  -10.9672   19.6155 H   0  0  0  0  0  0
  -21.2006   -7.6158   23.9723 H   0  0  0  0  0  0
  -21.1477   -6.0518   25.9068 H   0  0  0  0  0  0
  -22.0611   -2.7624   23.2824 H   0  0  0  0  0  0
  -22.4154  -11.9884   22.4780 H   0  0  0  0  0  0
  -21.1139  -13.1253   22.2609 H   0  0  0  0  0  0
  -24.6605  -15.8409   20.5179 H   0  0  0  0  0  0
  -26.2778  -15.6323   20.0796 H   0  0  0  0  0  0
  -26.7125  -32.5564   23.1156 H   0  0  0  0  0  0
  -25.0088  -33.9786   25.0504 H   0  0  0  0  0  0
  -22.6962  -31.3126   21.4170 H   0  0  0  0  0  0
  -23.3770  -35.9643   23.3301 H   0  0  0  0  0  0
  -24.3586  -36.8928   22.2048 H   0  0  0  0  0  0
  -23.7227  -37.6498   23.6655 H   0  0  0  0  0  0
  -26.0540  -31.5931   20.6032 H   0  0  0  0  0  0
  -26.8242  -30.8752   21.9912 H   0  0  0  0  0  0
  -28.0998  -29.0639   21.1810 H   0  0  0  0  0  0
  -25.9948  -26.0067   18.9487 H   0  0  0  0  0  0
  -23.9662  -27.3307   19.0028 H   0  0  0  0  0  0
  -23.7236  -30.6156   19.4090 H   0  0  0  0  0  0
  -22.7381  -29.2568   19.8685 H   0  0  0  0  0  0
  -25.1259  -36.2004   25.0829 H   0  0  0  0  0  0
  -20.9931  -28.3284   24.1418 H   0  0  0  0  0  0
  -20.5698  -26.2305   23.3578 H   0  0  0  0  0  0
  -21.6628  -26.7509   22.1155 H   0  0  0  0  0  0
  -19.6949  -25.6317   21.1224 H   0  0  0  0  0  0
  -19.6693  -27.3227   20.6719 H   0  0  0  0  0  0
  -17.4184  -26.6668   21.4020 H   0  0  0  0  0  0
  -18.0331  -26.0064   22.9004 H   0  0  0  0  0  0
  -19.7944  -30.7212   24.2316 H   0  0  0  0  0  0
  -17.5047  -31.6290   24.5157 H   0  0  0  0  0  0
  -15.5358  -30.3019   23.7655 H   0  0  0  0  0  0
  -15.8660  -28.0843   22.7087 H   0  0  0  0  0  0
  -24.5923  -30.7022   25.7790 H   0  0  0  0  0  0
  -24.8913  -32.2823   26.4953 H   0  0  0  0  0  0
  -25.8074  -30.8831   27.0233 H   0  0  0  0  0  0
  -26.2894  -29.6784   24.1188 H   0  0  0  0  0  0
  -27.4146  -29.7303   25.4548 H   0  0  0  0  0  0
  -27.8710  -30.4373   23.9249 H   0  0  0  0  0  0
  -27.2705  -33.3617   26.2083 H   0  0  0  0  0  0
  -28.3871  -32.6858   25.0323 H   0  0  0  0  0  0
  -28.0749  -31.8443   26.5399 H   0  0  0  0  0  0
  -28.2570  -38.0127   24.7537 H   0  0  0  0  0  0
  -28.1108  -36.2640   24.6259 H   0  0  0  0  0  0
  -27.2299  -37.1406   25.8867 H   0  0  0  0  0  0
  -20.9334  -29.8802   21.6940 H   0  0  0  0  0  0
  -26.0208  -38.2883   24.1423 H   0  0  0  0  0  0
  -29.1585  -19.7643   18.8413 H   0  0  0  0  0  0
  -27.8184  -17.3580   16.5792 H   0  0  0  0  0  0
  -29.4656  -16.8613   16.1690 H   0  0  0  0  0  0
  -29.0464  -18.5773   16.2193 H   0  0  0  0  0  0
  -30.6175  -16.9255   23.0602 H   0  0  0  0  0  0
  -31.9608  -16.7594   21.9259 H   0  0  0  0  0  0
  -31.4493  -15.4099   22.9301 H   0  0  0  0  0  0
  -30.4052  -21.9557   21.7120 H   0  0  0  0  0  0
  -30.2602  -21.4221   20.0605 H   0  0  0  0  0  0
  -27.9368  -22.8139   21.4516 H   0  0  0  0  0  0
  -28.1467  -22.5398   19.7524 H   0  0  0  0  0  0
  -28.0121  -20.2263   20.9180 H   0  0  0  0  0  0
  -28.6240  -20.5786   22.4864 H   0  0  0  0  0  0
  -30.1057  -24.2546   19.8341 H   0  0  0  0  0  0
  -29.6263  -24.5848   21.4843 H   0  0  0  0  0  0
  -29.3067  -18.4324   22.3001 H   0  0  0  0  0  0
  -30.7910  -19.1778   21.7098 H   0  0  0  0  0  0
  -27.2471  -24.9443   20.5535 H   0  0  0  0  0  0
  -27.9686  -24.9781   18.9510 H   0  0  0  0  0  0
  -29.1632  -15.5726   21.6920 H   0  0  0  0  0  0
  -29.5846  -15.6188   18.4895 H   0  0  0  0  0  0
  1 25  1  0  0  0
  1 30  2  0  0  0
  1 82  1  0  0  0
  2  3  1  0  0  0
  2 25  1  0  0  0
  2 85  1  0  0  0
  2 86  1  0  0  0
  3  4  1  0  0  0
  3 87  1  0  0  0
  3 88  1  0  0  0
  4  5  1  0  0  0
  4 89  1  0  0  0
  4 90  1  0  0  0
  5  6  1  0  0  0
  5 26  1  0  0  0
  5 91  1  0  0  0
  6 25  1  0  0  0
  6 92  1  0  0  0
  6 93  1  0  0  0
  7  8  2  0  0  0
  7 26  1  0  0  0
  7 29  1  0  0  0
  8  9  1  0  0  0
  8 22  1  0  0  0
  9 10  1  0  0  0
  9 27  2  0  0  0
 10 11  2  0  0  0
 10 15  1  0  0  0
 11 12  1  0  0  0
 11 94  1  0  0  0
 12 13  2  0  0  0
 12 95  1  0  0  0
 13 14  1  0  0  0
 13 31  1  0  0  0
 14 15  2  0  0  0
 14 96  1  0  0  0
 15 97  1  0  0  0
 16 17  2  0  0  0
 16 21  1  0  0  0
 16 31  1  0  0  0
 17 18  1  0  0  0
 17 98  1  0  0  0
 18 19  2  0  0  0
 18 99  1  0  0  0
 19 20  1  0  0  0
 19 24  1  0  0  0
 20 21  2  0  0  0
 20100  1  0  0  0
 21 23  1  0  0  0
 22 28  1  0  0  0
 22 32  2  0  0  0
 26 27  1  0  0  0
 28101  1  0  0  0
 28102  1  0  0  0
 29103  1  0  0  0
 29104  1  0  0  0
 33 34  1  0  0  0
 33 66  1  0  0  0
 33 70  2  0  0  0
 34 36  1  0  0  0
 34 59  1  0  0  0
 34105  1  0  0  0
 35 44  2  0  0  0
 35 45  1  0  0  0
 35 68  1  0  0  0
 36 56  1  0  0  0
 36106  1  0  0  0
 37 39  1  0  0  0
 37 47  1  0  0  0
 37 66  1  0  0  0
 37107  1  0  0  0
 38 43  2  0  0  0
 38 46  1  0  0  0
 38 47  1  0  0  0
 39 64  1  0  0  0
 39 67  2  0  0  0
 40 52  1  0  0  0
 40 53  2  0  0  0
 40 58  1  0  0  0
 41108  1  0  0  0
 41109  1  0  0  0
 41110  1  0  0  0
 41 48  1  0  0  0
 42 43  1  0  0  0
 42 66  1  0  0  0
 42111  1  0  0  0
 42112  1  0  0  0
 43 44  1  0  0  0
 44113  1  0  0  0
 45 46  2  0  0  0
 45114  1  0  0  0
 46115  1  0  0  0
 47116  1  0  0  0
 47117  1  0  0  0
 48 56  1  0  0  0
 48 65  1  0  0  0
 48118  1  0  0  0
 49 50  1  0  0  0
 49 53  1  0  0  0
 49 64  1  0  0  0
 49119  1  0  0  0
 50 51  1  0  0  0
 50120  1  0  0  0
 50121  1  0  0  0
 51 52  1  0  0  0
 51122  1  0  0  0
 51123  1  0  0  0
 52124  1  0  0  0
 52125  1  0  0  0
 53 54  1  0  0  0
 54 55  2  0  0  0
 54126  1  0  0  0
 55 57  1  0  0  0
 55127  1  0  0  0
 56 69  2  0  0  0
 57 58  2  0  0  0
 57128  1  0  0  0
 58129  1  0  0  0
 59 60  1  0  0  0
 59 61  1  0  0  0
 59 62  1  0  0  0
 60130  1  0  0  0
 60131  1  0  0  0
 60132  1  0  0  0
 61133  1  0  0  0
 61134  1  0  0  0
 61135  1  0  0  0
 62136  1  0  0  0
 62137  1  0  0  0
 62138  1  0  0  0
 63 65  1  0  0  0
 63139  1  0  0  0
 63140  1  0  0  0
 63141  1  0  0  0
 64142  1  0  0  0
 65143  1  0  0  0
 68 81  1  0  0  0
 71 72  2  0  0  0
 71 83  1  0  0  0
 71144  1  0  0  0
 72 74  1  0  0  0
 72 84  1  0  0  0
 73 82  1  0  0  0
 73 83  1  0  0  0
 73 84  2  0  0  0
 74145  1  0  0  0
 74146  1  0  0  0
 74147  1  0  0  0
 75148  1  0  0  0
 75149  1  0  0  0
 75150  1  0  0  0
 75 82  1  0  0  0
 76 77  1  0  0  0
 76 78  1  0  0  0
 76151  1  0  0  0
 76152  1  0  0  0
 77 79  1  0  0  0
 77153  1  0  0  0
 77154  1  0  0  0
 78 80  1  0  0  0
 78155  1  0  0  0
 78156  1  0  0  0
 79 81  1  0  0  0
 79157  1  0  0  0
 79158  1  0  0  0
 80 83  1  0  0  0
 80159  1  0  0  0
 80160  1  0  0  0
 81161  1  0  0  0
 81162  1  0  0  0
 82163  1  0  0  0
 84164  1  0  0  0
M  CHG  1  84   1
M  ISO  4   1 100  68 101  81 101  82 100
M  END
> <chiral flag>
0

> <version>
0

> <s_m_source_file>
/data/baiqing/PycharmProjects/Reinvent-master-3.2/result/LINK_invent/BTK/process_docking_weight1_custom_sum_contain_oxygen_bond_distance_aromatic_linkinvent_7_9_3/rearranged_h_0075.sdf

> <i_m_source_file_index>
42

> <r_mmod_Potential_Energy-OPLS-2005>
2.86799120903015

> <r_mmod_Stretch_Energy-OPLS-2005>
46.8770217895508

> <r_mmod_Bend_Energy-OPLS-2005>
115.080703735352

> <r_mmod_Torsional_Energy-OPLS-2005>
203.021224975586

> <r_mmod_Improper_Torsional_Energy-OPLS-2005>
3.10191535949707

> <r_mmod_Van_der_Waal_Energy-OPLS-2005>
133.27473449707

> <r_mmod_Electrostatic_Energy-OPLS-2005>
-127.963233947754

> <r_mmod_Solvation_Energy-OPLS-2005>
-388.0791015625

> <b_mmod_Minimization_Converged-OPLS-2005>
0

> <r_mmod_RMS_Derivative-OPLS-2005>
2.69147920608521

$$$$
43
                    3D
 Structure written by MMmdl.
161169  0  0  1  0            999 V2000
  -29.8529  -14.3285   19.2932 C   0  0  0  0  0  0
  -30.8215  -12.1976   19.4381 C   0  0  0  0  0  0
  -29.7343  -11.7424   18.5114 C   0  0  0  0  0  0
  -28.4352  -11.7759   19.3482 C   0  0  0  0  0  0
  -28.2151  -12.8874   20.7146 C   0  0  2  0  0  0
  -29.5020  -13.0125   21.3373 C   0  0  0  0  0  0
  -25.9230  -14.1532   20.9819 C   0  0  0  0  0  0
  -24.1984  -13.5986   20.5875 C   0  0  0  0  0  0
  -24.0523  -12.3505   20.2095 C   0  0  0  0  0  0
  -23.6684  -10.8409   20.7581 C   0  0  0  0  0  0
  -24.2364   -9.8492   21.6865 C   0  0  0  0  0  0
  -23.6493   -8.5590   21.9677 C   0  0  0  0  0  0
  -22.4525   -8.1601   21.3213 C   0  0  0  0  0  0
  -21.9222   -9.0749   20.3986 C   0  0  0  0  0  0
  -22.5112  -10.3329   20.1291 C   0  0  0  0  0  0
  -21.7669   -6.1210   22.5226 C   0  0  0  0  0  0
  -21.4591   -6.5958   23.8160 C   0  0  0  0  0  0
  -21.3825   -5.6995   24.9047 C   0  0  0  0  0  0
  -21.6059   -4.3225   24.7098 C   0  0  0  0  0  0
  -21.8799   -3.8368   23.4207 C   0  0  0  0  0  0
  -21.9510   -4.7304   22.3339 C   0  0  0  0  0  0
  -22.6330  -13.9048   20.9994 C   0  0  0  0  0  0
  -22.1816   -4.2383   21.0921 F   0  0  0  0  0  0
  -21.5550   -3.4633   25.7574 F   0  0  0  0  0  0
  -30.2750  -13.3474   20.1412 N   0  0  0  0  0  0
  -26.8887  -13.7273   21.1600 N   0  0  0  0  0  0
  -25.0041  -13.5229   20.5823 N   0  0  0  0  0  0
  -22.0488  -13.0872   21.9042 N   0  0  0  0  0  0
  -26.8129  -15.2518   21.4647 N   0  0  0  0  0  0
  -30.8004  -15.1413   19.2232 O   0  0  0  0  0  0
  -21.7840   -6.9434   21.4136 O   0  0  0  0  0  0
  -22.0197  -14.8215   20.4905 O   0  0  0  0  0  0
  -24.6902  -31.7975   23.1588 C   0  0  0  0  0  0
  -25.9504  -32.4436   23.8042 C   0  0  1  0  0  0
  -26.6868  -26.4585   20.3355 C   0  0  0  0  0  0
  -25.6066  -33.8285   24.1896 N   0  0  0  0  0  0
  -23.4905  -30.4342   21.5249 C   0  0  2  0  0  0
  -24.8588  -28.7819   20.0791 C   0  0  0  0  0  0
  -22.7745  -29.4314   22.4711 C   0  0  0  0  0  0
  -18.0315  -28.1424   22.8462 C   0  0  0  0  0  0
  -24.1496  -36.7158   23.2632 C   0  0  0  0  0  0
  -26.0723  -30.4301   21.4635 C   0  0  0  0  0  0
  -26.0335  -28.9955   20.8032 C   0  0  0  0  0  0
  -26.9746  -27.8415   20.9023 C   0  0  0  0  0  0
  -25.6311  -26.5387   19.4278 C   0  0  0  0  0  0
  -24.7227  -27.6092   19.3389 C   0  0  0  0  0  0
  -23.7218  -29.7958   20.1312 C   0  0  0  0  0  0
  -25.4160  -36.2915   24.0258 C   0  0  1  0  0  0
  -20.5950  -28.3738   23.1193 C   0  0  2  0  0  0
  -20.6798  -26.9403   22.5425 C   0  0  0  0  0  0
  -19.5755  -26.6354   21.5250 C   0  0  0  0  0  0
  -18.1935  -26.7956   22.1639 C   0  0  0  0  0  0
  -19.1585  -28.8913   23.2796 C   0  0  0  0  0  0
  -18.9470  -30.1513   23.8813 C   0  0  0  0  0  0
  -17.6454  -30.6603   24.0545 C   0  0  0  0  0  0
  -25.9159  -34.9301   23.4925 C   0  0  0  0  0  0
  -16.5351  -29.9065   23.6363 C   0  0  0  0  0  0
  -16.7288  -28.6502   23.0356 C   0  0  0  0  0  0
  -26.4621  -31.6533   25.0723 C   0  0  0  0  0  0
  -25.3575  -31.3889   26.1245 C   0  0  0  0  0  0
  -27.0562  -30.2859   24.6769 C   0  0  0  0  0  0
  -27.6106  -32.4380   25.7476 C   0  0  0  0  0  0
  -27.5595  -37.1745   24.8457 C   0  0  0  0  0  0
  -21.4399  -29.2997   22.3522 N   0  0  0  0  0  0
  -26.4291  -37.3691   23.9410 N   0  0  0  0  0  0
  -24.7819  -30.9313   22.0944 N   0  0  0  0  0  0
  -23.4273  -28.7818   23.2924 O   0  0  0  0  0  0
  -27.1840  -24.9981   20.5016 O   0  0  0  0  0  0
  -26.5802  -34.8885   22.4552 O   0  0  0  0  0  0
  -23.5954  -32.1169   23.6543 O   0  0  0  0  0  0
  -25.4021  -15.3069   19.1508 C   0  0  0  0  0  0
  -24.6205  -15.9903   21.0159 C   0  0  0  0  0  0
  -26.4422  -13.4236   18.8833 C   0  0  0  0  0  0
  -24.6552  -14.4830   22.7385 C   0  0  0  0  0  0
  -24.3012  -14.9121   24.1349 C   0  0  0  0  0  0
  -27.9785  -15.8596   18.4604 C   0  0  0  0  0  0
  -28.2712  -14.0836   16.9538 C   0  0  0  0  0  0
  -24.6089  -17.9086   21.0091 C   0  0  0  0  0  0
  -25.7102  -19.5798   21.1295 C   0  0  0  0  0  0
  -26.0187  -21.4676   20.4676 C   0  0  0  0  0  0
  -26.3396  -23.4153   20.8912 C   0  0  0  0  0  0
  -28.1270  -14.2877   18.4812 C   0  0  0  0  0  0
  -26.2236  -11.7338   20.5179 N   0  0  0  0  0  0
  -25.4292  -12.4477   22.4566 N   0  0  0  0  0  0
  -31.6949  -12.4642   18.8372 H   0  0  0  0  0  0
  -31.1527  -11.4028   20.1164 H   0  0  0  0  0  0
  -29.9264  -10.7080   18.2159 H   0  0  0  0  0  0
  -29.8082  -12.3098   17.5940 H   0  0  0  0  0  0
  -28.4638  -10.8314   19.8897 H   0  0  0  0  0  0
  -27.6659  -11.5237   18.6197 H   0  0  0  0  0  0
  -28.2791  -13.8986   20.6900 H   0  0  0  0  0  0
  -29.8585  -12.0708   21.7560 H   0  0  0  0  0  0
  -29.6101  -13.7834   22.1063 H   0  0  0  0  0  0
  -25.1638  -10.0581   22.1947 H   0  0  0  0  0  0
  -24.1483   -7.8888   22.6521 H   0  0  0  0  0  0
  -21.0338   -8.7983   19.8492 H   0  0  0  0  0  0
  -22.0195  -10.9554   19.3926 H   0  0  0  0  0  0
  -21.2729   -7.6461   23.9707 H   0  0  0  0  0  0
  -21.1595   -6.0687   25.8947 H   0  0  0  0  0  0
  -22.0348   -2.7790   23.2632 H   0  0  0  0  0  0
  -22.5763  -12.3262   22.3121 H   0  0  0  0  0  0
  -21.0795  -13.2064   22.1670 H   0  0  0  0  0  0
  -26.4276  -16.1630   21.6576 H   0  0  0  0  0  0
  -27.6915  -15.0882   21.9384 H   0  0  0  0  0  0
  -26.7518  -32.4753   23.0644 H   0  0  0  0  0  0
  -25.0087  -33.9279   24.9976 H   0  0  0  0  0  0
  -22.8160  -31.2824   21.3797 H   0  0  0  0  0  0
  -23.3829  -35.9415   23.3208 H   0  0  0  0  0  0
  -24.3550  -36.8939   22.2065 H   0  0  0  0  0  0
  -23.7165  -37.6274   23.6770 H   0  0  0  0  0  0
  -26.3466  -31.1324   20.6764 H   0  0  0  0  0  0
  -26.9218  -30.4459   22.1337 H   0  0  0  0  0  0
  -27.8357  -27.9309   21.5512 H   0  0  0  0  0  0
  -25.3588  -25.6482   18.8762 H   0  0  0  0  0  0
  -23.8453  -27.4890   18.7155 H   0  0  0  0  0  0
  -23.9565  -30.5758   19.4102 H   0  0  0  0  0  0
  -22.8026  -29.3339   19.7708 H   0  0  0  0  0  0
  -25.1356  -36.1677   25.0748 H   0  0  0  0  0  0
  -20.9986  -28.3352   24.1345 H   0  0  0  0  0  0
  -20.5771  -26.2301   23.3656 H   0  0  0  0  0  0
  -21.6631  -26.7431   22.1152 H   0  0  0  0  0  0
  -19.6898  -25.6251   21.1299 H   0  0  0  0  0  0
  -19.6713  -27.3162   20.6782 H   0  0  0  0  0  0
  -17.4220  -26.6707   21.4037 H   0  0  0  0  0  0
  -18.0294  -26.0131   22.9058 H   0  0  0  0  0  0
  -19.7927  -30.7365   24.2156 H   0  0  0  0  0  0
  -17.4981  -31.6277   24.5152 H   0  0  0  0  0  0
  -15.5344  -30.2914   23.7754 H   0  0  0  0  0  0
  -15.8690  -28.0799   22.7093 H   0  0  0  0  0  0
  -24.5764  -30.7299   25.7420 H   0  0  0  0  0  0
  -24.8740  -32.3126   26.4450 H   0  0  0  0  0  0
  -25.7599  -30.9084   27.0165 H   0  0  0  0  0  0
  -26.3264  -29.6402   24.1873 H   0  0  0  0  0  0
  -27.4026  -29.7397   25.5554 H   0  0  0  0  0  0
  -27.9268  -30.3997   24.0297 H   0  0  0  0  0  0
  -27.2748  -33.3807   26.1797 H   0  0  0  0  0  0
  -28.4001  -32.6740   25.0320 H   0  0  0  0  0  0
  -28.0671  -31.8645   26.5551 H   0  0  0  0  0  0
  -28.2544  -38.0113   24.7624 H   0  0  0  0  0  0
  -28.1168  -36.2660   24.6152 H   0  0  0  0  0  0
  -27.2315  -37.1209   25.8851 H   0  0  0  0  0  0
  -20.9697  -29.8686   21.6619 H   0  0  0  0  0  0
  -26.0133  -38.2745   24.1451 H   0  0  0  0  0  0
  -25.4724  -16.1098   18.4380 H   0  0  0  0  0  0
  -23.7672  -15.8605   24.1095 H   0  0  0  0  0  0
  -25.2065  -15.0386   24.7257 H   0  0  0  0  0  0
  -23.6741  -14.1574   24.6028 H   0  0  0  0  0  0
  -27.3889  -16.2426   17.6269 H   0  0  0  0  0  0
  -28.9170  -16.3672   18.2589 H   0  0  0  0  0  0
  -27.6400  -16.3307   19.3859 H   0  0  0  0  0  0
  -28.2757  -13.0509   16.6188 H   0  0  0  0  0  0
  -29.1679  -14.5767   16.5776 H   0  0  0  0  0  0
  -27.3980  -14.4845   16.4433 H   0  0  0  0  0  0
  -23.8100  -18.1039   21.7261 H   0  0  0  0  0  0
  -24.0893  -18.0662   20.0649 H   0  0  0  0  0  0
  -26.6546  -19.1402   20.8057 H   0  0  0  0  0  0
  -25.8605  -19.6622   22.2038 H   0  0  0  0  0  0
  -25.3165  -21.5298   19.6386 H   0  0  0  0  0  0
  -26.9570  -21.2796   19.9519 H   0  0  0  0  0  0
  -26.6196  -23.3349   21.9392 H   0  0  0  0  0  0
  -25.3101  -23.7621   20.9791 H   0  0  0  0  0  0
  1 25  1  0  0  0
  1 30  2  0  0  0
  1 82  1  0  0  0
  2  3  1  0  0  0
  2 25  1  0  0  0
  2 85  1  0  0  0
  2 86  1  0  0  0
  3  4  1  0  0  0
  3 87  1  0  0  0
  3 88  1  0  0  0
  4  5  1  0  0  0
  4 89  1  0  0  0
  4 90  1  0  0  0
  5  6  1  0  0  0
  5 26  1  0  0  0
  5 91  1  0  0  0
  6 25  1  0  0  0
  6 92  1  0  0  0
  6 93  1  0  0  0
  7  8  2  0  0  0
  7 26  1  0  0  0
  7 29  1  0  0  0
  8  9  1  0  0  0
  8 22  1  0  0  0
  9 10  1  0  0  0
  9 27  2  0  0  0
 10 11  2  0  0  0
 10 15  1  0  0  0
 11 12  1  0  0  0
 11 94  1  0  0  0
 12 13  2  0  0  0
 12 95  1  0  0  0
 13 14  1  0  0  0
 13 31  1  0  0  0
 14 15  2  0  0  0
 14 96  1  0  0  0
 15 97  1  0  0  0
 16 17  2  0  0  0
 16 21  1  0  0  0
 16 31  1  0  0  0
 17 18  1  0  0  0
 17 98  1  0  0  0
 18 19  2  0  0  0
 18 99  1  0  0  0
 19 20  1  0  0  0
 19 24  1  0  0  0
 20 21  2  0  0  0
 20100  1  0  0  0
 21 23  1  0  0  0
 22 28  1  0  0  0
 22 32  2  0  0  0
 26 27  1  0  0  0
 28101  1  0  0  0
 28102  1  0  0  0
 29103  1  0  0  0
 29104  1  0  0  0
 33 34  1  0  0  0
 33 66  1  0  0  0
 33 70  2  0  0  0
 34 36  1  0  0  0
 34 59  1  0  0  0
 34105  1  0  0  0
 35 44  2  0  0  0
 35 45  1  0  0  0
 35 68  1  0  0  0
 36 56  1  0  0  0
 36106  1  0  0  0
 37 39  1  0  0  0
 37 47  1  0  0  0
 37 66  1  0  0  0
 37107  1  0  0  0
 38 43  2  0  0  0
 38 46  1  0  0  0
 38 47  1  0  0  0
 39 64  1  0  0  0
 39 67  2  0  0  0
 40 52  1  0  0  0
 40 53  2  0  0  0
 40 58  1  0  0  0
 41108  1  0  0  0
 41109  1  0  0  0
 41110  1  0  0  0
 41 48  1  0  0  0
 42 43  1  0  0  0
 42 66  1  0  0  0
 42111  1  0  0  0
 42112  1  0  0  0
 43 44  1  0  0  0
 44113  1  0  0  0
 45 46  2  0  0  0
 45114  1  0  0  0
 46115  1  0  0  0
 47116  1  0  0  0
 47117  1  0  0  0
 48 56  1  0  0  0
 48 65  1  0  0  0
 48118  1  0  0  0
 49 50  1  0  0  0
 49 53  1  0  0  0
 49 64  1  0  0  0
 49119  1  0  0  0
 50 51  1  0  0  0
 50120  1  0  0  0
 50121  1  0  0  0
 51 52  1  0  0  0
 51122  1  0  0  0
 51123  1  0  0  0
 52124  1  0  0  0
 52125  1  0  0  0
 53 54  1  0  0  0
 54 55  2  0  0  0
 54126  1  0  0  0
 55 57  1  0  0  0
 55127  1  0  0  0
 56 69  2  0  0  0
 57 58  2  0  0  0
 57128  1  0  0  0
 58129  1  0  0  0
 59 60  1  0  0  0
 59 61  1  0  0  0
 59 62  1  0  0  0
 60130  1  0  0  0
 60131  1  0  0  0
 60132  1  0  0  0
 61133  1  0  0  0
 61134  1  0  0  0
 61135  1  0  0  0
 62136  1  0  0  0
 62137  1  0  0  0
 62138  1  0  0  0
 63 65  1  0  0  0
 63139  1  0  0  0
 63140  1  0  0  0
 63141  1  0  0  0
 64142  1  0  0  0
 65143  1  0  0  0
 68 81  1  0  0  0
 71 72  2  0  0  0
 71 73  1  0  0  0
 71144  1  0  0  0
 72 74  1  0  0  0
 72 78  1  0  0  0
 73 82  1  0  0  0
 73 83  2  0  0  0
 74 75  1  0  0  0
 74 84  2  0  0  0
 75145  1  0  0  0
 75146  1  0  0  0
 75147  1  0  0  0
 76148  1  0  0  0
 76149  1  0  0  0
 76150  1  0  0  0
 76 82  1  0  0  0
 77 82  1  0  0  0
 77151  1  0  0  0
 77152  1  0  0  0
 77153  1  0  0  0
 78 79  1  0  0  0
 78154  1  0  0  0
 78155  1  0  0  0
 79 80  1  0  0  0
 79156  1  0  0  0
 79157  1  0  0  0
 80 81  1  0  0  0
 80158  1  0  0  0
 80159  1  0  0  0
 81160  1  0  0  0
 81161  1  0  0  0
 83 84  1  0  0  0
M  ISO  4   1 100  68 101  81 101  82 100
M  END
> <chiral flag>
0

> <version>
0

> <s_m_source_file>
/data/baiqing/PycharmProjects/Reinvent-master-3.2/result/LINK_invent/BTK/process_docking_weight1_custom_sum_contain_oxygen_bond_distance_aromatic_linkinvent_7_9_3/rearranged_h_0075.sdf

> <i_m_source_file_index>
43

> <r_mmod_Potential_Energy-OPLS-2005>
23603.23828125

> <r_mmod_Stretch_Energy-OPLS-2005>
12660.2265625

> <r_mmod_Bend_Energy-OPLS-2005>
2979.07958984375

> <r_mmod_Torsional_Energy-OPLS-2005>
562.91455078125

> <r_mmod_Improper_Torsional_Energy-OPLS-2005>
81.9348068237305

> <r_mmod_Van_der_Waal_Energy-OPLS-2005>
4822.94970703125

> <r_mmod_Electrostatic_Energy-OPLS-2005>
-281.578735351562

> <r_mmod_Solvation_Energy-OPLS-2005>
-205.637802124023

> <b_mmod_Minimization_Converged-OPLS-2005>
0

> <r_mmod_RMS_Derivative-OPLS-2005>
15.0697536468506

$$$$
44
                    3D
 Structure written by MMmdl.
161169  0  0  1  0            999 V2000
  -30.5035  -14.9975   20.4264 C   0  0  0  0  0  0
  -30.4444  -12.6186   19.5108 C   0  0  0  0  0  0
  -29.5335  -12.5013   18.2641 C   0  0  0  0  0  0
  -28.0631  -12.2924   18.6796 C   0  0  0  0  0  0
  -27.6262  -13.2407   19.8294 C   0  0  2  0  0  0
  -28.6614  -13.2953   20.9709 C   0  0  0  0  0  0
  -25.2457  -13.8170   20.5665 C   0  0  0  0  0  0
  -24.1776  -13.0407   20.9204 C   0  0  0  0  0  0
  -24.6371  -11.6896   20.8738 C   0  0  0  0  0  0
  -23.9046  -10.4283   21.0371 C   0  0  0  0  0  0
  -24.3611   -9.4209   21.9149 C   0  0  0  0  0  0
  -23.6274   -8.2262   22.0743 C   0  0  0  0  0  0
  -22.4262   -8.0300   21.3536 C   0  0  0  0  0  0
  -21.9889   -9.0257   20.4620 C   0  0  0  0  0  0
  -22.7225  -10.2129   20.3011 C   0  0  0  0  0  0
  -21.6866   -6.0717   22.5274 C   0  0  0  0  0  0
  -21.4024   -6.5608   23.8212 C   0  0  0  0  0  0
  -21.3656   -5.6766   24.9166 C   0  0  0  0  0  0
  -21.6028   -4.3023   24.7222 C   0  0  0  0  0  0
  -21.8829   -3.8131   23.4345 C   0  0  0  0  0  0
  -21.9194   -4.6939   22.3403 C   0  0  0  0  0  0
  -22.7818  -13.5195   21.1873 C   0  0  0  0  0  0
  -22.1681   -4.2130   21.0977 F   0  0  0  0  0  0
  -21.5596   -3.4496   25.7723 F   0  0  0  0  0  0
  -29.9261  -13.7270   20.3639 N   0  0  0  0  0  0
  -26.2871  -12.9385   20.3201 N   0  0  0  0  0  0
  -25.9295  -11.6528   20.5732 N   0  0  0  0  0  0
  -22.0479  -12.8181   22.0433 N   0  0  0  0  0  0
  -25.4061  -15.1898   20.4064 N   0  0  0  0  0  0
  -31.7198  -15.0640   20.2230 O   0  0  0  0  0  0
  -21.6644   -6.8875   21.4250 O   0  0  0  0  0  0
  -22.3513  -14.5498   20.6733 O   0  0  0  0  0  0
  -24.6439  -31.8410   23.1839 C   0  0  0  0  0  0
  -25.9197  -32.4685   23.8237 C   0  0  1  0  0  0
  -27.2238  -27.1151   20.1381 C   0  0  0  0  0  0
  -25.5940  -33.8503   24.2155 N   0  0  0  0  0  0
  -23.4503  -30.4559   21.5303 C   0  0  2  0  0  0
  -24.8971  -28.8743   20.1080 C   0  0  0  0  0  0
  -22.7581  -29.4526   22.4859 C   0  0  0  0  0  0
  -18.0320  -28.1380   22.8474 C   0  0  0  0  0  0
  -24.1492  -36.7262   23.2652 C   0  0  0  0  0  0
  -26.0061  -30.6999   21.3901 C   0  0  0  0  0  0
  -26.0732  -29.3101   20.7309 C   0  0  0  0  0  0
  -27.2294  -28.4442   20.7331 C   0  0  0  0  0  0
  -26.0185  -26.7797   19.4812 C   0  0  0  0  0  0
  -24.8831  -27.6223   19.4713 C   0  0  0  0  0  0
  -23.6745  -29.7777   20.1515 C   0  0  0  0  0  0
  -25.4134  -36.3050   24.0317 C   0  0  1  0  0  0
  -20.5925  -28.3722   23.1220 C   0  0  2  0  0  0
  -20.6806  -26.9428   22.5400 C   0  0  0  0  0  0
  -19.5782  -26.6378   21.5211 C   0  0  0  0  0  0
  -18.1962  -26.7921   22.1616 C   0  0  0  0  0  0
  -19.1566  -28.8872   23.2837 C   0  0  0  0  0  0
  -18.9484  -30.1465   23.8878 C   0  0  0  0  0  0
  -17.6479  -30.6587   24.0558 C   0  0  0  0  0  0
  -25.9081  -34.9417   23.5061 C   0  0  0  0  0  0
  -16.5375  -29.9080   23.6327 C   0  0  0  0  0  0
  -16.7303  -28.6484   23.0370 C   0  0  0  0  0  0
  -26.4525  -31.6582   25.0705 C   0  0  0  0  0  0
  -25.3699  -31.3771   26.1389 C   0  0  0  0  0  0
  -27.0414  -30.2975   24.6334 C   0  0  0  0  0  0
  -27.6040  -32.4380   25.7487 C   0  0  0  0  0  0
  -27.5590  -37.1792   24.8465 C   0  0  0  0  0  0
  -21.4272  -29.3045   22.3600 N   0  0  0  0  0  0
  -26.4307  -37.3751   23.9405 N   0  0  0  0  0  0
  -24.7207  -31.0216   22.0892 N   0  0  0  0  0  0
  -23.4193  -28.8105   23.3055 O   0  0  0  0  0  0
  -28.2956  -26.1481   20.2442 O   0  0  0  0  0  0
  -26.5675  -34.8913   22.4650 O   0  0  0  0  0  0
  -23.5553  -32.1321   23.7020 O   0  0  0  0  0  0
  -28.9089  -21.9152   19.9779 C   0  0  0  0  0  0
  -28.7718  -20.5789   20.6406 C   0  0  0  0  0  0
  -28.4050  -23.2295   20.5003 C   0  0  0  0  0  0
  -28.0462  -20.7056   21.8522 C   0  0  0  0  0  0
  -27.7936  -23.0818   21.7674 C   0  0  0  0  0  0
  -27.9043  -19.5437   24.1222 C   0  0  0  0  0  0
  -27.3269  -24.1898   24.0448 C   0  0  0  0  0  0
  -29.0840  -19.0411   20.0413 C   0  0  0  0  0  0
  -28.3412  -24.6823   19.6822 C   0  0  0  0  0  0
  -27.5064  -19.5158   22.6372 C   0  0  0  0  0  0
  -27.1169  -24.2277   22.5208 C   0  0  0  0  0  0
  -29.9609  -17.7426   20.7312 C   0  0  0  0  0  0
  -27.6188  -21.8818   22.3643 N   0  0  0  0  0  0
  -29.6949  -16.1792   20.5177 N   0  0  0  0  0  0
  -31.4754  -12.7935   19.2001 H   0  0  0  0  0  0
  -30.4579  -11.6810   20.0722 H   0  0  0  0  0  0
  -29.8616  -11.6683   17.6387 H   0  0  0  0  0  0
  -29.6218  -13.3971   17.6472 H   0  0  0  0  0  0
  -27.9680  -11.2550   19.0064 H   0  0  0  0  0  0
  -27.4041  -12.3940   17.8153 H   0  0  0  0  0  0
  -27.5835  -14.2351   19.3856 H   0  0  0  0  0  0
  -28.7587  -12.3239   21.4604 H   0  0  0  0  0  0
  -28.3577  -14.0014   21.7456 H   0  0  0  0  0  0
  -25.2774   -9.5691   22.4681 H   0  0  0  0  0  0
  -23.9979   -7.4655   22.7453 H   0  0  0  0  0  0
  -21.0832   -8.8768   19.8910 H   0  0  0  0  0  0
  -22.3701  -10.9643   19.6092 H   0  0  0  0  0  0
  -21.2054   -7.6124   23.9710 H   0  0  0  0  0  0
  -21.1443   -6.0488   25.9058 H   0  0  0  0  0  0
  -22.0613   -2.7593   23.2852 H   0  0  0  0  0  0
  -22.4161  -11.9892   22.4832 H   0  0  0  0  0  0
  -21.1076  -13.1154   22.2612 H   0  0  0  0  0  0
  -24.6174  -15.8190   20.5074 H   0  0  0  0  0  0
  -26.2373  -15.6510   20.0618 H   0  0  0  0  0  0
  -26.7258  -32.5251   23.0954 H   0  0  0  0  0  0
  -25.0047  -33.9611   25.0269 H   0  0  0  0  0  0
  -22.7555  -31.2835   21.3737 H   0  0  0  0  0  0
  -23.3772  -35.9573   23.3299 H   0  0  0  0  0  0
  -24.3573  -36.8916   22.2070 H   0  0  0  0  0  0
  -23.7217  -37.6446   23.6693 H   0  0  0  0  0  0
  -26.1677  -31.4475   20.6134 H   0  0  0  0  0  0
  -26.8746  -30.7485   22.0356 H   0  0  0  0  0  0
  -28.1231  -28.7696   21.2456 H   0  0  0  0  0  0
  -25.9030  -25.8203   19.0006 H   0  0  0  0  0  0
  -23.9831  -27.2806   18.9791 H   0  0  0  0  0  0
  -23.8113  -30.5479   19.3924 H   0  0  0  0  0  0
  -22.7889  -29.2176   19.8457 H   0  0  0  0  0  0
  -25.1323  -36.1910   25.0810 H   0  0  0  0  0  0
  -21.0004  -28.3333   24.1343 H   0  0  0  0  0  0
  -20.5700  -26.2358   23.3629 H   0  0  0  0  0  0
  -21.6674  -26.7447   22.1203 H   0  0  0  0  0  0
  -19.6964  -25.6282   21.1268 H   0  0  0  0  0  0
  -19.6716  -27.3159   20.6714 H   0  0  0  0  0  0
  -17.4239  -26.6659   21.4020 H   0  0  0  0  0  0
  -18.0371  -26.0060   22.9003 H   0  0  0  0  0  0
  -19.7965  -30.7277   24.2240 H   0  0  0  0  0  0
  -17.5044  -31.6264   24.5164 H   0  0  0  0  0  0
  -15.5369  -30.2983   23.7658 H   0  0  0  0  0  0
  -15.8701  -28.0790   22.7113 H   0  0  0  0  0  0
  -24.5859  -30.7163   25.7686 H   0  0  0  0  0  0
  -24.8902  -32.2944   26.4806 H   0  0  0  0  0  0
  -25.7956  -30.8929   27.0180 H   0  0  0  0  0  0
  -26.3010  -29.6637   24.1438 H   0  0  0  0  0  0
  -27.4115  -29.7373   25.4933 H   0  0  0  0  0  0
  -27.8886  -30.4223   23.9586 H   0  0  0  0  0  0
  -27.2611  -33.3688   26.2013 H   0  0  0  0  0  0
  -28.3844  -32.6941   25.0312 H   0  0  0  0  0  0
  -28.0706  -31.8555   26.5436 H   0  0  0  0  0  0
  -28.2607  -38.0092   24.7520 H   0  0  0  0  0  0
  -28.1092  -36.2626   24.6289 H   0  0  0  0  0  0
  -27.2301  -37.1428   25.8864 H   0  0  0  0  0  0
  -20.9510  -29.8745   21.6749 H   0  0  0  0  0  0
  -26.0196  -38.2839   24.1372 H   0  0  0  0  0  0
  -29.3631  -21.9268   18.9981 H   0  0  0  0  0  0
  -27.5415  -18.6542   24.6356 H   0  0  0  0  0  0
  -27.4728  -20.4058   24.6341 H   0  0  0  0  0  0
  -28.9864  -19.5975   24.2405 H   0  0  0  0  0  0
  -26.8676  -23.3096   24.5012 H   0  0  0  0  0  0
  -26.8868  -25.0706   24.5133 H   0  0  0  0  0  0
  -28.3889  -24.1785   24.2885 H   0  0  0  0  0  0
  -29.4784  -19.1893   19.0363 H   0  0  0  0  0  0
  -28.0853  -18.6416   19.8587 H   0  0  0  0  0  0
  -27.5691  -24.5621   18.9272 H   0  0  0  0  0  0
  -29.2554  -24.6766   19.0891 H   0  0  0  0  0  0
  -26.4171  -19.5288   22.5582 H   0  0  0  0  0  0
  -27.8112  -18.5690   22.2018 H   0  0  0  0  0  0
  -26.0499  -24.2311   22.2863 H   0  0  0  0  0  0
  -27.5056  -25.1824   22.1898 H   0  0  0  0  0  0
  -29.8945  -17.8622   21.8117 H   0  0  0  0  0  0
  -31.0186  -17.9145   20.5240 H   0  0  0  0  0  0
  -28.7119  -15.9528   20.5371 H   0  0  0  0  0  0
  1 25  1  0  0  0
  1 30  2  0  0  0
  1 84  1  0  0  0
  2  3  1  0  0  0
  2 25  1  0  0  0
  2 85  1  0  0  0
  2 86  1  0  0  0
  3  4  1  0  0  0
  3 87  1  0  0  0
  3 88  1  0  0  0
  4  5  1  0  0  0
  4 89  1  0  0  0
  4 90  1  0  0  0
  5  6  1  0  0  0
  5 26  1  0  0  0
  5 91  1  0  0  0
  6 25  1  0  0  0
  6 92  1  0  0  0
  6 93  1  0  0  0
  7  8  2  0  0  0
  7 26  1  0  0  0
  7 29  1  0  0  0
  8  9  1  0  0  0
  8 22  1  0  0  0
  9 10  1  0  0  0
  9 27  2  0  0  0
 10 11  2  0  0  0
 10 15  1  0  0  0
 11 12  1  0  0  0
 11 94  1  0  0  0
 12 13  2  0  0  0
 12 95  1  0  0  0
 13 14  1  0  0  0
 13 31  1  0  0  0
 14 15  2  0  0  0
 14 96  1  0  0  0
 15 97  1  0  0  0
 16 17  2  0  0  0
 16 21  1  0  0  0
 16 31  1  0  0  0
 17 18  1  0  0  0
 17 98  1  0  0  0
 18 19  2  0  0  0
 18 99  1  0  0  0
 19 20  1  0  0  0
 19 24  1  0  0  0
 20 21  2  0  0  0
 20100  1  0  0  0
 21 23  1  0  0  0
 22 28  1  0  0  0
 22 32  2  0  0  0
 26 27  1  0  0  0
 28101  1  0  0  0
 28102  1  0  0  0
 29103  1  0  0  0
 29104  1  0  0  0
 33 34  1  0  0  0
 33 66  1  0  0  0
 33 70  2  0  0  0
 34 36  1  0  0  0
 34 59  1  0  0  0
 34105  1  0  0  0
 35 44  2  0  0  0
 35 45  1  0  0  0
 35 68  1  0  0  0
 36 56  1  0  0  0
 36106  1  0  0  0
 37 39  1  0  0  0
 37 47  1  0  0  0
 37 66  1  0  0  0
 37107  1  0  0  0
 38 43  2  0  0  0
 38 46  1  0  0  0
 38 47  1  0  0  0
 39 64  1  0  0  0
 39 67  2  0  0  0
 40 52  1  0  0  0
 40 53  2  0  0  0
 40 58  1  0  0  0
 41108  1  0  0  0
 41109  1  0  0  0
 41110  1  0  0  0
 41 48  1  0  0  0
 42 43  1  0  0  0
 42 66  1  0  0  0
 42111  1  0  0  0
 42112  1  0  0  0
 43 44  1  0  0  0
 44113  1  0  0  0
 45 46  2  0  0  0
 45114  1  0  0  0
 46115  1  0  0  0
 47116  1  0  0  0
 47117  1  0  0  0
 48 56  1  0  0  0
 48 65  1  0  0  0
 48118  1  0  0  0
 49 50  1  0  0  0
 49 53  1  0  0  0
 49 64  1  0  0  0
 49119  1  0  0  0
 50 51  1  0  0  0
 50120  1  0  0  0
 50121  1  0  0  0
 51 52  1  0  0  0
 51122  1  0  0  0
 51123  1  0  0  0
 52124  1  0  0  0
 52125  1  0  0  0
 53 54  1  0  0  0
 54 55  2  0  0  0
 54126  1  0  0  0
 55 57  1  0  0  0
 55127  1  0  0  0
 56 69  2  0  0  0
 57 58  2  0  0  0
 57128  1  0  0  0
 58129  1  0  0  0
 59 60  1  0  0  0
 59 61  1  0  0  0
 59 62  1  0  0  0
 60130  1  0  0  0
 60131  1  0  0  0
 60132  1  0  0  0
 61133  1  0  0  0
 61134  1  0  0  0
 61135  1  0  0  0
 62136  1  0  0  0
 62137  1  0  0  0
 62138  1  0  0  0
 63 65  1  0  0  0
 63139  1  0  0  0
 63140  1  0  0  0
 63141  1  0  0  0
 64142  1  0  0  0
 65143  1  0  0  0
 68 79  1  0  0  0
 71 72  2  0  0  0
 71 73  1  0  0  0
 71144  1  0  0  0
 72 74  1  0  0  0
 72 78  1  0  0  0
 73 75  2  0  0  0
 73 79  1  0  0  0
 74 80  1  0  0  0
 74 83  2  0  0  0
 75 81  1  0  0  0
 75 83  1  0  0  0
 76 80  1  0  0  0
 76145  1  0  0  0
 76146  1  0  0  0
 76147  1  0  0  0
 77 81  1  0  0  0
 77148  1  0  0  0
 77149  1  0  0  0
 77150  1  0  0  0
 78 82  1  0  0  0
 78151  1  0  0  0
 78152  1  0  0  0
 79153  1  0  0  0
 79154  1  0  0  0
 80155  1  0  0  0
 80156  1  0  0  0
 81157  1  0  0  0
 81158  1  0  0  0
 82 84  1  0  0  0
 82159  1  0  0  0
 82160  1  0  0  0
 84161  1  0  0  0
M  ISO  4   1 100  68 101  79 101  84 100
M  END
> <chiral flag>
0

> <version>
0

> <s_m_source_file>
/data/baiqing/PycharmProjects/Reinvent-master-3.2/result/LINK_invent/BTK/process_docking_weight1_custom_sum_contain_oxygen_bond_distance_aromatic_linkinvent_7_9_3/rearranged_h_0075.sdf

> <i_m_source_file_index>
44

> <r_mmod_Potential_Energy-OPLS-2005>
406.818878173828

> <r_mmod_Stretch_Energy-OPLS-2005>
302.533020019531

> <r_mmod_Bend_Energy-OPLS-2005>
295.634704589844

> <r_mmod_Torsional_Energy-OPLS-2005>
218.37890625

> <r_mmod_Improper_Torsional_Energy-OPLS-2005>
7.81074523925781

> <r_mmod_Van_der_Waal_Energy-OPLS-2005>
133.884368896484

> <r_mmod_Electrostatic_Energy-OPLS-2005>
-555.731018066406

> <r_mmod_Solvation_Energy-OPLS-2005>
-218.156509399414

> <b_mmod_Minimization_Converged-OPLS-2005>
0

> <r_mmod_RMS_Derivative-OPLS-2005>
3.96839833259583

$$$$
45
                    3D
 Structure written by MMmdl.
161169  0  0  1  0            999 V2000
  -30.7631  -14.5908   20.4746 C   0  0  0  0  0  0
  -30.3923  -12.3567   19.4728 C   0  0  0  0  0  0
  -29.5132  -12.4885   18.2042 C   0  0  0  0  0  0
  -28.0328  -12.8355   18.5065 C   0  0  0  0  0  0
  -27.7049  -12.7605   19.9990 C   0  0  2  0  0  0
  -28.7306  -13.1866   21.0579 C   0  0  0  0  0  0
  -25.2941  -13.7480   20.5488 C   0  0  0  0  0  0
  -24.1759  -13.0325   20.9071 C   0  0  0  0  0  0
  -24.5706  -11.6649   20.8895 C   0  0  0  0  0  0
  -23.8442  -10.4191   21.0652 C   0  0  0  0  0  0
  -24.3227   -9.4105   21.9316 C   0  0  0  0  0  0
  -23.6070   -8.2062   22.0766 C   0  0  0  0  0  0
  -22.4067   -8.0116   21.3543 C   0  0  0  0  0  0
  -21.9574   -9.0091   20.4712 C   0  0  0  0  0  0
  -22.6762  -10.2028   20.3185 C   0  0  0  0  0  0
  -21.6755   -6.0603   22.5280 C   0  0  0  0  0  0
  -21.3989   -6.5581   23.8196 C   0  0  0  0  0  0
  -21.3642   -5.6777   24.9197 C   0  0  0  0  0  0
  -21.6001   -4.3025   24.7266 C   0  0  0  0  0  0
  -21.8801   -3.8081   23.4417 C   0  0  0  0  0  0
  -21.9139   -4.6843   22.3431 C   0  0  0  0  0  0
  -22.7919  -13.5461   21.1758 C   0  0  0  0  0  0
  -22.1632   -4.2023   21.1011 F   0  0  0  0  0  0
  -21.5591   -3.4531   25.7798 F   0  0  0  0  0  0
  -30.0255  -13.4424   20.4076 N   0  0  0  0  0  0
  -26.2996  -12.7885   20.3779 N   0  0  0  0  0  0
  -25.8359  -11.5531   20.6122 N   0  0  0  0  0  0
  -22.0487  -12.8521   22.0315 N   0  0  0  0  0  0
  -25.5037  -15.1062   20.3550 N   0  0  0  0  0  0
  -31.9459  -14.5441   20.1419 O   0  0  0  0  0  0
  -21.6541   -6.8674   21.4194 O   0  0  0  0  0  0
  -22.3729  -14.5819   20.6626 O   0  0  0  0  0  0
  -24.6143  -31.8667   23.2081 C   0  0  0  0  0  0
  -25.9028  -32.4818   23.8402 C   0  0  1  0  0  0
  -27.2449  -27.4394   20.1095 C   0  0  0  0  0  0
  -25.5884  -33.8613   24.2333 N   0  0  0  0  0  0
  -23.4052  -30.4884   21.5467 C   0  0  2  0  0  0
  -24.8564  -28.9499   20.1193 C   0  0  0  0  0  0
  -22.7419  -29.4668   22.4970 C   0  0  0  0  0  0
  -18.0267  -28.1386   22.8478 C   0  0  0  0  0  0
  -24.1502  -36.7331   23.2640 C   0  0  0  0  0  0
  -25.9318  -30.8370   21.3598 C   0  0  0  0  0  0
  -26.0138  -29.4691   20.7129 C   0  0  0  0  0  0
  -27.2134  -28.7202   20.7040 C   0  0  0  0  0  0
  -26.0741  -26.9331   19.5077 C   0  0  0  0  0  0
  -24.8796  -27.6797   19.5139 C   0  0  0  0  0  0
  -23.6178  -29.8159   20.1635 C   0  0  0  0  0  0
  -25.4116  -36.3115   24.0348 C   0  0  1  0  0  0
  -20.5860  -28.3684   23.1305 C   0  0  2  0  0  0
  -20.6762  -26.9415   22.5411 C   0  0  0  0  0  0
  -19.5746  -26.6389   21.5204 C   0  0  0  0  0  0
  -18.1928  -26.7928   22.1616 C   0  0  0  0  0  0
  -19.1513  -28.8844   23.2895 C   0  0  0  0  0  0
  -18.9441  -30.1438   23.8924 C   0  0  0  0  0  0
  -17.6446  -30.6581   24.0570 C   0  0  0  0  0  0
  -25.9030  -34.9471   23.5141 C   0  0  0  0  0  0
  -16.5341  -29.9091   23.6310 C   0  0  0  0  0  0
  -16.7261  -28.6509   23.0335 C   0  0  0  0  0  0
  -26.4459  -31.6586   25.0715 C   0  0  0  0  0  0
  -25.3740  -31.3670   26.1471 C   0  0  0  0  0  0
  -27.0277  -30.3039   24.6051 C   0  0  0  0  0  0
  -27.6057  -32.4286   25.7466 C   0  0  0  0  0  0
  -27.5594  -37.1818   24.8464 C   0  0  0  0  0  0
  -21.4146  -29.3054   22.3712 N   0  0  0  0  0  0
  -26.4307  -37.3792   23.9405 N   0  0  0  0  0  0
  -24.6681  -31.0773   22.0983 N   0  0  0  0  0  0
  -23.4174  -28.8221   23.3039 O   0  0  0  0  0  0
  -28.4066  -26.7022   20.0831 O   0  0  0  0  0  0
  -26.5587  -34.8921   22.4700 O   0  0  0  0  0  0
  -23.5329  -32.1406   23.7457 O   0  0  0  0  0  0
  -31.9261  -17.3298   19.3591 C   0  0  0  0  0  0
  -32.4815  -18.5718   19.0330 C   0  0  0  0  0  0
  -30.9742  -17.2750   20.3988 C   0  0  0  0  0  0
  -31.1400  -19.5931   20.5636 C   0  0  0  0  0  0
  -28.7892  -16.2487   20.1565 C   0  0  0  0  0  0
  -30.0773  -16.0499   22.4003 C   0  0  0  0  0  0
  -30.6591  -20.8836   21.2245 C   0  0  0  0  0  0
  -29.9102  -21.8532   20.2746 C   0  0  0  0  0  0
  -29.3423  -23.0952   21.0054 C   0  0  0  0  0  0
  -29.0266  -24.3046   20.0889 C   0  0  0  0  0  0
  -28.3824  -25.4864   20.8463 C   0  0  0  0  0  0
  -30.1554  -16.0128   20.8525 C   0  0  0  0  0  0
  -32.0886  -19.7034   19.6432 N   0  0  0  0  0  0
  -30.5815  -18.4533   20.9579 N   0  0  0  0  0  0
  -31.4510  -12.3407   19.2125 H   0  0  0  0  0  0
  -30.2154  -11.3948   19.9579 H   0  0  0  0  0  0
  -29.5610  -11.5609   17.6346 H   0  0  0  0  0  0
  -29.9280  -13.2555   17.5483 H   0  0  0  0  0  0
  -27.3677  -12.1919   17.9291 H   0  0  0  0  0  0
  -27.8261  -13.8529   18.1737 H   0  0  0  0  0  0
  -27.9518  -11.6954   20.0650 H   0  0  0  0  0  0
  -28.8706  -12.3907   21.7925 H   0  0  0  0  0  0
  -28.3435  -13.9968   21.6668 H   0  0  0  0  0  0
  -25.2385   -9.5626   22.4856 H   0  0  0  0  0  0
  -23.9824   -7.4365   22.7364 H   0  0  0  0  0  0
  -21.0536   -8.8569   19.9001 H   0  0  0  0  0  0
  -22.3252  -10.9600   19.6324 H   0  0  0  0  0  0
  -21.2070   -7.6109   23.9658 H   0  0  0  0  0  0
  -21.1496   -6.0572   25.9089 H   0  0  0  0  0  0
  -22.0630   -2.7540   23.3008 H   0  0  0  0  0  0
  -22.4029  -12.0091   22.4592 H   0  0  0  0  0  0
  -21.1160  -13.1624   22.2600 H   0  0  0  0  0  0
  -24.7448  -15.7785   20.3953 H   0  0  0  0  0  0
  -26.3683  -15.4943   20.0036 H   0  0  0  0  0  0
  -26.7107  -32.5544   23.1180 H   0  0  0  0  0  0
  -25.0072  -33.9791   25.0505 H   0  0  0  0  0  0
  -22.6960  -31.3061   21.4009 H   0  0  0  0  0  0
  -23.3750  -35.9678   23.3308 H   0  0  0  0  0  0
  -24.3610  -36.8926   22.2052 H   0  0  0  0  0  0
  -23.7260  -37.6549   23.6639 H   0  0  0  0  0  0
  -26.0365  -31.5992   20.5862 H   0  0  0  0  0  0
  -26.8241  -30.8985   21.9733 H   0  0  0  0  0  0
  -28.1102  -29.1197   21.1577 H   0  0  0  0  0  0
  -26.0945  -25.9641   19.0308 H   0  0  0  0  0  0
  -23.9910  -27.2716   19.0540 H   0  0  0  0  0  0
  -23.7285  -30.5885   19.4020 H   0  0  0  0  0  0
  -22.7458  -29.2333   19.8631 H   0  0  0  0  0  0
  -25.1285  -36.2011   25.0841 H   0  0  0  0  0  0
  -20.9940  -28.3243   24.1429 H   0  0  0  0  0  0
  -20.5653  -26.2294   23.3608 H   0  0  0  0  0  0
  -21.6644  -26.7449   22.1221 H   0  0  0  0  0  0
  -19.6913  -25.6303   21.1232 H   0  0  0  0  0  0
  -19.6688  -27.3204   20.6741 H   0  0  0  0  0  0
  -17.4197  -26.6657   21.4027 H   0  0  0  0  0  0
  -18.0338  -26.0076   22.9018 H   0  0  0  0  0  0
  -19.7923  -30.7232   24.2330 H   0  0  0  0  0  0
  -17.5007  -31.6267   24.5173 H   0  0  0  0  0  0
  -15.5345  -30.3010   23.7609 H   0  0  0  0  0  0
  -15.8665  -28.0839   22.7034 H   0  0  0  0  0  0
  -24.5927  -30.6991   25.7817 H   0  0  0  0  0  0
  -24.8910  -32.2807   26.4943 H   0  0  0  0  0  0
  -25.8106  -30.8836   27.0221 H   0  0  0  0  0  0
  -26.2800  -29.6822   24.1097 H   0  0  0  0  0  0
  -27.4067  -29.7235   25.4477 H   0  0  0  0  0  0
  -27.8637  -30.4383   23.9177 H   0  0  0  0  0  0
  -27.2699  -33.3577   26.2084 H   0  0  0  0  0  0
  -28.3835  -32.6841   25.0257 H   0  0  0  0  0  0
  -28.0762  -31.8374   26.5334 H   0  0  0  0  0  0
  -28.2604  -38.0118   24.7499 H   0  0  0  0  0  0
  -28.1084  -36.2641   24.6295 H   0  0  0  0  0  0
  -27.2308  -37.1485   25.8865 H   0  0  0  0  0  0
  -20.9301  -29.8797   21.6967 H   0  0  0  0  0  0
  -26.0206  -38.2884   24.1369 H   0  0  0  0  0  0
  -32.2504  -16.4607   18.8071 H   0  0  0  0  0  0
  -33.2415  -18.6625   18.2702 H   0  0  0  0  0  0
  -28.3855  -17.2305   20.4044 H   0  0  0  0  0  0
  -28.0124  -15.5530   20.4180 H   0  0  0  0  0  0
  -28.9005  -16.2182   19.0721 H   0  0  0  0  0  0
  -29.5125  -16.9087   22.7595 H   0  0  0  0  0  0
  -31.0810  -16.1194   22.8235 H   0  0  0  0  0  0
  -29.6147  -15.1724   22.8435 H   0  0  0  0  0  0
  -31.5221  -21.3869   21.6617 H   0  0  0  0  0  0
  -30.0095  -20.6169   22.0593 H   0  0  0  0  0  0
  -29.1005  -21.3195   19.7750 H   0  0  0  0  0  0
  -30.5993  -22.1729   19.4922 H   0  0  0  0  0  0
  -30.0634  -23.4172   21.7583 H   0  0  0  0  0  0
  -28.4452  -22.8004   21.5542 H   0  0  0  0  0  0
  -28.3726  -24.0010   19.2714 H   0  0  0  0  0  0
  -29.9527  -24.6494   19.6267 H   0  0  0  0  0  0
  -28.9426  -25.6710   21.7625 H   0  0  0  0  0  0
  -27.3751  -25.2100   21.1638 H   0  0  0  0  0  0
  1 25  1  0  0  0
  1 30  2  0  0  0
  1 82  1  0  0  0
  2  3  1  0  0  0
  2 25  1  0  0  0
  2 85  1  0  0  0
  2 86  1  0  0  0
  3  4  1  0  0  0
  3 87  1  0  0  0
  3 88  1  0  0  0
  4  5  1  0  0  0
  4 89  1  0  0  0
  4 90  1  0  0  0
  5  6  1  0  0  0
  5 26  1  0  0  0
  5 91  1  0  0  0
  6 25  1  0  0  0
  6 92  1  0  0  0
  6 93  1  0  0  0
  7  8  2  0  0  0
  7 26  1  0  0  0
  7 29  1  0  0  0
  8  9  1  0  0  0
  8 22  1  0  0  0
  9 10  1  0  0  0
  9 27  2  0  0  0
 10 11  2  0  0  0
 10 15  1  0  0  0
 11 12  1  0  0  0
 11 94  1  0  0  0
 12 13  2  0  0  0
 12 95  1  0  0  0
 13 14  1  0  0  0
 13 31  1  0  0  0
 14 15  2  0  0  0
 14 96  1  0  0  0
 15 97  1  0  0  0
 16 17  2  0  0  0
 16 21  1  0  0  0
 16 31  1  0  0  0
 17 18  1  0  0  0
 17 98  1  0  0  0
 18 19  2  0  0  0
 18 99  1  0  0  0
 19 20  1  0  0  0
 19 24  1  0  0  0
 20 21  2  0  0  0
 20100  1  0  0  0
 21 23  1  0  0  0
 22 28  1  0  0  0
 22 32  2  0  0  0
 26 27  1  0  0  0
 28101  1  0  0  0
 28102  1  0  0  0
 29103  1  0  0  0
 29104  1  0  0  0
 33 34  1  0  0  0
 33 66  1  0  0  0
 33 70  2  0  0  0
 34 36  1  0  0  0
 34 59  1  0  0  0
 34105  1  0  0  0
 35 44  2  0  0  0
 35 45  1  0  0  0
 35 68  1  0  0  0
 36 56  1  0  0  0
 36106  1  0  0  0
 37 39  1  0  0  0
 37 47  1  0  0  0
 37 66  1  0  0  0
 37107  1  0  0  0
 38 43  2  0  0  0
 38 46  1  0  0  0
 38 47  1  0  0  0
 39 64  1  0  0  0
 39 67  2  0  0  0
 40 52  1  0  0  0
 40 53  2  0  0  0
 40 58  1  0  0  0
 41108  1  0  0  0
 41109  1  0  0  0
 41110  1  0  0  0
 41 48  1  0  0  0
 42 43  1  0  0  0
 42 66  1  0  0  0
 42111  1  0  0  0
 42112  1  0  0  0
 43 44  1  0  0  0
 44113  1  0  0  0
 45 46  2  0  0  0
 45114  1  0  0  0
 46115  1  0  0  0
 47116  1  0  0  0
 47117  1  0  0  0
 48 56  1  0  0  0
 48 65  1  0  0  0
 48118  1  0  0  0
 49 50  1  0  0  0
 49 53  1  0  0  0
 49 64  1  0  0  0
 49119  1  0  0  0
 50 51  1  0  0  0
 50120  1  0  0  0
 50121  1  0  0  0
 51 52  1  0  0  0
 51122  1  0  0  0
 51123  1  0  0  0
 52124  1  0  0  0
 52125  1  0  0  0
 53 54  1  0  0  0
 54 55  2  0  0  0
 54126  1  0  0  0
 55 57  1  0  0  0
 55127  1  0  0  0
 56 69  2  0  0  0
 57 58  2  0  0  0
 57128  1  0  0  0
 58129  1  0  0  0
 59 60  1  0  0  0
 59 61  1  0  0  0
 59 62  1  0  0  0
 60130  1  0  0  0
 60131  1  0  0  0
 60132  1  0  0  0
 61133  1  0  0  0
 61134  1  0  0  0
 61135  1  0  0  0
 62136  1  0  0  0
 62137  1  0  0  0
 62138  1  0  0  0
 63 65  1  0  0  0
 63139  1  0  0  0
 63140  1  0  0  0
 63141  1  0  0  0
 64142  1  0  0  0
 65143  1  0  0  0
 68 81  1  0  0  0
 71 72  2  0  0  0
 71 73  1  0  0  0
 71144  1  0  0  0
 72 83  1  0  0  0
 72145  1  0  0  0
 73 82  1  0  0  0
 73 84  2  0  0  0
 74 77  1  0  0  0
 74 83  2  0  0  0
 74 84  1  0  0  0
 75146  1  0  0  0
 75147  1  0  0  0
 75148  1  0  0  0
 75 82  1  0  0  0
 76 82  1  0  0  0
 76149  1  0  0  0
 76150  1  0  0  0
 76151  1  0  0  0
 77 78  1  0  0  0
 77152  1  0  0  0
 77153  1  0  0  0
 78 79  1  0  0  0
 78154  1  0  0  0
 78155  1  0  0  0
 79 80  1  0  0  0
 79156  1  0  0  0
 79157  1  0  0  0
 80 81  1  0  0  0
 80158  1  0  0  0
 80159  1  0  0  0
 81160  1  0  0  0
 81161  1  0  0  0
M  ISO  4   1 100  68 101  81 101  82 100
M  END
> <chiral flag>
0

> <version>
0

> <s_m_source_file>
/data/baiqing/PycharmProjects/Reinvent-master-3.2/result/LINK_invent/BTK/process_docking_weight1_custom_sum_contain_oxygen_bond_distance_aromatic_linkinvent_7_9_3/rearranged_h_0075.sdf

> <i_m_source_file_index>
45

> <r_mmod_Potential_Energy-OPLS-2005>
-126.480644226074

> <r_mmod_Stretch_Energy-OPLS-2005>
47.5293846130371

> <r_mmod_Bend_Energy-OPLS-2005>
180.086898803711

> <r_mmod_Torsional_Energy-OPLS-2005>
226.735473632812

> <r_mmod_Improper_Torsional_Energy-OPLS-2005>
2.77792072296143

> <r_mmod_Van_der_Waal_Energy-OPLS-2005>
189.313995361328

> <r_mmod_Electrostatic_Energy-OPLS-2005>
-660.5634765625

> <r_mmod_Solvation_Energy-OPLS-2005>
-199.234405517578

> <b_mmod_Minimization_Converged-OPLS-2005>
0

> <r_mmod_RMS_Derivative-OPLS-2005>
3.94827032089233

$$$$
46
                    3D
 Structure written by MMmdl.
157165  0  0  1  0            999 V2000
  -30.5264  -14.9981   20.4206 C   0  0  0  0  0  0
  -30.4482  -12.6231   19.4890 C   0  0  0  0  0  0
  -29.5191  -12.5497   18.2531 C   0  0  0  0  0  0
  -28.0564  -12.3039   18.6742 C   0  0  0  0  0  0
  -27.6299  -13.2241   19.8440 C   0  0  2  0  0  0
  -28.6877  -13.2403   20.9733 C   0  0  0  0  0  0
  -25.2393  -13.8088   20.5643 C   0  0  0  0  0  0
  -24.1732  -13.0347   20.9215 C   0  0  0  0  0  0
  -24.6363  -11.6843   20.8791 C   0  0  0  0  0  0
  -23.9051  -10.4241   21.0437 C   0  0  0  0  0  0
  -24.3602   -9.4156   21.9205 C   0  0  0  0  0  0
  -23.6275   -8.2193   22.0757 C   0  0  0  0  0  0
  -22.4254   -8.0253   21.3546 C   0  0  0  0  0  0
  -21.9904   -9.0231   20.4643 C   0  0  0  0  0  0
  -22.7238  -10.2102   20.3066 C   0  0  0  0  0  0
  -21.6834   -6.0726   22.5283 C   0  0  0  0  0  0
  -21.4012   -6.5637   23.8218 C   0  0  0  0  0  0
  -21.3658   -5.6789   24.9179 C   0  0  0  0  0  0
  -21.6043   -4.3052   24.7232 C   0  0  0  0  0  0
  -21.8822   -3.8142   23.4355 C   0  0  0  0  0  0
  -21.9186   -4.6956   22.3411 C   0  0  0  0  0  0
  -22.7756  -13.5139   21.1869 C   0  0  0  0  0  0
  -22.1656   -4.2139   21.0991 F   0  0  0  0  0  0
  -21.5623   -3.4549   25.7751 F   0  0  0  0  0  0
  -29.9496  -13.7154   20.3818 N   0  0  0  0  0  0
  -26.2871  -12.9317   20.3296 N   0  0  0  0  0  0
  -25.9303  -11.6473   20.5824 N   0  0  0  0  0  0
  -22.0415  -12.8142   22.0437 N   0  0  0  0  0  0
  -25.3852  -15.1800   20.3925 N   0  0  0  0  0  0
  -31.7203  -15.0244   20.1010 O   0  0  0  0  0  0
  -21.6606   -6.8864   21.4244 O   0  0  0  0  0  0
  -22.3432  -14.5457   20.6725 O   0  0  0  0  0  0
  -24.6446  -31.8411   23.1871 C   0  0  0  0  0  0
  -25.9213  -32.4677   23.8264 C   0  0  1  0  0  0
  -27.2342  -27.1360   20.1438 C   0  0  0  0  0  0
  -25.5956  -33.8485   24.2179 N   0  0  0  0  0  0
  -23.4495  -30.4590   21.5313 C   0  0  2  0  0  0
  -24.9013  -28.8798   20.1124 C   0  0  0  0  0  0
  -22.7569  -29.4534   22.4849 C   0  0  0  0  0  0
  -18.0301  -28.1405   22.8467 C   0  0  0  0  0  0
  -24.1489  -36.7254   23.2643 C   0  0  0  0  0  0
  -26.0053  -30.7134   21.3857 C   0  0  0  0  0  0
  -26.0786  -29.3237   20.7280 C   0  0  0  0  0  0
  -27.2439  -28.4681   20.7252 C   0  0  0  0  0  0
  -26.0267  -26.7873   19.4988 C   0  0  0  0  0  0
  -24.8881  -27.6241   19.4840 C   0  0  0  0  0  0
  -23.6773  -29.7828   20.1524 C   0  0  0  0  0  0
  -25.4120  -36.3015   24.0308 C   0  0  1  0  0  0
  -20.5915  -28.3729   23.1229 C   0  0  2  0  0  0
  -20.6787  -26.9430   22.5408 C   0  0  0  0  0  0
  -19.5765  -26.6379   21.5214 C   0  0  0  0  0  0
  -18.1943  -26.7944   22.1618 C   0  0  0  0  0  0
  -19.1561  -28.8885   23.2836 C   0  0  0  0  0  0
  -18.9477  -30.1478   23.8867 C   0  0  0  0  0  0
  -17.6475  -30.6596   24.0557 C   0  0  0  0  0  0
  -25.9073  -34.9394   23.5052 C   0  0  0  0  0  0
  -16.5365  -29.9092   23.6338 C   0  0  0  0  0  0
  -16.7285  -28.6515   23.0347 C   0  0  0  0  0  0
  -26.4542  -31.6555   25.0712 C   0  0  0  0  0  0
  -25.3731  -31.3753   26.1407 C   0  0  0  0  0  0
  -27.0416  -30.2944   24.6320 C   0  0  0  0  0  0
  -27.6049  -32.4339   25.7513 C   0  0  0  0  0  0
  -27.5571  -37.1779   24.8461 C   0  0  0  0  0  0
  -21.4260  -29.3045   22.3593 N   0  0  0  0  0  0
  -26.4277  -37.3732   23.9411 N   0  0  0  0  0  0
  -24.7197  -31.0262   22.0902 N   0  0  0  0  0  0
  -23.4202  -28.8085   23.3009 O   0  0  0  0  0  0
  -28.3085  -26.1722   20.2027 O   0  0  0  0  0  0
  -26.5661  -34.8894   22.4632 O   0  0  0  0  0  0
  -23.5558  -32.1300   23.7068 O   0  0  0  0  0  0
  -30.0664  -20.7837   20.4099 C   0  0  0  0  0  0
  -28.0230  -21.0978   19.9142 C   0  0  0  0  0  0
  -29.5547  -19.4630   20.1997 C   0  0  0  0  0  0
  -30.4225  -17.7340   18.5201 C   0  0  0  0  0  0
  -28.2801  -16.4616   20.5737 C   0  0  0  0  0  0
  -30.0572  -16.7009   22.2724 C   0  0  0  0  0  0
  -29.2466  -23.4364   20.3478 C   0  0  0  0  0  0
  -28.0973  -24.6329   20.0411 C   0  0  0  0  0  0
  -30.2640  -17.9640   20.0338 C   0  0  2  0  0  0
  -29.8024  -16.4974   20.7658 C   0  0  0  0  0  0
  -28.2188  -19.7547   19.8582 N   0  0  0  0  0  0
  -29.0925  -21.8573   20.2251 N   0  0  0  0  0  0
  -31.4760  -12.7889   19.1639 H   0  0  0  0  0  0
  -30.4639  -11.6674   20.0173 H   0  0  0  0  0  0
  -29.8503  -11.7678   17.5685 H   0  0  0  0  0  0
  -29.5839  -13.4881   17.6992 H   0  0  0  0  0  0
  -27.9632  -11.2608   18.9761 H   0  0  0  0  0  0
  -27.3872  -12.4363   17.8225 H   0  0  0  0  0  0
  -27.5820  -14.2084   19.3935 H   0  0  0  0  0  0
  -28.8044  -12.2390   21.3899 H   0  0  0  0  0  0
  -28.3943  -13.8518   21.8238 H   0  0  0  0  0  0
  -25.2742   -9.5627   22.4787 H   0  0  0  0  0  0
  -23.9984   -7.4581   22.7468 H   0  0  0  0  0  0
  -21.0840   -8.8757   19.8939 H   0  0  0  0  0  0
  -22.3711  -10.9654   19.6177 H   0  0  0  0  0  0
  -21.2015   -7.6146   23.9730 H   0  0  0  0  0  0
  -21.1469   -6.0511   25.9079 H   0  0  0  0  0  0
  -22.0606   -2.7602   23.2861 H   0  0  0  0  0  0
  -22.4041  -11.9817   22.4837 H   0  0  0  0  0  0
  -21.1045  -13.1178   22.2665 H   0  0  0  0  0  0
  -24.6121  -15.8254   20.5140 H   0  0  0  0  0  0
  -26.2429  -15.6373   20.1131 H   0  0  0  0  0  0
  -26.7279  -32.5278   23.0990 H   0  0  0  0  0  0
  -25.0081  -33.9606   25.0310 H   0  0  0  0  0  0
  -22.7516  -31.2838   21.3732 H   0  0  0  0  0  0
  -23.3745  -35.9590   23.3288 H   0  0  0  0  0  0
  -24.3572  -36.8917   22.2062 H   0  0  0  0  0  0
  -23.7257  -37.6445   23.6706 H   0  0  0  0  0  0
  -26.1612  -31.4652   20.6100 H   0  0  0  0  0  0
  -26.8754  -30.7649   22.0295 H   0  0  0  0  0  0
  -28.1427  -28.8058   21.2227 H   0  0  0  0  0  0
  -25.9352  -25.8265   19.0135 H   0  0  0  0  0  0
  -23.9884  -27.2774   18.9930 H   0  0  0  0  0  0
  -23.8158  -30.5555   19.3950 H   0  0  0  0  0  0
  -22.7924  -29.2244   19.8413 H   0  0  0  0  0  0
  -25.1309  -36.1835   25.0798 H   0  0  0  0  0  0
  -21.0000  -28.3336   24.1352 H   0  0  0  0  0  0
  -20.5685  -26.2348   23.3632 H   0  0  0  0  0  0
  -21.6653  -26.7436   22.1209 H   0  0  0  0  0  0
  -19.6929  -25.6276   21.1274 H   0  0  0  0  0  0
  -19.6714  -27.3160   20.6724 H   0  0  0  0  0  0
  -17.4214  -26.6676   21.4017 H   0  0  0  0  0  0
  -18.0339  -26.0094   22.9024 H   0  0  0  0  0  0
  -19.7951  -30.7295   24.2229 H   0  0  0  0  0  0
  -17.5030  -31.6275   24.5163 H   0  0  0  0  0  0
  -15.5363  -30.2985   23.7685 H   0  0  0  0  0  0
  -15.8684  -28.0829   22.7076 H   0  0  0  0  0  0
  -24.5879  -30.7144   25.7732 H   0  0  0  0  0  0
  -24.8958  -32.2939   26.4820 H   0  0  0  0  0  0
  -25.8000  -30.8920   27.0201 H   0  0  0  0  0  0
  -26.3046  -29.6652   24.1318 H   0  0  0  0  0  0
  -27.4008  -29.7264   25.4913 H   0  0  0  0  0  0
  -27.8961  -30.4173   23.9662 H   0  0  0  0  0  0
  -27.2614  -33.3645   26.2048 H   0  0  0  0  0  0
  -28.3888  -32.6903   25.0376 H   0  0  0  0  0  0
  -28.0694  -31.8507   26.5476 H   0  0  0  0  0  0
  -28.2562  -38.0098   24.7495 H   0  0  0  0  0  0
  -28.1086  -36.2619   24.6287 H   0  0  0  0  0  0
  -27.2285  -37.1427   25.8862 H   0  0  0  0  0  0
  -20.9482  -29.8755   21.6762 H   0  0  0  0  0  0
  -26.0133  -38.2795   24.1416 H   0  0  0  0  0  0
  -31.0897  -21.0509   20.6420 H   0  0  0  0  0  0
  -27.0623  -21.5439   19.6981 H   0  0  0  0  0  0
  -30.8963  -18.5939   18.0482 H   0  0  0  0  0  0
  -29.4566  -17.5863   18.0368 H   0  0  0  0  0  0
  -31.0441  -16.8679   18.2970 H   0  0  0  0  0  0
  -27.8185  -17.4018   20.8668 H   0  0  0  0  0  0
  -27.7981  -15.7273   21.2052 H   0  0  0  0  0  0
  -28.0169  -16.3002   19.5298 H   0  0  0  0  0  0
  -29.6853  -15.8608   22.8605 H   0  0  0  0  0  0
  -29.5670  -17.6023   22.6452 H   0  0  0  0  0  0
  -31.1234  -16.7983   22.4794 H   0  0  0  0  0  0
  -29.5962  -23.6100   21.3652 H   0  0  0  0  0  0
  -30.1059  -23.6860   19.7250 H   0  0  0  0  0  0
  -27.2244  -24.3855   20.6464 H   0  0  0  0  0  0
  -27.7790  -24.4850   19.0094 H   0  0  0  0  0  0
  -31.2878  -18.1017   20.3851 H   0  0  0  0  0  0
  1 25  1  0  0  0
  1 30  2  0  0  0
  1 80  1  0  0  0
  2  3  1  0  0  0
  2 25  1  0  0  0
  2 83  1  0  0  0
  2 84  1  0  0  0
  3  4  1  0  0  0
  3 85  1  0  0  0
  3 86  1  0  0  0
  4  5  1  0  0  0
  4 87  1  0  0  0
  4 88  1  0  0  0
  5  6  1  0  0  0
  5 26  1  0  0  0
  5 89  1  0  0  0
  6 25  1  0  0  0
  6 90  1  0  0  0
  6 91  1  0  0  0
  7  8  2  0  0  0
  7 26  1  0  0  0
  7 29  1  0  0  0
  8  9  1  0  0  0
  8 22  1  0  0  0
  9 10  1  0  0  0
  9 27  2  0  0  0
 10 11  2  0  0  0
 10 15  1  0  0  0
 11 12  1  0  0  0
 11 92  1  0  0  0
 12 13  2  0  0  0
 12 93  1  0  0  0
 13 14  1  0  0  0
 13 31  1  0  0  0
 14 15  2  0  0  0
 14 94  1  0  0  0
 15 95  1  0  0  0
 16 17  2  0  0  0
 16 21  1  0  0  0
 16 31  1  0  0  0
 17 18  1  0  0  0
 17 96  1  0  0  0
 18 19  2  0  0  0
 18 97  1  0  0  0
 19 20  1  0  0  0
 19 24  1  0  0  0
 20 21  2  0  0  0
 20 98  1  0  0  0
 21 23  1  0  0  0
 22 28  1  0  0  0
 22 32  2  0  0  0
 26 27  1  0  0  0
 28 99  1  0  0  0
 28100  1  0  0  0
 29101  1  0  0  0
 29102  1  0  0  0
 33 34  1  0  0  0
 33 66  1  0  0  0
 33 70  2  0  0  0
 34 36  1  0  0  0
 34 59  1  0  0  0
 34103  1  0  0  0
 35 44  2  0  0  0
 35 45  1  0  0  0
 35 68  1  0  0  0
 36 56  1  0  0  0
 36104  1  0  0  0
 37 39  1  0  0  0
 37 47  1  0  0  0
 37 66  1  0  0  0
 37105  1  0  0  0
 38 43  2  0  0  0
 38 46  1  0  0  0
 38 47  1  0  0  0
 39 64  1  0  0  0
 39 67  2  0  0  0
 40 52  1  0  0  0
 40 53  2  0  0  0
 40 58  1  0  0  0
 41106  1  0  0  0
 41107  1  0  0  0
 41108  1  0  0  0
 41 48  1  0  0  0
 42 43  1  0  0  0
 42 66  1  0  0  0
 42109  1  0  0  0
 42110  1  0  0  0
 43 44  1  0  0  0
 44111  1  0  0  0
 45 46  2  0  0  0
 45112  1  0  0  0
 46113  1  0  0  0
 47114  1  0  0  0
 47115  1  0  0  0
 48 56  1  0  0  0
 48 65  1  0  0  0
 48116  1  0  0  0
 49 50  1  0  0  0
 49 53  1  0  0  0
 49 64  1  0  0  0
 49117  1  0  0  0
 50 51  1  0  0  0
 50118  1  0  0  0
 50119  1  0  0  0
 51 52  1  0  0  0
 51120  1  0  0  0
 51121  1  0  0  0
 52122  1  0  0  0
 52123  1  0  0  0
 53 54  1  0  0  0
 54 55  2  0  0  0
 54124  1  0  0  0
 55 57  1  0  0  0
 55125  1  0  0  0
 56 69  2  0  0  0
 57 58  2  0  0  0
 57126  1  0  0  0
 58127  1  0  0  0
 59 60  1  0  0  0
 59 61  1  0  0  0
 59 62  1  0  0  0
 60128  1  0  0  0
 60129  1  0  0  0
 60130  1  0  0  0
 61131  1  0  0  0
 61132  1  0  0  0
 61133  1  0  0  0
 62134  1  0  0  0
 62135  1  0  0  0
 62136  1  0  0  0
 63 65  1  0  0  0
 63137  1  0  0  0
 63138  1  0  0  0
 63139  1  0  0  0
 64140  1  0  0  0
 65141  1  0  0  0
 68 78  1  0  0  0
 71 73  2  0  0  0
 71 82  1  0  0  0
 71142  1  0  0  0
 72 81  2  0  0  0
 72 82  1  0  0  0
 72143  1  0  0  0
 73 79  1  0  0  0
 73 81  1  0  0  0
 74144  1  0  0  0
 74145  1  0  0  0
 74146  1  0  0  0
 74 79  1  0  0  0
 75147  1  0  0  0
 75148  1  0  0  0
 75149  1  0  0  0
 75 80  1  0  0  0
 76 80  1  0  0  0
 76150  1  0  0  0
 76151  1  0  0  0
 76152  1  0  0  0
 77 78  1  0  0  0
 77 82  1  0  0  0
 77153  1  0  0  0
 77154  1  0  0  0
 78155  1  0  0  0
 78156  1  0  0  0
 79 80  1  0  0  0
 79157  1  0  0  0
M  ISO  4   1 100  68 101  78 101  80 100
M  END
> <chiral flag>
0

> <version>
0

> <s_m_source_file>
/data/baiqing/PycharmProjects/Reinvent-master-3.2/result/LINK_invent/BTK/process_docking_weight1_custom_sum_contain_oxygen_bond_distance_aromatic_linkinvent_7_9_3/rearranged_h_0075.sdf

> <i_m_source_file_index>
46

> <r_mmod_Potential_Energy-OPLS-2005>
570.721740722656

> <r_mmod_Stretch_Energy-OPLS-2005>
289.84130859375

> <r_mmod_Bend_Energy-OPLS-2005>
288.852996826172

> <r_mmod_Torsional_Energy-OPLS-2005>
193.544876098633

> <r_mmod_Improper_Torsional_Energy-OPLS-2005>
3.09582090377808

> <r_mmod_Van_der_Waal_Energy-OPLS-2005>
117.293182373047

> <r_mmod_Electrostatic_Energy-OPLS-2005>
-322.928131103516

> <r_mmod_Solvation_Energy-OPLS-2005>
-199.26985168457

> <b_mmod_Minimization_Converged-OPLS-2005>
0

> <r_mmod_RMS_Derivative-OPLS-2005>
1.54197752475739

$$$$
47
                    3D
 Structure written by MMmdl.
165173  0  0  1  0            999 V2000
  -30.7577  -14.4371   20.6360 C   0  0  0  0  0  0
  -30.4183  -12.3057   19.4299 C   0  0  0  0  0  0
  -29.4985  -12.5169   18.2113 C   0  0  0  0  0  0
  -28.0203  -12.3682   18.6187 C   0  0  0  0  0  0
  -27.6639  -13.2091   19.8734 C   0  0  2  0  0  0
  -28.6996  -12.9930   20.9985 C   0  0  0  0  0  0
  -25.2602  -13.8172   20.5685 C   0  0  0  0  0  0
  -24.1850  -13.0450   20.9180 C   0  0  0  0  0  0
  -24.6397  -11.6912   20.8718 C   0  0  0  0  0  0
  -23.9061  -10.4296   21.0384 C   0  0  0  0  0  0
  -24.3615   -9.4217   21.9166 C   0  0  0  0  0  0
  -23.6304   -8.2239   22.0734 C   0  0  0  0  0  0
  -22.4284   -8.0270   21.3531 C   0  0  0  0  0  0
  -21.9914   -9.0241   20.4640 C   0  0  0  0  0  0
  -22.7225  -10.2126   20.3041 C   0  0  0  0  0  0
  -21.6855   -6.0731   22.5275 C   0  0  0  0  0  0
  -21.4009   -6.5637   23.8212 C   0  0  0  0  0  0
  -21.3662   -5.6789   24.9178 C   0  0  0  0  0  0
  -21.6049   -4.3051   24.7227 C   0  0  0  0  0  0
  -21.8819   -3.8141   23.4346 C   0  0  0  0  0  0
  -21.9194   -4.6959   22.3405 C   0  0  0  0  0  0
  -22.7881  -13.5253   21.1844 C   0  0  0  0  0  0
  -22.1672   -4.2144   21.0986 F   0  0  0  0  0  0
  -21.5629   -3.4541   25.7739 F   0  0  0  0  0  0
  -30.0423  -13.2872   20.4635 N   0  0  0  0  0  0
  -26.3033  -12.9340   20.3337 N   0  0  0  0  0  0
  -25.9315  -11.6498   20.5727 N   0  0  0  0  0  0
  -22.0526  -12.8246   22.0411 N   0  0  0  0  0  0
  -25.4339  -15.1893   20.4122 N   0  0  0  0  0  0
  -31.8093  -14.6508   20.0226 O   0  0  0  0  0  0
  -21.6644   -6.8871   21.4230 O   0  0  0  0  0  0
  -22.3565  -14.5545   20.6669 O   0  0  0  0  0  0
  -24.6140  -31.8686   23.2099 C   0  0  0  0  0  0
  -25.9031  -32.4829   23.8400 C   0  0  1  0  0  0
  -27.2385  -27.4386   20.0952 C   0  0  0  0  0  0
  -25.5883  -33.8629   24.2329 N   0  0  0  0  0  0
  -23.4034  -30.4905   21.5503 C   0  0  2  0  0  0
  -24.8524  -28.9553   20.1173 C   0  0  0  0  0  0
  -22.7408  -29.4657   22.4994 C   0  0  0  0  0  0
  -18.0272  -28.1383   22.8493 C   0  0  0  0  0  0
  -24.1484  -36.7323   23.2641 C   0  0  0  0  0  0
  -25.9325  -30.8348   21.3635 C   0  0  0  0  0  0
  -26.0129  -29.4697   20.7102 C   0  0  0  0  0  0
  -27.2125  -28.7199   20.6935 C   0  0  0  0  0  0
  -26.0628  -26.9401   19.4944 C   0  0  0  0  0  0
  -24.8712  -27.6891   19.5080 C   0  0  0  0  0  0
  -23.6132  -29.8210   20.1659 C   0  0  0  0  0  0
  -25.4104  -36.3118   24.0342 C   0  0  1  0  0  0
  -20.5860  -28.3666   23.1322 C   0  0  2  0  0  0
  -20.6760  -26.9405   22.5422 C   0  0  0  0  0  0
  -19.5746  -26.6386   21.5220 C   0  0  0  0  0  0
  -18.1923  -26.7930   22.1620 C   0  0  0  0  0  0
  -19.1520  -28.8841   23.2904 C   0  0  0  0  0  0
  -18.9448  -30.1448   23.8913 C   0  0  0  0  0  0
  -17.6455  -30.6592   24.0567 C   0  0  0  0  0  0
  -25.9033  -34.9485   23.5137 C   0  0  0  0  0  0
  -16.5344  -29.9096   23.6327 C   0  0  0  0  0  0
  -16.7262  -28.6512   23.0348 C   0  0  0  0  0  0
  -26.4461  -31.6607   25.0733 C   0  0  0  0  0  0
  -25.3736  -31.3720   26.1495 C   0  0  0  0  0  0
  -27.0286  -30.3044   24.6107 C   0  0  0  0  0  0
  -27.6044  -32.4326   25.7482 C   0  0  0  0  0  0
  -27.5586  -37.1812   24.8461 C   0  0  0  0  0  0
  -21.4134  -29.3034   22.3725 N   0  0  0  0  0  0
  -26.4288  -37.3803   23.9416 N   0  0  0  0  0  0
  -24.6683  -31.0780   22.1004 N   0  0  0  0  0  0
  -23.4183  -28.8210   23.3043 O   0  0  0  0  0  0
  -28.3868  -26.6773   20.0943 O   0  0  0  0  0  0
  -26.5595  -34.8932   22.4696 O   0  0  0  0  0  0
  -23.5331  -32.1432   23.7490 O   0  0  0  0  0  0
  -28.4064  -21.2028   20.2403 C   0  0  0  0  0  0
  -30.8329  -20.1369   21.1430 C   0  0  0  0  0  0
  -28.4471  -19.8765   20.7323 C   0  0  0  0  0  0
  -29.5642  -22.0094   20.1985 C   0  0  0  0  0  0
  -29.6718  -19.3328   21.2047 C   0  0  0  0  0  0
  -30.7876  -21.4589   20.6488 C   0  0  0  0  0  0
  -26.3933  -19.2607   22.0826 C   0  0  0  0  0  0
  -30.1933  -15.2640   22.8434 C   0  0  0  0  0  0
  -27.1507  -19.0808   20.7605 C   0  0  0  0  0  0
  -29.4710  -23.4434   19.6599 C   0  0  0  0  0  0
  -29.7656  -17.9352   21.8335 C   0  0  0  0  0  0
  -29.5056  -24.5392   20.7567 C   0  0  0  0  0  0
  -30.1982  -16.8130   20.8519 C   0  0  0  0  0  0
  -28.2593  -25.4519   20.8327 C   0  0  0  0  0  0
  -30.1900  -15.4211   21.3820 N   0  0  0  0  0  0
  -32.2441  -22.3886   20.6178 Cl  0  0  0  0  0  0
  -31.4660  -12.3852   19.1328 H   0  0  0  0  0  0
  -30.3042  -11.2933   19.8213 H   0  0  0  0  0  0
  -29.7457  -11.8013   17.4248 H   0  0  0  0  0  0
  -29.6678  -13.5094   17.7909 H   0  0  0  0  0  0
  -27.8353  -11.3116   18.8155 H   0  0  0  0  0  0
  -27.3689  -12.6393   17.7875 H   0  0  0  0  0  0
  -27.7104  -14.2578   19.5772 H   0  0  0  0  0  0
  -28.6695  -11.9600   21.3490 H   0  0  0  0  0  0
  -28.4327  -13.5993   21.8624 H   0  0  0  0  0  0
  -25.2764   -9.5702   22.4736 H   0  0  0  0  0  0
  -24.0024   -7.4633   22.7444 H   0  0  0  0  0  0
  -21.0845   -8.8735   19.8958 H   0  0  0  0  0  0
  -22.3667  -10.9646   19.6145 H   0  0  0  0  0  0
  -21.1993   -7.6138   23.9723 H   0  0  0  0  0  0
  -21.1493   -6.0516   25.9085 H   0  0  0  0  0  0
  -22.0599   -2.7599   23.2849 H   0  0  0  0  0  0
  -22.4151  -11.9925   22.4834 H   0  0  0  0  0  0
  -21.1118  -13.1218   22.2565 H   0  0  0  0  0  0
  -24.6725  -15.8483   20.5312 H   0  0  0  0  0  0
  -26.2985  -15.6256   20.1181 H   0  0  0  0  0  0
  -26.7106  -32.5547   23.1173 H   0  0  0  0  0  0
  -25.0022  -33.9789   25.0461 H   0  0  0  0  0  0
  -22.6926  -31.3076   21.4094 H   0  0  0  0  0  0
  -23.3750  -35.9653   23.3300 H   0  0  0  0  0  0
  -24.3585  -36.8935   22.2057 H   0  0  0  0  0  0
  -23.7229  -37.6526   23.6651 H   0  0  0  0  0  0
  -26.0432  -31.6013   20.5953 H   0  0  0  0  0  0
  -26.8205  -30.8880   21.9813 H   0  0  0  0  0  0
  -28.1089  -29.1097   21.1553 H   0  0  0  0  0  0
  -26.0654  -25.9703   19.0163 H   0  0  0  0  0  0
  -23.9789  -27.2857   19.0496 H   0  0  0  0  0  0
  -23.7235  -30.5951   19.4056 H   0  0  0  0  0  0
  -22.7378  -29.2402   19.8689 H   0  0  0  0  0  0
  -25.1279  -36.1985   25.0836 H   0  0  0  0  0  0
  -20.9957  -28.3237   24.1444 H   0  0  0  0  0  0
  -20.5676  -26.2279   23.3610 H   0  0  0  0  0  0
  -21.6631  -26.7461   22.1216 H   0  0  0  0  0  0
  -19.6912  -25.6305   21.1239 H   0  0  0  0  0  0
  -19.6692  -27.3198   20.6756 H   0  0  0  0  0  0
  -17.4203  -26.6690   21.4014 H   0  0  0  0  0  0
  -18.0313  -26.0064   22.9007 H   0  0  0  0  0  0
  -19.7930  -30.7248   24.2290 H   0  0  0  0  0  0
  -17.5020  -31.6273   24.5169 H   0  0  0  0  0  0
  -15.5349  -30.3009   23.7644 H   0  0  0  0  0  0
  -15.8658  -28.0840   22.7051 H   0  0  0  0  0  0
  -24.5882  -30.7095   25.7836 H   0  0  0  0  0  0
  -24.8965  -32.2887   26.4977 H   0  0  0  0  0  0
  -25.8100  -30.8864   27.0233 H   0  0  0  0  0  0
  -26.2829  -29.6819   24.1152 H   0  0  0  0  0  0
  -27.4034  -29.7266   25.4565 H   0  0  0  0  0  0
  -27.8672  -30.4352   23.9264 H   0  0  0  0  0  0
  -27.2656  -33.3590   26.2124 H   0  0  0  0  0  0
  -28.3814  -32.6947   25.0292 H   0  0  0  0  0  0
  -28.0766  -31.8426   26.5347 H   0  0  0  0  0  0
  -28.2601  -38.0112   24.7519 H   0  0  0  0  0  0
  -28.1081  -36.2650   24.6262 H   0  0  0  0  0  0
  -27.2315  -37.1430   25.8864 H   0  0  0  0  0  0
  -20.9300  -29.8758   21.6941 H   0  0  0  0  0  0
  -26.0187  -38.2877   24.1432 H   0  0  0  0  0  0
  -27.4662  -21.6099   19.8960 H   0  0  0  0  0  0
  -31.7757  -19.7441   21.4967 H   0  0  0  0  0  0
  -25.4710  -18.6798   22.0847 H   0  0  0  0  0  0
  -26.1292  -20.3061   22.2410 H   0  0  0  0  0  0
  -26.9913  -18.9396   22.9353 H   0  0  0  0  0  0
  -29.2671  -15.6327   23.2816 H   0  0  0  0  0  0
  -31.0313  -15.8037   23.2868 H   0  0  0  0  0  0
  -30.2961  -14.2216   23.1533 H   0  0  0  0  0  0
  -27.3479  -18.0255   20.5729 H   0  0  0  0  0  0
  -26.5120  -19.4033   19.9363 H   0  0  0  0  0  0
  -28.5712  -23.5397   19.0512 H   0  0  0  0  0  0
  -30.2962  -23.6023   18.9641 H   0  0  0  0  0  0
  -28.8170  -17.6807   22.3040 H   0  0  0  0  0  0
  -30.4827  -17.9995   22.6522 H   0  0  0  0  0  0
  -30.4047  -25.1463   20.6498 H   0  0  0  0  0  0
  -29.6169  -24.0488   21.7248 H   0  0  0  0  0  0
  -31.1927  -17.0619   20.4756 H   0  0  0  0  0  0
  -29.5367  -16.8327   19.9850 H   0  0  0  0  0  0
  -28.1017  -25.7286   21.8764 H   0  0  0  0  0  0
  -27.3761  -24.8826   20.5427 H   0  0  0  0  0  0
  1 25  1  0  0  0
  1 30  2  0  0  0
  1 85  1  0  0  0
  2  3  1  0  0  0
  2 25  1  0  0  0
  2 87  1  0  0  0
  2 88  1  0  0  0
  3  4  1  0  0  0
  3 89  1  0  0  0
  3 90  1  0  0  0
  4  5  1  0  0  0
  4 91  1  0  0  0
  4 92  1  0  0  0
  5  6  1  0  0  0
  5 26  1  0  0  0
  5 93  1  0  0  0
  6 25  1  0  0  0
  6 94  1  0  0  0
  6 95  1  0  0  0
  7  8  2  0  0  0
  7 26  1  0  0  0
  7 29  1  0  0  0
  8  9  1  0  0  0
  8 22  1  0  0  0
  9 10  1  0  0  0
  9 27  2  0  0  0
 10 11  2  0  0  0
 10 15  1  0  0  0
 11 12  1  0  0  0
 11 96  1  0  0  0
 12 13  2  0  0  0
 12 97  1  0  0  0
 13 14  1  0  0  0
 13 31  1  0  0  0
 14 15  2  0  0  0
 14 98  1  0  0  0
 15 99  1  0  0  0
 16 17  2  0  0  0
 16 21  1  0  0  0
 16 31  1  0  0  0
 17 18  1  0  0  0
 17100  1  0  0  0
 18 19  2  0  0  0
 18101  1  0  0  0
 19 20  1  0  0  0
 19 24  1  0  0  0
 20 21  2  0  0  0
 20102  1  0  0  0
 21 23  1  0  0  0
 22 28  1  0  0  0
 22 32  2  0  0  0
 26 27  1  0  0  0
 28103  1  0  0  0
 28104  1  0  0  0
 29105  1  0  0  0
 29106  1  0  0  0
 33 34  1  0  0  0
 33 66  1  0  0  0
 33 70  2  0  0  0
 34 36  1  0  0  0
 34 59  1  0  0  0
 34107  1  0  0  0
 35 44  2  0  0  0
 35 45  1  0  0  0
 35 68  1  0  0  0
 36 56  1  0  0  0
 36108  1  0  0  0
 37 39  1  0  0  0
 37 47  1  0  0  0
 37 66  1  0  0  0
 37109  1  0  0  0
 38 43  2  0  0  0
 38 46  1  0  0  0
 38 47  1  0  0  0
 39 64  1  0  0  0
 39 67  2  0  0  0
 40 52  1  0  0  0
 40 53  2  0  0  0
 40 58  1  0  0  0
 41110  1  0  0  0
 41111  1  0  0  0
 41112  1  0  0  0
 41 48  1  0  0  0
 42 43  1  0  0  0
 42 66  1  0  0  0
 42113  1  0  0  0
 42114  1  0  0  0
 43 44  1  0  0  0
 44115  1  0  0  0
 45 46  2  0  0  0
 45116  1  0  0  0
 46117  1  0  0  0
 47118  1  0  0  0
 47119  1  0  0  0
 48 56  1  0  0  0
 48 65  1  0  0  0
 48120  1  0  0  0
 49 50  1  0  0  0
 49 53  1  0  0  0
 49 64  1  0  0  0
 49121  1  0  0  0
 50 51  1  0  0  0
 50122  1  0  0  0
 50123  1  0  0  0
 51 52  1  0  0  0
 51124  1  0  0  0
 51125  1  0  0  0
 52126  1  0  0  0
 52127  1  0  0  0
 53 54  1  0  0  0
 54 55  2  0  0  0
 54128  1  0  0  0
 55 57  1  0  0  0
 55129  1  0  0  0
 56 69  2  0  0  0
 57 58  2  0  0  0
 57130  1  0  0  0
 58131  1  0  0  0
 59 60  1  0  0  0
 59 61  1  0  0  0
 59 62  1  0  0  0
 60132  1  0  0  0
 60133  1  0  0  0
 60134  1  0  0  0
 61135  1  0  0  0
 61136  1  0  0  0
 61137  1  0  0  0
 62138  1  0  0  0
 62139  1  0  0  0
 62140  1  0  0  0
 63 65  1  0  0  0
 63141  1  0  0  0
 63142  1  0  0  0
 63143  1  0  0  0
 64144  1  0  0  0
 65145  1  0  0  0
 68 84  1  0  0  0
 71 73  2  0  0  0
 71 74  1  0  0  0
 71146  1  0  0  0
 72 75  2  0  0  0
 72 76  1  0  0  0
 72147  1  0  0  0
 73 75  1  0  0  0
 73 79  1  0  0  0
 74 76  2  0  0  0
 74 80  1  0  0  0
 75 81  1  0  0  0
 76 86  1  0  0  0
 77 79  1  0  0  0
 77148  1  0  0  0
 77149  1  0  0  0
 77150  1  0  0  0
 78 85  1  0  0  0
 78151  1  0  0  0
 78152  1  0  0  0
 78153  1  0  0  0
 79154  1  0  0  0
 79155  1  0  0  0
 80 82  1  0  0  0
 80156  1  0  0  0
 80157  1  0  0  0
 81 83  1  0  0  0
 81158  1  0  0  0
 81159  1  0  0  0
 82 84  1  0  0  0
 82160  1  0  0  0
 82161  1  0  0  0
 83 85  1  0  0  0
 83162  1  0  0  0
 83163  1  0  0  0
 84164  1  0  0  0
 84165  1  0  0  0
M  ISO  4   1 100  68 101  84 101  85 100
M  END
> <chiral flag>
0

> <version>
0

> <s_m_source_file>
/data/baiqing/PycharmProjects/Reinvent-master-3.2/result/LINK_invent/BTK/process_docking_weight1_custom_sum_contain_oxygen_bond_distance_aromatic_linkinvent_7_9_3/rearranged_h_0075.sdf

> <i_m_source_file_index>
47

> <r_mmod_Potential_Energy-OPLS-2005>
124.06209564209

> <r_mmod_Stretch_Energy-OPLS-2005>
41.6604766845703

> <r_mmod_Bend_Energy-OPLS-2005>
96.2866058349609

> <r_mmod_Torsional_Energy-OPLS-2005>
314.565856933594

> <r_mmod_Improper_Torsional_Energy-OPLS-2005>
5.43063974380493

> <r_mmod_Van_der_Waal_Energy-OPLS-2005>
151.679656982422

> <r_mmod_Electrostatic_Energy-OPLS-2005>
-310.45361328125

> <r_mmod_Solvation_Energy-OPLS-2005>
-185.442886352539

> <b_mmod_Minimization_Converged-OPLS-2005>
0

> <r_mmod_RMS_Derivative-OPLS-2005>
1.77502238750458

$$$$
48
                    3D
 Structure written by MMmdl.
161169  0  0  1  0            999 V2000
  -30.6692  -14.5497   20.4964 C   0  0  0  0  0  0
  -30.4344  -12.3336   19.4514 C   0  0  0  0  0  0
  -29.5109  -12.5019   18.2261 C   0  0  0  0  0  0
  -28.0282  -12.3683   18.6250 C   0  0  0  0  0  0
  -27.6636  -13.2080   19.8804 C   0  0  2  0  0  0
  -28.7112  -13.0300   21.0062 C   0  0  0  0  0  0
  -25.2616  -13.8143   20.5698 C   0  0  0  0  0  0
  -24.1869  -13.0428   20.9177 C   0  0  0  0  0  0
  -24.6440  -11.6893   20.8752 C   0  0  0  0  0  0
  -23.9102  -10.4272   21.0407 C   0  0  0  0  0  0
  -24.3654   -9.4179   21.9184 C   0  0  0  0  0  0
  -23.6307   -8.2233   22.0765 C   0  0  0  0  0  0
  -22.4281   -8.0290   21.3557 C   0  0  0  0  0  0
  -21.9926   -9.0267   20.4653 C   0  0  0  0  0  0
  -22.7278  -10.2130   20.3050 C   0  0  0  0  0  0
  -21.6854   -6.0738   22.5271 C   0  0  0  0  0  0
  -21.4022   -6.5648   23.8204 C   0  0  0  0  0  0
  -21.3647   -5.6800   24.9164 C   0  0  0  0  0  0
  -21.6032   -4.3059   24.7217 C   0  0  0  0  0  0
  -21.8830   -3.8153   23.4335 C   0  0  0  0  0  0
  -21.9203   -4.6969   22.3394 C   0  0  0  0  0  0
  -22.7885  -13.5238   21.1783 C   0  0  0  0  0  0
  -22.1661   -4.2156   21.0971 F   0  0  0  0  0  0
  -21.5612   -3.4551   25.7725 F   0  0  0  0  0  0
  -30.0383  -13.3419   20.4502 N   0  0  0  0  0  0
  -26.3063  -12.9312   20.3405 N   0  0  0  0  0  0
  -25.9373  -11.6475   20.5815 N   0  0  0  0  0  0
  -22.0502  -12.8260   22.0342 N   0  0  0  0  0  0
  -25.4331  -15.1857   20.4093 N   0  0  0  0  0  0
  -31.8125  -14.7120   20.0613 O   0  0  0  0  0  0
  -21.6646   -6.8882   21.4233 O   0  0  0  0  0  0
  -22.3575  -14.5525   20.6590 O   0  0  0  0  0  0
  -24.6191  -31.8637   23.2068 C   0  0  0  0  0  0
  -25.9068  -32.4799   23.8381 C   0  0  1  0  0  0
  -27.2363  -27.4058   20.1052 C   0  0  0  0  0  0
  -25.5918  -33.8602   24.2317 N   0  0  0  0  0  0
  -23.4090  -30.4851   21.5478 C   0  0  2  0  0  0
  -24.8568  -28.9440   20.1172 C   0  0  0  0  0  0
  -22.7422  -29.4647   22.4986 C   0  0  0  0  0  0
  -18.0273  -28.1370   22.8488 C   0  0  0  0  0  0
  -24.1481  -36.7301   23.2643 C   0  0  0  0  0  0
  -25.9406  -30.8230   21.3615 C   0  0  0  0  0  0
  -26.0195  -29.4550   20.7076 C   0  0  0  0  0  0
  -27.2171  -28.6981   20.6879 C   0  0  0  0  0  0
  -26.0576  -26.9122   19.5085 C   0  0  0  0  0  0
  -24.8737  -27.6747   19.5115 C   0  0  0  0  0  0
  -23.6174  -29.8099   20.1651 C   0  0  0  0  0  0
  -25.4106  -36.3097   24.0327 C   0  0  1  0  0  0
  -20.5867  -28.3668   23.1298 C   0  0  2  0  0  0
  -20.6760  -26.9396   22.5416 C   0  0  0  0  0  0
  -19.5744  -26.6376   21.5210 C   0  0  0  0  0  0
  -18.1922  -26.7926   22.1607 C   0  0  0  0  0  0
  -19.1526  -28.8839   23.2889 C   0  0  0  0  0  0
  -18.9444  -30.1447   23.8898 C   0  0  0  0  0  0
  -17.6447  -30.6580   24.0552 C   0  0  0  0  0  0
  -25.9039  -34.9457   23.5113 C   0  0  0  0  0  0
  -16.5346  -29.9071   23.6336 C   0  0  0  0  0  0
  -16.7257  -28.6489   23.0361 C   0  0  0  0  0  0
  -26.4487  -31.6605   25.0734 C   0  0  0  0  0  0
  -25.3752  -31.3710   26.1485 C   0  0  0  0  0  0
  -27.0331  -30.3047   24.6153 C   0  0  0  0  0  0
  -27.6048  -32.4355   25.7487 C   0  0  0  0  0  0
  -27.5580  -37.1803   24.8464 C   0  0  0  0  0  0
  -21.4156  -29.3025   22.3703 N   0  0  0  0  0  0
  -26.4296  -37.3782   23.9404 N   0  0  0  0  0  0
  -24.6743  -31.0717   22.0965 N   0  0  0  0  0  0
  -23.4184  -28.8204   23.3048 O   0  0  0  0  0  0
  -28.3870  -26.6398   20.0895 O   0  0  0  0  0  0
  -26.5589  -34.8908   22.4680 O   0  0  0  0  0  0
  -23.5369  -32.1386   23.7465 O   0  0  0  0  0  0
  -29.8802  -20.4608   22.2916 C   0  0  0  0  0  0
  -30.2142  -19.2216   22.8530 C   0  0  0  0  0  0
  -29.5791  -20.4885   20.9232 C   0  0  0  0  0  0
  -29.8835  -18.1844   20.8448 C   0  0  0  0  0  0
  -32.2301  -19.4259   24.3479 C   0  0  0  0  0  0
  -28.6601  -16.8495   19.0635 C   0  0  0  0  0  0
  -30.7228  -19.1454   24.2785 C   0  0  0  0  0  0
  -28.7858  -24.1289   20.0298 C   0  0  0  0  0  0
  -28.3369  -25.3943   20.8258 C   0  0  0  0  0  0
  -29.0613  -22.8751   20.9237 C   0  0  0  0  0  0
  -29.8837  -16.8859   20.0037 C   0  0  2  0  0  0
  -30.1975  -18.0837   22.1334 N   0  0  0  0  0  0
  -29.6094  -19.3382   20.2129 N   0  0  0  0  0  0
  -29.8788  -15.6083   20.7661 N   0  0  0  0  0  0
  -29.2687  -21.6402   20.2014 O   0  0  0  0  0  0
  -31.4793  -12.4341   19.1504 H   0  0  0  0  0  0
  -30.3431  -11.3290   19.8696 H   0  0  0  0  0  0
  -29.7589  -11.7600   17.4654 H   0  0  0  0  0  0
  -29.6846  -13.4782   17.7716 H   0  0  0  0  0  0
  -27.8246  -11.3136   18.8091 H   0  0  0  0  0  0
  -27.3917  -12.6550   17.7867 H   0  0  0  0  0  0
  -27.6870  -14.2485   19.5727 H   0  0  0  0  0  0
  -28.7022  -12.0015   21.3729 H   0  0  0  0  0  0
  -28.4762  -13.6580   21.8665 H   0  0  0  0  0  0
  -25.2794   -9.5649   22.4775 H   0  0  0  0  0  0
  -23.9995   -7.4625   22.7511 H   0  0  0  0  0  0
  -21.0837   -8.8801   19.8976 H   0  0  0  0  0  0
  -22.3736  -10.9683   19.6169 H   0  0  0  0  0  0
  -21.2015   -7.6156   23.9713 H   0  0  0  0  0  0
  -21.1448   -6.0521   25.9062 H   0  0  0  0  0  0
  -22.0619   -2.7620   23.2845 H   0  0  0  0  0  0
  -22.4111  -11.9959   22.4804 H   0  0  0  0  0  0
  -21.1105  -13.1291   22.2463 H   0  0  0  0  0  0
  -24.6679  -15.8432   20.5199 H   0  0  0  0  0  0
  -26.2724  -15.6143   20.0452 H   0  0  0  0  0  0
  -26.7152  -32.5487   23.1144 H   0  0  0  0  0  0
  -25.0094  -33.9764   25.0487 H   0  0  0  0  0  0
  -22.7007  -31.3037   21.4033 H   0  0  0  0  0  0
  -23.3737  -35.9642   23.3316 H   0  0  0  0  0  0
  -24.3576  -36.8920   22.2057 H   0  0  0  0  0  0
  -23.7238  -37.6509   23.6657 H   0  0  0  0  0  0
  -26.0628  -31.5918   20.5971 H   0  0  0  0  0  0
  -26.8244  -30.8710   21.9858 H   0  0  0  0  0  0
  -28.1202  -29.0962   21.1318 H   0  0  0  0  0  0
  -26.0561  -25.9369   19.0409 H   0  0  0  0  0  0
  -23.9795  -27.2770   19.0511 H   0  0  0  0  0  0
  -23.7191  -30.5785   19.3988 H   0  0  0  0  0  0
  -22.7421  -29.2241   19.8756 H   0  0  0  0  0  0
  -25.1291  -36.1951   25.0819 H   0  0  0  0  0  0
  -20.9959  -28.3226   24.1414 H   0  0  0  0  0  0
  -20.5652  -26.2268   23.3600 H   0  0  0  0  0  0
  -21.6626  -26.7425   22.1201 H   0  0  0  0  0  0
  -19.6900  -25.6285   21.1233 H   0  0  0  0  0  0
  -19.6693  -27.3186   20.6737 H   0  0  0  0  0  0
  -17.4193  -26.6692   21.4000 H   0  0  0  0  0  0
  -18.0313  -26.0057   22.8987 H   0  0  0  0  0  0
  -19.7920  -30.7269   24.2266 H   0  0  0  0  0  0
  -17.4992  -31.6265   24.5143 H   0  0  0  0  0  0
  -15.5338  -30.2960   23.7673 H   0  0  0  0  0  0
  -15.8653  -28.0795   22.7092 H   0  0  0  0  0  0
  -24.5920  -30.7064   25.7830 H   0  0  0  0  0  0
  -24.8946  -32.2850   26.4972 H   0  0  0  0  0  0
  -25.8107  -30.8856   27.0228 H   0  0  0  0  0  0
  -26.2882  -29.6789   24.1223 H   0  0  0  0  0  0
  -27.4102  -29.7320   25.4642 H   0  0  0  0  0  0
  -27.8717  -30.4371   23.9314 H   0  0  0  0  0  0
  -27.2654  -33.3643   26.2087 H   0  0  0  0  0  0
  -28.3822  -32.6957   25.0290 H   0  0  0  0  0  0
  -28.0757  -31.8486   26.5383 H   0  0  0  0  0  0
  -28.2597  -38.0102   24.7503 H   0  0  0  0  0  0
  -28.1074  -36.2629   24.6287 H   0  0  0  0  0  0
  -27.2290  -37.1438   25.8867 H   0  0  0  0  0  0
  -20.9347  -29.8693   21.6860 H   0  0  0  0  0  0
  -26.0175  -38.2864   24.1405 H   0  0  0  0  0  0
  -29.9046  -21.3515   22.9029 H   0  0  0  0  0  0
  -32.5681  -19.4820   25.3830 H   0  0  0  0  0  0
  -32.4694  -20.3760   23.8700 H   0  0  0  0  0  0
  -32.7952  -18.6420   23.8433 H   0  0  0  0  0  0
  -28.6546  -17.6989   18.3815 H   0  0  0  0  0  0
  -27.7285  -16.8831   19.6295 H   0  0  0  0  0  0
  -28.6573  -15.9539   18.4423 H   0  0  0  0  0  0
  -30.5064  -18.1651   24.7026 H   0  0  0  0  0  0
  -30.1830  -19.8721   24.8863 H   0  0  0  0  0  0
  -29.6917  -24.3675   19.4722 H   0  0  0  0  0  0
  -28.0216  -23.8930   19.2901 H   0  0  0  0  0  0
  -29.0018  -25.5221   21.6796 H   0  0  0  0  0  0
  -27.3513  -25.2163   21.2584 H   0  0  0  0  0  0
  -28.2260  -22.7326   21.6100 H   0  0  0  0  0  0
  -29.9405  -23.0904   21.5321 H   0  0  0  0  0  0
  -30.7794  -16.9331   19.3820 H   0  0  0  0  0  0
  -29.0374  -15.4305   21.2897 H   0  0  0  0  0  0
  1 25  1  0  0  0
  1 30  2  0  0  0
  1 84  1  0  0  0
  2  3  1  0  0  0
  2 25  1  0  0  0
  2 86  1  0  0  0
  2 87  1  0  0  0
  3  4  1  0  0  0
  3 88  1  0  0  0
  3 89  1  0  0  0
  4  5  1  0  0  0
  4 90  1  0  0  0
  4 91  1  0  0  0
  5  6  1  0  0  0
  5 26  1  0  0  0
  5 92  1  0  0  0
  6 25  1  0  0  0
  6 93  1  0  0  0
  6 94  1  0  0  0
  7  8  2  0  0  0
  7 26  1  0  0  0
  7 29  1  0  0  0
  8  9  1  0  0  0
  8 22  1  0  0  0
  9 10  1  0  0  0
  9 27  2  0  0  0
 10 11  2  0  0  0
 10 15  1  0  0  0
 11 12  1  0  0  0
 11 95  1  0  0  0
 12 13  2  0  0  0
 12 96  1  0  0  0
 13 14  1  0  0  0
 13 31  1  0  0  0
 14 15  2  0  0  0
 14 97  1  0  0  0
 15 98  1  0  0  0
 16 17  2  0  0  0
 16 21  1  0  0  0
 16 31  1  0  0  0
 17 18  1  0  0  0
 17 99  1  0  0  0
 18 19  2  0  0  0
 18100  1  0  0  0
 19 20  1  0  0  0
 19 24  1  0  0  0
 20 21  2  0  0  0
 20101  1  0  0  0
 21 23  1  0  0  0
 22 28  1  0  0  0
 22 32  2  0  0  0
 26 27  1  0  0  0
 28102  1  0  0  0
 28103  1  0  0  0
 29104  1  0  0  0
 29105  1  0  0  0
 33 34  1  0  0  0
 33 66  1  0  0  0
 33 70  2  0  0  0
 34 36  1  0  0  0
 34 59  1  0  0  0
 34106  1  0  0  0
 35 44  2  0  0  0
 35 45  1  0  0  0
 35 68  1  0  0  0
 36 56  1  0  0  0
 36107  1  0  0  0
 37 39  1  0  0  0
 37 47  1  0  0  0
 37 66  1  0  0  0
 37108  1  0  0  0
 38 43  2  0  0  0
 38 46  1  0  0  0
 38 47  1  0  0  0
 39 64  1  0  0  0
 39 67  2  0  0  0
 40 52  1  0  0  0
 40 53  2  0  0  0
 40 58  1  0  0  0
 41109  1  0  0  0
 41110  1  0  0  0
 41111  1  0  0  0
 41 48  1  0  0  0
 42 43  1  0  0  0
 42 66  1  0  0  0
 42112  1  0  0  0
 42113  1  0  0  0
 43 44  1  0  0  0
 44114  1  0  0  0
 45 46  2  0  0  0
 45115  1  0  0  0
 46116  1  0  0  0
 47117  1  0  0  0
 47118  1  0  0  0
 48 56  1  0  0  0
 48 65  1  0  0  0
 48119  1  0  0  0
 49 50  1  0  0  0
 49 53  1  0  0  0
 49 64  1  0  0  0
 49120  1  0  0  0
 50 51  1  0  0  0
 50121  1  0  0  0
 50122  1  0  0  0
 51 52  1  0  0  0
 51123  1  0  0  0
 51124  1  0  0  0
 52125  1  0  0  0
 52126  1  0  0  0
 53 54  1  0  0  0
 54 55  2  0  0  0
 54127  1  0  0  0
 55 57  1  0  0  0
 55128  1  0  0  0
 56 69  2  0  0  0
 57 58  2  0  0  0
 57129  1  0  0  0
 58130  1  0  0  0
 59 60  1  0  0  0
 59 61  1  0  0  0
 59 62  1  0  0  0
 60131  1  0  0  0
 60132  1  0  0  0
 60133  1  0  0  0
 61134  1  0  0  0
 61135  1  0  0  0
 61136  1  0  0  0
 62137  1  0  0  0
 62138  1  0  0  0
 62139  1  0  0  0
 63 65  1  0  0  0
 63140  1  0  0  0
 63141  1  0  0  0
 63142  1  0  0  0
 64143  1  0  0  0
 65144  1  0  0  0
 68 79  1  0  0  0
 71 72  2  0  0  0
 71 73  1  0  0  0
 71145  1  0  0  0
 72 77  1  0  0  0
 72 82  1  0  0  0
 73 83  2  0  0  0
 73 85  1  0  0  0
 74 81  1  0  0  0
 74 82  2  0  0  0
 74 83  1  0  0  0
 75 77  1  0  0  0
 75146  1  0  0  0
 75147  1  0  0  0
 75148  1  0  0  0
 76149  1  0  0  0
 76150  1  0  0  0
 76151  1  0  0  0
 76 81  1  0  0  0
 77152  1  0  0  0
 77153  1  0  0  0
 78 79  1  0  0  0
 78 80  1  0  0  0
 78154  1  0  0  0
 78155  1  0  0  0
 79156  1  0  0  0
 79157  1  0  0  0
 80 85  1  0  0  0
 80158  1  0  0  0
 80159  1  0  0  0
 81 84  1  0  0  0
 81160  1  0  0  0
 84161  1  0  0  0
M  ISO  4   1 100  68 101  79 101  84 100
M  END
> <chiral flag>
0

> <version>
0

> <s_m_source_file>
/data/baiqing/PycharmProjects/Reinvent-master-3.2/result/LINK_invent/BTK/process_docking_weight1_custom_sum_contain_oxygen_bond_distance_aromatic_linkinvent_7_9_3/rearranged_h_0075.sdf

> <i_m_source_file_index>
48

> <r_mmod_Potential_Energy-OPLS-2005>
-661.957092285156

> <r_mmod_Stretch_Energy-OPLS-2005>
45.348518371582

> <r_mmod_Bend_Energy-OPLS-2005>
106.322868347168

> <r_mmod_Torsional_Energy-OPLS-2005>
231.091232299805

> <r_mmod_Improper_Torsional_Energy-OPLS-2005>
8.92064380645752

> <r_mmod_Van_der_Waal_Energy-OPLS-2005>
156.175659179688

> <r_mmod_Electrostatic_Energy-OPLS-2005>
-1002.67956542969

> <r_mmod_Solvation_Energy-OPLS-2005>
-228.668884277344

> <b_mmod_Minimization_Converged-OPLS-2005>
0

> <r_mmod_RMS_Derivative-OPLS-2005>
3.10356140136719

$$$$
49
                    3D
 Structure written by MMmdl.
166174  0  0  1  0            999 V2000
  -30.5901  -14.6973   20.5091 C   0  0  0  0  0  0
  -30.4567  -12.4258   19.4889 C   0  0  0  0  0  0
  -29.5357  -12.5175   18.2505 C   0  0  0  0  0  0
  -28.0511  -12.3714   18.6407 C   0  0  0  0  0  0
  -27.6644  -13.2340   19.8725 C   0  0  2  0  0  0
  -28.7002  -13.0872   21.0112 C   0  0  0  0  0  0
  -25.2598  -13.8227   20.5656 C   0  0  0  0  0  0
  -24.1876  -13.0429   20.9164 C   0  0  0  0  0  0
  -24.6534  -11.6934   20.8762 C   0  0  0  0  0  0
  -23.9240  -10.4281   21.0482 C   0  0  0  0  0  0
  -24.3746   -9.4162   21.9248 C   0  0  0  0  0  0
  -23.6343   -8.2250   22.0818 C   0  0  0  0  0  0
  -22.4324   -8.0342   21.3589 C   0  0  0  0  0  0
  -22.0024   -9.0358   20.4705 C   0  0  0  0  0  0
  -22.7444  -10.2181   20.3099 C   0  0  0  0  0  0
  -21.6857   -6.0797   22.5299 C   0  0  0  0  0  0
  -21.4027   -6.5684   23.8249 C   0  0  0  0  0  0
  -21.3644   -5.6822   24.9208 C   0  0  0  0  0  0
  -21.6000   -4.3085   24.7235 C   0  0  0  0  0  0
  -21.8830   -3.8194   23.4360 C   0  0  0  0  0  0
  -21.9200   -4.7017   22.3424 C   0  0  0  0  0  0
  -22.7894  -13.5197   21.1821 C   0  0  0  0  0  0
  -22.1662   -4.2202   21.0993 F   0  0  0  0  0  0
  -21.5622   -3.4554   25.7735 F   0  0  0  0  0  0
  -30.0174  -13.4474   20.4669 N   0  0  0  0  0  0
  -26.3060  -12.9459   20.3312 N   0  0  0  0  0  0
  -25.9453  -11.6591   20.5767 N   0  0  0  0  0  0
  -22.0531  -12.8158   22.0362 N   0  0  0  0  0  0
  -25.4214  -15.1951   20.4084 N   0  0  0  0  0  0
  -31.7044  -14.8980   20.0159 O   0  0  0  0  0  0
  -21.6650   -6.8966   21.4271 O   0  0  0  0  0  0
  -22.3569  -14.5512   20.6703 O   0  0  0  0  0  0
  -24.6337  -31.8566   23.2016 C   0  0  0  0  0  0
  -25.9147  -32.4784   23.8343 C   0  0  1  0  0  0
  -27.2133  -27.2744   20.1116 C   0  0  0  0  0  0
  -25.5983  -33.8570   24.2301 N   0  0  0  0  0  0
  -23.4275  -30.4854   21.5445 C   0  0  2  0  0  0
  -24.8731  -28.9358   20.1074 C   0  0  0  0  0  0
  -22.7460  -29.4629   22.4886 C   0  0  0  0  0  0
  -18.0300  -28.1368   22.8496 C   0  0  0  0  0  0
  -24.1512  -36.7254   23.2645 C   0  0  0  0  0  0
  -25.9740  -30.7788   21.3740 C   0  0  0  0  0  0
  -26.0477  -29.4020   20.7138 C   0  0  0  0  0  0
  -27.2208  -28.5802   20.7057 C   0  0  0  0  0  0
  -26.0156  -26.8833   19.4690 C   0  0  0  0  0  0
  -24.8599  -27.6841   19.4776 C   0  0  0  0  0  0
  -23.6439  -29.8210   20.1595 C   0  0  0  0  0  0
  -25.4141  -36.3073   24.0330 C   0  0  1  0  0  0
  -20.5909  -28.3688   23.1293 C   0  0  2  0  0  0
  -20.6787  -26.9411   22.5412 C   0  0  0  0  0  0
  -19.5766  -26.6380   21.5202 C   0  0  0  0  0  0
  -18.1943  -26.7928   22.1603 C   0  0  0  0  0  0
  -19.1551  -28.8833   23.2909 C   0  0  0  0  0  0
  -18.9456  -30.1437   23.8926 C   0  0  0  0  0  0
  -17.6456  -30.6592   24.0537 C   0  0  0  0  0  0
  -25.9064  -34.9435   23.5105 C   0  0  0  0  0  0
  -16.5355  -29.9082   23.6318 C   0  0  0  0  0  0
  -16.7281  -28.6486   23.0370 C   0  0  0  0  0  0
  -26.4513  -31.6614   25.0714 C   0  0  0  0  0  0
  -25.3749  -31.3663   26.1433 C   0  0  0  0  0  0
  -27.0369  -30.3087   24.6116 C   0  0  0  0  0  0
  -27.6123  -32.4281   25.7462 C   0  0  0  0  0  0
  -27.5587  -37.1796   24.8451 C   0  0  0  0  0  0
  -21.4173  -29.3038   22.3609 N   0  0  0  0  0  0
  -26.4291  -37.3786   23.9417 N   0  0  0  0  0  0
  -24.6984  -31.0553   22.0973 N   0  0  0  0  0  0
  -23.4133  -28.8140   23.2975 O   0  0  0  0  0  0
  -28.3076  -26.3844   20.1751 O   0  0  0  0  0  0
  -26.5554  -34.8887   22.4616 O   0  0  0  0  0  0
  -23.5496  -32.1360   23.7338 O   0  0  0  0  0  0
  -29.4409  -21.1498   20.8150 C   0  0  0  0  0  0
  -29.2595  -19.8066   20.3366 C   0  0  0  0  0  0
  -28.8448  -22.2683   20.1292 C   0  0  0  0  0  0
  -27.9949  -20.7195   18.6403 C   0  0  0  0  0  0
  -27.1715  -20.4712   17.3979 C   0  0  0  0  0  0
  -29.6654  -18.4924   22.4782 C   0  0  0  0  0  0
  -31.4622  -18.5994   20.7399 C   0  0  0  0  0  0
  -30.4669  -24.1242   19.6629 C   0  0  0  0  0  0
  -29.3977  -24.0141   21.9215 C   0  0  0  0  0  0
  -29.4875  -17.0860   20.3139 C   0  0  0  0  0  0
  -28.0708  -24.9134   19.9644 C   0  0  0  0  0  0
  -29.9412  -18.4995   20.9585 C   0  0  0  0  0  0
  -29.1643  -23.8090   20.4131 C   0  0  0  0  0  0
  -28.5136  -19.6418   19.2276 N   0  0  0  0  0  0
  -28.1405  -21.9909   19.0136 N   0  0  0  0  0  0
  -29.7943  -15.7313   20.9473 N   0  0  0  0  0  0
  -31.5001  -12.5603   19.1993 H   0  0  0  0  0  0
  -30.4086  -11.4349   19.9424 H   0  0  0  0  0  0
  -29.8021  -11.7508   17.5246 H   0  0  0  0  0  0
  -29.6932  -13.4741   17.7512 H   0  0  0  0  0  0
  -27.8588  -11.3190   18.8549 H   0  0  0  0  0  0
  -27.4213  -12.6364   17.7907 H   0  0  0  0  0  0
  -27.6848  -14.2732   19.5398 H   0  0  0  0  0  0
  -28.7154  -12.0618   21.3838 H   0  0  0  0  0  0
  -28.4356  -13.7102   21.8671 H   0  0  0  0  0  0
  -25.2947   -9.5541   22.4789 H   0  0  0  0  0  0
  -23.9992   -7.4638   22.7546 H   0  0  0  0  0  0
  -21.0957   -8.9035   19.8989 H   0  0  0  0  0  0
  -22.4077  -10.9778   19.6179 H   0  0  0  0  0  0
  -21.2034   -7.6192   23.9765 H   0  0  0  0  0  0
  -21.1425   -6.0558   25.9113 H   0  0  0  0  0  0
  -22.0599   -2.7645   23.2872 H   0  0  0  0  0  0
  -22.4160  -11.9793   22.4673 H   0  0  0  0  0  0
  -21.1176  -13.1235   22.2605 H   0  0  0  0  0  0
  -24.6527  -15.8445   20.5414 H   0  0  0  0  0  0
  -26.2581  -15.6482   20.0627 H   0  0  0  0  0  0
  -26.7175  -32.5476   23.1061 H   0  0  0  0  0  0
  -25.0239  -33.9667   25.0528 H   0  0  0  0  0  0
  -22.7329  -31.3158   21.3970 H   0  0  0  0  0  0
  -23.3796  -35.9556   23.3256 H   0  0  0  0  0  0
  -24.3672  -36.8904   22.2075 H   0  0  0  0  0  0
  -23.7175  -37.6408   23.6688 H   0  0  0  0  0  0
  -26.1090  -31.5421   20.6068 H   0  0  0  0  0  0
  -26.8528  -30.8306   22.0034 H   0  0  0  0  0  0
  -28.1249  -28.9256   21.1892 H   0  0  0  0  0  0
  -25.9400  -25.9388   18.9539 H   0  0  0  0  0  0
  -23.9576  -27.3249   19.0029 H   0  0  0  0  0  0
  -23.7667  -30.5963   19.4020 H   0  0  0  0  0  0
  -22.7614  -29.2561   19.8533 H   0  0  0  0  0  0
  -25.1332  -36.1916   25.0820 H   0  0  0  0  0  0
  -21.0053  -28.3274   24.1399 H   0  0  0  0  0  0
  -20.5710  -26.2275   23.3588 H   0  0  0  0  0  0
  -21.6660  -26.7440   22.1208 H   0  0  0  0  0  0
  -19.6926  -25.6281   21.1251 H   0  0  0  0  0  0
  -19.6748  -27.3149   20.6704 H   0  0  0  0  0  0
  -17.4227  -26.6677   21.3993 H   0  0  0  0  0  0
  -18.0367  -26.0074   22.9003 H   0  0  0  0  0  0
  -19.7921  -30.7245   24.2360 H   0  0  0  0  0  0
  -17.5002  -31.6308   24.5076 H   0  0  0  0  0  0
  -15.5348  -30.2973   23.7676 H   0  0  0  0  0  0
  -15.8675  -28.0797   22.7121 H   0  0  0  0  0  0
  -24.6011  -30.6919   25.7739 H   0  0  0  0  0  0
  -24.8813  -32.2747   26.4890 H   0  0  0  0  0  0
  -25.8129  -30.8850   27.0181 H   0  0  0  0  0  0
  -26.2914  -29.6813   24.1211 H   0  0  0  0  0  0
  -27.4188  -29.7412   25.4606 H   0  0  0  0  0  0
  -27.8744  -30.4464   23.9270 H   0  0  0  0  0  0
  -27.2866  -33.3644   26.2000 H   0  0  0  0  0  0
  -28.3970  -32.6679   25.0273 H   0  0  0  0  0  0
  -28.0709  -31.8343   26.5378 H   0  0  0  0  0  0
  -28.2575  -38.0139   24.7628 H   0  0  0  0  0  0
  -28.1121  -36.2671   24.6163 H   0  0  0  0  0  0
  -27.2311  -37.1281   25.8851 H   0  0  0  0  0  0
  -20.9322  -29.8761   21.6828 H   0  0  0  0  0  0
  -26.0163  -38.2844   24.1477 H   0  0  0  0  0  0
  -30.0843  -21.3141   21.6660 H   0  0  0  0  0  0
  -26.8851  -19.4234   17.3219 H   0  0  0  0  0  0
  -27.7436  -20.7378   16.5094 H   0  0  0  0  0  0
  -26.2540  -21.0587   17.4119 H   0  0  0  0  0  0
  -30.0373  -19.4061   22.9456 H   0  0  0  0  0  0
  -30.1687  -17.6638   22.9771 H   0  0  0  0  0  0
  -28.5990  -18.4284   22.7000 H   0  0  0  0  0  0
  -31.8699  -19.5155   21.1644 H   0  0  0  0  0  0
  -31.7095  -18.5908   19.6780 H   0  0  0  0  0  0
  -31.9833  -17.7622   21.2071 H   0  0  0  0  0  0
  -31.2601  -23.4265   19.9328 H   0  0  0  0  0  0
  -30.8197  -25.1331   19.8747 H   0  0  0  0  0  0
  -30.3241  -24.0450   18.5861 H   0  0  0  0  0  0
  -30.2327  -23.4220   22.2930 H   0  0  0  0  0  0
  -28.5136  -23.7459   22.4981 H   0  0  0  0  0  0
  -29.6226  -25.0582   22.1374 H   0  0  0  0  0  0
  -29.7928  -17.0534   19.2672 H   0  0  0  0  0  0
  -28.3957  -17.1090   20.2716 H   0  0  0  0  0  0
  -27.1374  -24.6433   20.4574 H   0  0  0  0  0  0
  -27.8950  -24.7778   18.8961 H   0  0  0  0  0  0
  -29.0282  -15.3923   21.5104 H   0  0  0  0  0  0
  1 25  1  0  0  0
  1 30  2  0  0  0
  1 86  1  0  0  0
  2  3  1  0  0  0
  2 25  1  0  0  0
  2 87  1  0  0  0
  2 88  1  0  0  0
  3  4  1  0  0  0
  3 89  1  0  0  0
  3 90  1  0  0  0
  4  5  1  0  0  0
  4 91  1  0  0  0
  4 92  1  0  0  0
  5  6  1  0  0  0
  5 26  1  0  0  0
  5 93  1  0  0  0
  6 25  1  0  0  0
  6 94  1  0  0  0
  6 95  1  0  0  0
  7  8  2  0  0  0
  7 26  1  0  0  0
  7 29  1  0  0  0
  8  9  1  0  0  0
  8 22  1  0  0  0
  9 10  1  0  0  0
  9 27  2  0  0  0
 10 11  2  0  0  0
 10 15  1  0  0  0
 11 12  1  0  0  0
 11 96  1  0  0  0
 12 13  2  0  0  0
 12 97  1  0  0  0
 13 14  1  0  0  0
 13 31  1  0  0  0
 14 15  2  0  0  0
 14 98  1  0  0  0
 15 99  1  0  0  0
 16 17  2  0  0  0
 16 21  1  0  0  0
 16 31  1  0  0  0
 17 18  1  0  0  0
 17100  1  0  0  0
 18 19  2  0  0  0
 18101  1  0  0  0
 19 20  1  0  0  0
 19 24  1  0  0  0
 20 21  2  0  0  0
 20102  1  0  0  0
 21 23  1  0  0  0
 22 28  1  0  0  0
 22 32  2  0  0  0
 26 27  1  0  0  0
 28103  1  0  0  0
 28104  1  0  0  0
 29105  1  0  0  0
 29106  1  0  0  0
 33 34  1  0  0  0
 33 66  1  0  0  0
 33 70  2  0  0  0
 34 36  1  0  0  0
 34 59  1  0  0  0
 34107  1  0  0  0
 35 44  2  0  0  0
 35 45  1  0  0  0
 35 68  1  0  0  0
 36 56  1  0  0  0
 36108  1  0  0  0
 37 39  1  0  0  0
 37 47  1  0  0  0
 37 66  1  0  0  0
 37109  1  0  0  0
 38 43  2  0  0  0
 38 46  1  0  0  0
 38 47  1  0  0  0
 39 64  1  0  0  0
 39 67  2  0  0  0
 40 52  1  0  0  0
 40 53  2  0  0  0
 40 58  1  0  0  0
 41110  1  0  0  0
 41111  1  0  0  0
 41112  1  0  0  0
 41 48  1  0  0  0
 42 43  1  0  0  0
 42 66  1  0  0  0
 42113  1  0  0  0
 42114  1  0  0  0
 43 44  1  0  0  0
 44115  1  0  0  0
 45 46  2  0  0  0
 45116  1  0  0  0
 46117  1  0  0  0
 47118  1  0  0  0
 47119  1  0  0  0
 48 56  1  0  0  0
 48 65  1  0  0  0
 48120  1  0  0  0
 49 50  1  0  0  0
 49 53  1  0  0  0
 49 64  1  0  0  0
 49121  1  0  0  0
 50 51  1  0  0  0
 50122  1  0  0  0
 50123  1  0  0  0
 51 52  1  0  0  0
 51124  1  0  0  0
 51125  1  0  0  0
 52126  1  0  0  0
 52127  1  0  0  0
 53 54  1  0  0  0
 54 55  2  0  0  0
 54128  1  0  0  0
 55 57  1  0  0  0
 55129  1  0  0  0
 56 69  2  0  0  0
 57 58  2  0  0  0
 57130  1  0  0  0
 58131  1  0  0  0
 59 60  1  0  0  0
 59 61  1  0  0  0
 59 62  1  0  0  0
 60132  1  0  0  0
 60133  1  0  0  0
 60134  1  0  0  0
 61135  1  0  0  0
 61136  1  0  0  0
 61137  1  0  0  0
 62138  1  0  0  0
 62139  1  0  0  0
 62140  1  0  0  0
 63 65  1  0  0  0
 63141  1  0  0  0
 63142  1  0  0  0
 63143  1  0  0  0
 64144  1  0  0  0
 65145  1  0  0  0
 68 81  1  0  0  0
 71 72  2  0  0  0
 71 73  1  0  0  0
 71146  1  0  0  0
 72 82  1  0  0  0
 72 84  1  0  0  0
 73 83  1  0  0  0
 73 85  2  0  0  0
 74 75  1  0  0  0
 74 84  2  0  0  0
 74 85  1  0  0  0
 75147  1  0  0  0
 75148  1  0  0  0
 75149  1  0  0  0
 76150  1  0  0  0
 76151  1  0  0  0
 76152  1  0  0  0
 76 82  1  0  0  0
 77 82  1  0  0  0
 77153  1  0  0  0
 77154  1  0  0  0
 77155  1  0  0  0
 78156  1  0  0  0
 78157  1  0  0  0
 78158  1  0  0  0
 78 83  1  0  0  0
 79 83  1  0  0  0
 79159  1  0  0  0
 79160  1  0  0  0
 79161  1  0  0  0
 80 82  1  0  0  0
 80 86  1  0  0  0
 80162  1  0  0  0
 80163  1  0  0  0
 81 83  1  0  0  0
 81164  1  0  0  0
 81165  1  0  0  0
 86166  1  0  0  0
M  ISO  4   1 100  68 101  81 101  86 100
M  END
> <chiral flag>
0

> <version>
0

> <s_m_source_file>
/data/baiqing/PycharmProjects/Reinvent-master-3.2/result/LINK_invent/BTK/process_docking_weight1_custom_sum_contain_oxygen_bond_distance_aromatic_linkinvent_7_9_3/rearranged_h_0075.sdf

> <i_m_source_file_index>
49

> <r_mmod_Potential_Energy-OPLS-2005>
-340.9755859375

> <r_mmod_Stretch_Energy-OPLS-2005>
112.259674072266

> <r_mmod_Bend_Energy-OPLS-2005>
166.270660400391

> <r_mmod_Torsional_Energy-OPLS-2005>
235.561294555664

> <r_mmod_Improper_Torsional_Energy-OPLS-2005>
7.84772777557373

> <r_mmod_Van_der_Waal_Energy-OPLS-2005>
148.411026000977

> <r_mmod_Electrostatic_Energy-OPLS-2005>
-868.374389648438

> <r_mmod_Solvation_Energy-OPLS-2005>
-215.050018310547

> <b_mmod_Minimization_Converged-OPLS-2005>
0

> <r_mmod_RMS_Derivative-OPLS-2005>
5.37947750091553

$$$$
50
                    3D
 Structure written by MMmdl.
154162  0  0  1  0            999 V2000
  -30.6039  -14.7356   20.4697 C   0  0  0  0  0  0
  -30.4385  -12.4526   19.4591 C   0  0  0  0  0  0
  -29.5082  -12.5046   18.2270 C   0  0  0  0  0  0
  -28.0350  -12.3273   18.6458 C   0  0  0  0  0  0
  -27.6432  -13.2264   19.8488 C   0  0  2  0  0  0
  -28.6909  -13.1483   20.9802 C   0  0  0  0  0  0
  -25.2521  -13.8181   20.5689 C   0  0  0  0  0  0
  -24.1809  -13.0430   20.9211 C   0  0  0  0  0  0
  -24.6395  -11.6911   20.8748 C   0  0  0  0  0  0
  -23.9070  -10.4288   21.0406 C   0  0  0  0  0  0
  -24.3620   -9.4205   21.9187 C   0  0  0  0  0  0
  -23.6294   -8.2242   22.0756 C   0  0  0  0  0  0
  -22.4276   -8.0277   21.3546 C   0  0  0  0  0  0
  -21.9912   -9.0252   20.4652 C   0  0  0  0  0  0
  -22.7241  -10.2132   20.3059 C   0  0  0  0  0  0
  -21.6852   -6.0732   22.5282 C   0  0  0  0  0  0
  -21.4014   -6.5638   23.8214 C   0  0  0  0  0  0
  -21.3659   -5.6793   24.9177 C   0  0  0  0  0  0
  -21.6040   -4.3056   24.7230 C   0  0  0  0  0  0
  -21.8820   -3.8146   23.4352 C   0  0  0  0  0  0
  -21.9194   -4.6960   22.3406 C   0  0  0  0  0  0
  -22.7833  -13.5218   21.1872 C   0  0  0  0  0  0
  -22.1662   -4.2142   21.0982 F   0  0  0  0  0  0
  -21.5626   -3.4540   25.7745 F   0  0  0  0  0  0
  -29.9900  -13.5064   20.3958 N   0  0  0  0  0  0
  -26.2946  -12.9379   20.3274 N   0  0  0  0  0  0
  -25.9323  -11.6529   20.5749 N   0  0  0  0  0  0
  -22.0482  -12.8205   22.0428 N   0  0  0  0  0  0
  -25.4189  -15.1900   20.4092 N   0  0  0  0  0  0
  -31.7950  -14.8552   20.1716 O   0  0  0  0  0  0
  -21.6640   -6.8873   21.4243 O   0  0  0  0  0  0
  -22.3521  -14.5524   20.6716 O   0  0  0  0  0  0
  -24.6317  -31.8557   23.1970 C   0  0  0  0  0  0
  -25.9138  -32.4756   23.8318 C   0  0  1  0  0  0
  -27.2204  -27.2575   20.1223 C   0  0  0  0  0  0
  -25.5925  -33.8556   24.2243 N   0  0  0  0  0  0
  -23.4288  -30.4785   21.5418 C   0  0  2  0  0  0
  -24.8750  -28.9253   20.1117 C   0  0  0  0  0  0
  -22.7505  -29.4607   22.4910 C   0  0  0  0  0  0
  -18.0289  -28.1389   22.8480 C   0  0  0  0  0  0
  -24.1490  -36.7289   23.2640 C   0  0  0  0  0  0
  -25.9762  -30.7667   21.3772 C   0  0  0  0  0  0
  -26.0495  -29.3903   20.7166 C   0  0  0  0  0  0
  -27.2260  -28.5712   20.7062 C   0  0  0  0  0  0
  -26.0169  -26.8613   19.4950 C   0  0  0  0  0  0
  -24.8638  -27.6684   19.4921 C   0  0  0  0  0  0
  -23.6469  -29.8141   20.1578 C   0  0  0  0  0  0
  -25.4112  -36.3064   24.0323 C   0  0  1  0  0  0
  -20.5895  -28.3702   23.1267 C   0  0  2  0  0  0
  -20.6779  -26.9420   22.5403 C   0  0  0  0  0  0
  -19.5756  -26.6386   21.5208 C   0  0  0  0  0  0
  -18.1938  -26.7928   22.1623 C   0  0  0  0  0  0
  -19.1543  -28.8860   23.2870 C   0  0  0  0  0  0
  -18.9463  -30.1458   23.8897 C   0  0  0  0  0  0
  -17.6464  -30.6595   24.0553 C   0  0  0  0  0  0
  -25.9052  -34.9440   23.5088 C   0  0  0  0  0  0
  -16.5355  -29.9091   23.6329 C   0  0  0  0  0  0
  -16.7273  -28.6506   23.0352 C   0  0  0  0  0  0
  -26.4492  -31.6579   25.0711 C   0  0  0  0  0  0
  -25.3703  -31.3733   26.1425 C   0  0  0  0  0  0
  -27.0333  -30.2988   24.6215 C   0  0  0  0  0  0
  -27.6039  -32.4329   25.7482 C   0  0  0  0  0  0
  -27.5586  -37.1793   24.8467 C   0  0  0  0  0  0
  -21.4207  -29.3055   22.3659 N   0  0  0  0  0  0
  -26.4293  -37.3761   23.9411 N   0  0  0  0  0  0
  -24.6983  -31.0515   22.0948 N   0  0  0  0  0  0
  -23.4200  -28.8145   23.3012 O   0  0  0  0  0  0
  -28.3219  -26.3664   20.1613 O   0  0  0  0  0  0
  -26.5637  -34.8923   22.4667 O   0  0  0  0  0  0
  -23.5466  -32.1390   23.7257 O   0  0  0  0  0  0
  -28.6196  -20.4510   21.7314 C   0  0  0  0  0  0
  -28.5606  -21.8277   21.7357 C   0  0  0  0  0  0
  -29.4455  -21.1633   19.8183 C   0  0  0  0  0  0
  -29.1720  -19.9686   20.5028 C   0  0  0  0  0  0
  -29.5941  -18.3241   18.5598 C   0  0  0  0  0  0
  -29.2928  -23.8146   20.2320 C   0  0  0  0  0  0
  -30.1279  -17.3309   20.8701 C   0  0  0  0  0  0
  -28.0752  -24.8758   20.1697 C   0  0  0  0  0  0
  -29.2626  -18.4296   20.0546 C   0  0  1  0  0  0
  -29.0680  -22.3286   20.5480 N   0  0  0  0  0  0
  -29.8040  -15.8435   20.6923 N   0  0  0  0  0  0
  -31.4766  -12.5900   19.1512 H   0  0  0  0  0  0
  -30.3934  -11.4734   19.9381 H   0  0  0  0  0  0
  -29.7871  -11.7312   17.5100 H   0  0  0  0  0  0
  -29.6315  -13.4584   17.7118 H   0  0  0  0  0  0
  -27.8937  -11.2785   18.9101 H   0  0  0  0  0  0
  -27.3744  -12.5180   17.7988 H   0  0  0  0  0  0
  -27.6397  -14.2486   19.4706 H   0  0  0  0  0  0
  -28.7284  -12.1459   21.4088 H   0  0  0  0  0  0
  -28.4285  -13.8201   21.7989 H   0  0  0  0  0  0
  -25.2765   -9.5680   22.4765 H   0  0  0  0  0  0
  -23.9999   -7.4634   22.7479 H   0  0  0  0  0  0
  -21.0841   -8.8777   19.8961 H   0  0  0  0  0  0
  -22.3699  -10.9674   19.6170 H   0  0  0  0  0  0
  -21.2007   -7.6148   23.9714 H   0  0  0  0  0  0
  -21.1477   -6.0525   25.9077 H   0  0  0  0  0  0
  -22.0598   -2.7607   23.2858 H   0  0  0  0  0  0
  -22.4103  -11.9864   22.4810 H   0  0  0  0  0  0
  -21.1102  -13.1230   22.2639 H   0  0  0  0  0  0
  -24.6453  -15.8374   20.5144 H   0  0  0  0  0  0
  -26.2547  -15.6332   20.0509 H   0  0  0  0  0  0
  -26.7204  -32.5407   23.1056 H   0  0  0  0  0  0
  -25.0005  -33.9689   25.0341 H   0  0  0  0  0  0
  -22.7253  -31.3007   21.3960 H   0  0  0  0  0  0
  -23.3745  -35.9629   23.3300 H   0  0  0  0  0  0
  -24.3574  -36.8924   22.2055 H   0  0  0  0  0  0
  -23.7255  -37.6494   23.6671 H   0  0  0  0  0  0
  -26.1174  -31.5284   20.6095 H   0  0  0  0  0  0
  -26.8522  -30.8128   22.0129 H   0  0  0  0  0  0
  -28.1273  -28.9247   21.1870 H   0  0  0  0  0  0
  -25.9280  -25.9065   19.0025 H   0  0  0  0  0  0
  -23.9629  -27.3057   19.0169 H   0  0  0  0  0  0
  -23.7728  -30.5923   19.4040 H   0  0  0  0  0  0
  -22.7640  -29.2503   19.8511 H   0  0  0  0  0  0
  -25.1290  -36.1900   25.0811 H   0  0  0  0  0  0
  -20.9979  -28.3280   24.1391 H   0  0  0  0  0  0
  -20.5678  -26.2311   23.3605 H   0  0  0  0  0  0
  -21.6652  -26.7446   22.1204 H   0  0  0  0  0  0
  -19.6919  -25.6293   21.1251 H   0  0  0  0  0  0
  -19.6702  -27.3181   20.6727 H   0  0  0  0  0  0
  -17.4202  -26.6666   21.4029 H   0  0  0  0  0  0
  -18.0346  -26.0072   22.9023 H   0  0  0  0  0  0
  -19.7938  -30.7265   24.2288 H   0  0  0  0  0  0
  -17.5020  -31.6278   24.5149 H   0  0  0  0  0  0
  -15.5354  -30.2988   23.7673 H   0  0  0  0  0  0
  -15.8669  -28.0826   22.7076 H   0  0  0  0  0  0
  -24.5875  -30.7085   25.7751 H   0  0  0  0  0  0
  -24.8885  -32.2896   26.4840 H   0  0  0  0  0  0
  -25.8010  -30.8912   27.0209 H   0  0  0  0  0  0
  -26.2916  -29.6724   24.1236 H   0  0  0  0  0  0
  -27.3996  -29.7262   25.4749 H   0  0  0  0  0  0
  -27.8806  -30.4248   23.9470 H   0  0  0  0  0  0
  -27.2644  -33.3637   26.2036 H   0  0  0  0  0  0
  -28.3852  -32.6880   25.0309 H   0  0  0  0  0  0
  -28.0695  -31.8461   26.5414 H   0  0  0  0  0  0
  -28.2587  -38.0103   24.7515 H   0  0  0  0  0  0
  -28.1104  -36.2634   24.6282 H   0  0  0  0  0  0
  -27.2315  -37.1430   25.8875 H   0  0  0  0  0  0
  -20.9391  -29.8783   21.6869 H   0  0  0  0  0  0
  -26.0173  -38.2842   24.1389 H   0  0  0  0  0  0
  -28.2619  -19.8346   22.5459 H   0  0  0  0  0  0
  -28.2071  -22.5050   22.5025 H   0  0  0  0  0  0
  -29.8772  -21.2913   18.8333 H   0  0  0  0  0  0
  -28.8900  -18.8984   17.9571 H   0  0  0  0  0  0
  -29.5482  -17.2901   18.2170 H   0  0  0  0  0  0
  -30.5966  -18.6979   18.3502 H   0  0  0  0  0  0
  -29.9842  -24.1782   20.9919 H   0  0  0  0  0  0
  -29.8494  -23.8722   19.2965 H   0  0  0  0  0  0
  -29.9914  -17.5296   21.9336 H   0  0  0  0  0  0
  -31.1900  -17.4942   20.6820 H   0  0  0  0  0  0
  -27.4086  -24.6691   21.0078 H   0  0  0  0  0  0
  -27.5237  -24.6045   19.2720 H   0  0  0  0  0  0
  -28.2285  -18.0969   20.1557 H   0  0  0  0  0  0
  -28.8339  -15.6115   20.8406 H   0  0  0  0  0  0
  1 25  1  0  0  0
  1 30  2  0  0  0
  1 81  1  0  0  0
  2  3  1  0  0  0
  2 25  1  0  0  0
  2 82  1  0  0  0
  2 83  1  0  0  0
  3  4  1  0  0  0
  3 84  1  0  0  0
  3 85  1  0  0  0
  4  5  1  0  0  0
  4 86  1  0  0  0
  4 87  1  0  0  0
  5  6  1  0  0  0
  5 26  1  0  0  0
  5 88  1  0  0  0
  6 25  1  0  0  0
  6 89  1  0  0  0
  6 90  1  0  0  0
  7  8  2  0  0  0
  7 26  1  0  0  0
  7 29  1  0  0  0
  8  9  1  0  0  0
  8 22  1  0  0  0
  9 10  1  0  0  0
  9 27  2  0  0  0
 10 11  2  0  0  0
 10 15  1  0  0  0
 11 12  1  0  0  0
 11 91  1  0  0  0
 12 13  2  0  0  0
 12 92  1  0  0  0
 13 14  1  0  0  0
 13 31  1  0  0  0
 14 15  2  0  0  0
 14 93  1  0  0  0
 15 94  1  0  0  0
 16 17  2  0  0  0
 16 21  1  0  0  0
 16 31  1  0  0  0
 17 18  1  0  0  0
 17 95  1  0  0  0
 18 19  2  0  0  0
 18 96  1  0  0  0
 19 20  1  0  0  0
 19 24  1  0  0  0
 20 21  2  0  0  0
 20 97  1  0  0  0
 21 23  1  0  0  0
 22 28  1  0  0  0
 22 32  2  0  0  0
 26 27  1  0  0  0
 28 98  1  0  0  0
 28 99  1  0  0  0
 29100  1  0  0  0
 29101  1  0  0  0
 33 34  1  0  0  0
 33 66  1  0  0  0
 33 70  2  0  0  0
 34 36  1  0  0  0
 34 59  1  0  0  0
 34102  1  0  0  0
 35 44  2  0  0  0
 35 45  1  0  0  0
 35 68  1  0  0  0
 36 56  1  0  0  0
 36103  1  0  0  0
 37 39  1  0  0  0
 37 47  1  0  0  0
 37 66  1  0  0  0
 37104  1  0  0  0
 38 43  2  0  0  0
 38 46  1  0  0  0
 38 47  1  0  0  0
 39 64  1  0  0  0
 39 67  2  0  0  0
 40 52  1  0  0  0
 40 53  2  0  0  0
 40 58  1  0  0  0
 41105  1  0  0  0
 41106  1  0  0  0
 41107  1  0  0  0
 41 48  1  0  0  0
 42 43  1  0  0  0
 42 66  1  0  0  0
 42108  1  0  0  0
 42109  1  0  0  0
 43 44  1  0  0  0
 44110  1  0  0  0
 45 46  2  0  0  0
 45111  1  0  0  0
 46112  1  0  0  0
 47113  1  0  0  0
 47114  1  0  0  0
 48 56  1  0  0  0
 48 65  1  0  0  0
 48115  1  0  0  0
 49 50  1  0  0  0
 49 53  1  0  0  0
 49 64  1  0  0  0
 49116  1  0  0  0
 50 51  1  0  0  0
 50117  1  0  0  0
 50118  1  0  0  0
 51 52  1  0  0  0
 51119  1  0  0  0
 51120  1  0  0  0
 52121  1  0  0  0
 52122  1  0  0  0
 53 54  1  0  0  0
 54 55  2  0  0  0
 54123  1  0  0  0
 55 57  1  0  0  0
 55124  1  0  0  0
 56 69  2  0  0  0
 57 58  2  0  0  0
 57125  1  0  0  0
 58126  1  0  0  0
 59 60  1  0  0  0
 59 61  1  0  0  0
 59 62  1  0  0  0
 60127  1  0  0  0
 60128  1  0  0  0
 60129  1  0  0  0
 61130  1  0  0  0
 61131  1  0  0  0
 61132  1  0  0  0
 62133  1  0  0  0
 62134  1  0  0  0
 62135  1  0  0  0
 63 65  1  0  0  0
 63136  1  0  0  0
 63137  1  0  0  0
 63138  1  0  0  0
 64139  1  0  0  0
 65140  1  0  0  0
 68 78  1  0  0  0
 71 72  2  0  0  0
 71 74  1  0  0  0
 71141  1  0  0  0
 72 80  1  0  0  0
 72142  1  0  0  0
 73 74  2  0  0  0
 73 80  1  0  0  0
 73143  1  0  0  0
 74 79  1  0  0  0
 75144  1  0  0  0
 75145  1  0  0  0
 75146  1  0  0  0
 75 79  1  0  0  0
 76 78  1  0  0  0
 76 80  1  0  0  0
 76147  1  0  0  0
 76148  1  0  0  0
 77 79  1  0  0  0
 77 81  1  0  0  0
 77149  1  0  0  0
 77150  1  0  0  0
 78151  1  0  0  0
 78152  1  0  0  0
 79153  1  0  0  0
 81154  1  0  0  0
M  ISO  4   1 100  68 101  78 101  81 100
M  END
> <chiral flag>
0

> <version>
0

> <s_m_source_file>
/data/baiqing/PycharmProjects/Reinvent-master-3.2/result/LINK_invent/BTK/process_docking_weight1_custom_sum_contain_oxygen_bond_distance_aromatic_linkinvent_7_9_3/rearranged_h_0075.sdf

> <i_m_source_file_index>
50

> <r_mmod_Potential_Energy-OPLS-2005>
114.15185546875

> <r_mmod_Stretch_Energy-OPLS-2005>
120.855560302734

> <r_mmod_Bend_Energy-OPLS-2005>
166.132827758789

> <r_mmod_Torsional_Energy-OPLS-2005>
226.096115112305

> <r_mmod_Improper_Torsional_Energy-OPLS-2005>
5.50664901733398

> <r_mmod_Van_der_Waal_Energy-OPLS-2005>
114.456024169922

> <r_mmod_Electrostatic_Energy-OPLS-2005>
-388.613800048828

> <r_mmod_Solvation_Energy-OPLS-2005>
-213.919097900391

> <b_mmod_Minimization_Converged-OPLS-2005>
0

> <r_mmod_RMS_Derivative-OPLS-2005>
1.07325863838196

$$$$
51
                    3D
 Structure written by MMmdl.
164172  0  0  1  0            999 V2000
  -30.7656  -14.4528   20.6428 C   0  0  0  0  0  0
  -30.4099  -12.3168   19.4367 C   0  0  0  0  0  0
  -29.4976  -12.5200   18.2097 C   0  0  0  0  0  0
  -28.0194  -12.3522   18.6097 C   0  0  0  0  0  0
  -27.6551  -13.1993   19.8524 C   0  0  2  0  0  0
  -28.6851  -13.0131   20.9854 C   0  0  0  0  0  0
  -25.2536  -13.8122   20.5567 C   0  0  0  0  0  0
  -24.1805  -13.0401   20.9122 C   0  0  0  0  0  0
  -24.6378  -11.6877   20.8699 C   0  0  0  0  0  0
  -23.9052  -10.4272   21.0402 C   0  0  0  0  0  0
  -24.3613   -9.4199   21.9184 C   0  0  0  0  0  0
  -23.6286   -8.2241   22.0771 C   0  0  0  0  0  0
  -22.4264   -8.0280   21.3554 C   0  0  0  0  0  0
  -21.9902   -9.0243   20.4644 C   0  0  0  0  0  0
  -22.7229  -10.2115   20.3045 C   0  0  0  0  0  0
  -21.6839   -6.0740   22.5292 C   0  0  0  0  0  0
  -21.3997   -6.5650   23.8224 C   0  0  0  0  0  0
  -21.3656   -5.6810   24.9186 C   0  0  0  0  0  0
  -21.6056   -4.3076   24.7248 C   0  0  0  0  0  0
  -21.8817   -3.8155   23.4368 C   0  0  0  0  0  0
  -21.9181   -4.6966   22.3418 C   0  0  0  0  0  0
  -22.7837  -13.5203   21.1828 C   0  0  0  0  0  0
  -22.1661   -4.2157   21.0992 F   0  0  0  0  0  0
  -21.5641   -3.4560   25.7758 F   0  0  0  0  0  0
  -30.0309  -13.3118   20.4607 N   0  0  0  0  0  0
  -26.2965  -12.9293   20.3173 N   0  0  0  0  0  0
  -25.9288  -11.6466   20.5657 N   0  0  0  0  0  0
  -22.0489  -12.8193   22.0390 N   0  0  0  0  0  0
  -25.4210  -15.1834   20.3968 N   0  0  0  0  0  0
  -31.8285  -14.6271   20.0378 O   0  0  0  0  0  0
  -21.6614   -6.8890   21.4257 O   0  0  0  0  0  0
  -22.3517  -14.5519   20.6696 O   0  0  0  0  0  0
  -24.6125  -31.8670   23.2064 C   0  0  0  0  0  0
  -25.9015  -32.4820   23.8360 C   0  0  1  0  0  0
  -27.2390  -27.4370   20.1051 C   0  0  0  0  0  0
  -25.5858  -33.8617   24.2291 N   0  0  0  0  0  0
  -23.4006  -30.4874   21.5479 C   0  0  2  0  0  0
  -24.8499  -28.9492   20.1168 C   0  0  0  0  0  0
  -22.7397  -29.4641   22.4989 C   0  0  0  0  0  0
  -18.0272  -28.1378   22.8496 C   0  0  0  0  0  0
  -24.1489  -36.7324   23.2638 C   0  0  0  0  0  0
  -25.9272  -30.8374   21.3539 C   0  0  0  0  0  0
  -26.0099  -29.4687   20.7078 C   0  0  0  0  0  0
  -27.2092  -28.7208   20.6956 C   0  0  0  0  0  0
  -26.0646  -26.9285   19.5095 C   0  0  0  0  0  0
  -24.8723  -27.6773   19.5159 C   0  0  0  0  0  0
  -23.6094  -29.8134   20.1645 C   0  0  0  0  0  0
  -25.4111  -36.3113   24.0332 C   0  0  1  0  0  0
  -20.5858  -28.3650   23.1330 C   0  0  2  0  0  0
  -20.6764  -26.9389   22.5420 C   0  0  0  0  0  0
  -19.5742  -26.6387   21.5217 C   0  0  0  0  0  0
  -18.1923  -26.7927   22.1626 C   0  0  0  0  0  0
  -19.1522  -28.8834   23.2910 C   0  0  0  0  0  0
  -18.9450  -30.1447   23.8910 C   0  0  0  0  0  0
  -17.6452  -30.6586   24.0564 C   0  0  0  0  0  0
  -25.9036  -34.9474   23.5118 C   0  0  0  0  0  0
  -16.5344  -29.9091   23.6319 C   0  0  0  0  0  0
  -16.7264  -28.6507   23.0344 C   0  0  0  0  0  0
  -26.4435  -31.6586   25.0676 C   0  0  0  0  0  0
  -25.3693  -31.3698   26.1412 C   0  0  0  0  0  0
  -27.0255  -30.3034   24.6021 C   0  0  0  0  0  0
  -27.5997  -32.4296   25.7464 C   0  0  0  0  0  0
  -27.5582  -37.1820   24.8460 C   0  0  0  0  0  0
  -21.4122  -29.3018   22.3731 N   0  0  0  0  0  0
  -26.4296  -37.3797   23.9403 N   0  0  0  0  0  0
  -24.6657  -31.0775   22.0957 N   0  0  0  0  0  0
  -23.4176  -28.8204   23.3044 O   0  0  0  0  0  0
  -28.3961  -26.6902   20.0919 O   0  0  0  0  0  0
  -26.5630  -34.8926   22.4700 O   0  0  0  0  0  0
  -23.5319  -32.1411   23.7463 O   0  0  0  0  0  0
  -30.2764  -21.6975   19.2089 C   0  0  0  0  0  0
  -29.1344  -20.3987   20.8914 C   0  0  0  0  0  0
  -29.4355  -21.6685   20.3390 C   0  0  0  0  0  0
  -30.7503  -20.4860   18.6745 C   0  0  0  0  0  0
  -29.6641  -19.2252   20.3008 C   0  0  0  0  0  0
  -31.6534  -20.4772   17.4598 C   0  0  0  0  0  0
  -28.2521  -17.1779   19.8904 C   0  0  0  0  0  0
  -30.0514  -15.2825   22.8305 C   0  0  0  0  0  0
  -28.8864  -22.9544   20.9761 C   0  0  0  0  0  0
  -28.8833  -24.2417   20.1020 C   0  0  0  0  0  0
  -30.5381  -16.8926   21.0424 C   0  0  0  0  0  0
  -28.3483  -25.4786   20.8636 C   0  0  0  0  0  0
  -29.2995  -17.8153   20.8076 C   0  0  1  0  0  0
  -30.4394  -19.2804   19.1942 N   0  0  0  0  0  0
  -30.2325  -15.4685   21.3833 N   0  0  0  0  0  0
  -31.4599  -12.3822   19.1463 H   0  0  0  0  0  0
  -30.2903  -11.3086   19.8363 H   0  0  0  0  0  0
  -29.7556  -11.8110   17.4211 H   0  0  0  0  0  0
  -29.6577  -13.5144   17.7897 H   0  0  0  0  0  0
  -27.8443  -11.2951   18.8129 H   0  0  0  0  0  0
  -27.3720  -12.6144   17.7723 H   0  0  0  0  0  0
  -27.6924  -14.2350   19.5248 H   0  0  0  0  0  0
  -28.6604  -11.9872   21.3550 H   0  0  0  0  0  0
  -28.3893  -13.6373   21.8238 H   0  0  0  0  0  0
  -25.2783   -9.5674   22.4723 H   0  0  0  0  0  0
  -24.0004   -7.4633   22.7496 H   0  0  0  0  0  0
  -21.0849   -8.8750   19.8936 H   0  0  0  0  0  0
  -22.3717  -10.9640   19.6129 H   0  0  0  0  0  0
  -21.1976   -7.6151   23.9725 H   0  0  0  0  0  0
  -21.1483   -6.0540   25.9092 H   0  0  0  0  0  0
  -22.0589   -2.7618   23.2859 H   0  0  0  0  0  0
  -22.4118  -11.9853   22.4758 H   0  0  0  0  0  0
  -21.1097  -13.1195   22.2607 H   0  0  0  0  0  0
  -24.6518  -15.8351   20.4998 H   0  0  0  0  0  0
  -26.2721  -15.6201   20.0698 H   0  0  0  0  0  0
  -26.7095  -32.5543   23.1138 H   0  0  0  0  0  0
  -24.9929  -33.9778   25.0379 H   0  0  0  0  0  0
  -22.6887  -31.3026   21.4057 H   0  0  0  0  0  0
  -23.3741  -35.9665   23.3303 H   0  0  0  0  0  0
  -24.3588  -36.8944   22.2052 H   0  0  0  0  0  0
  -23.7248  -37.6530   23.6660 H   0  0  0  0  0  0
  -26.0257  -31.5995   20.5790 H   0  0  0  0  0  0
  -26.8196  -30.9026   21.9644 H   0  0  0  0  0  0
  -28.1064  -29.1173   21.1511 H   0  0  0  0  0  0
  -26.0762  -25.9525   19.0445 H   0  0  0  0  0  0
  -23.9797  -27.2687   19.0624 H   0  0  0  0  0  0
  -23.7130  -30.5837   19.3990 H   0  0  0  0  0  0
  -22.7349  -29.2285   19.8733 H   0  0  0  0  0  0
  -25.1290  -36.1978   25.0826 H   0  0  0  0  0  0
  -20.9961  -28.3223   24.1446 H   0  0  0  0  0  0
  -20.5688  -26.2254   23.3601 H   0  0  0  0  0  0
  -21.6637  -26.7456   22.1203 H   0  0  0  0  0  0
  -19.6909  -25.6309   21.1228 H   0  0  0  0  0  0
  -19.6687  -27.3215   20.6765 H   0  0  0  0  0  0
  -17.4193  -26.6674   21.4027 H   0  0  0  0  0  0
  -18.0321  -26.0066   22.9018 H   0  0  0  0  0  0
  -19.7929  -30.7265   24.2276 H   0  0  0  0  0  0
  -17.5010  -31.6270   24.5163 H   0  0  0  0  0  0
  -15.5350  -30.3007   23.7631 H   0  0  0  0  0  0
  -15.8660  -28.0844   22.7043 H   0  0  0  0  0  0
  -24.5848  -30.7080   25.7724 H   0  0  0  0  0  0
  -24.8906  -32.2868   26.4861 H   0  0  0  0  0  0
  -25.8018  -30.8835   27.0163 H   0  0  0  0  0  0
  -26.2801  -29.6836   24.1027 H   0  0  0  0  0  0
  -27.3991  -29.7219   25.4456 H   0  0  0  0  0  0
  -27.8639  -30.4360   23.9179 H   0  0  0  0  0  0
  -27.2592  -33.3568   26.2088 H   0  0  0  0  0  0
  -28.3797  -32.6905   25.0300 H   0  0  0  0  0  0
  -28.0669  -31.8384   26.5350 H   0  0  0  0  0  0
  -28.2593  -38.0122   24.7517 H   0  0  0  0  0  0
  -28.1085  -36.2656   24.6280 H   0  0  0  0  0  0
  -27.2301  -37.1465   25.8862 H   0  0  0  0  0  0
  -20.9278  -29.8719   21.6933 H   0  0  0  0  0  0
  -26.0180  -38.2871   24.1409 H   0  0  0  0  0  0
  -30.5665  -22.6301   18.7476 H   0  0  0  0  0  0
  -28.4892  -20.3222   21.7562 H   0  0  0  0  0  0
  -32.1149  -21.4544   17.3123 H   0  0  0  0  0  0
  -31.0836  -20.2295   16.5639 H   0  0  0  0  0  0
  -32.4527  -19.7454   17.5728 H   0  0  0  0  0  0
  -27.3841  -17.8285   19.7773 H   0  0  0  0  0  0
  -27.9065  -16.2457   20.3227 H   0  0  0  0  0  0
  -28.6590  -16.9785   18.8984 H   0  0  0  0  0  0
  -30.8347  -15.7844   23.3997 H   0  0  0  0  0  0
  -30.0806  -14.2353   23.1362 H   0  0  0  0  0  0
  -29.0903  -15.6923   23.1438 H   0  0  0  0  0  0
  -29.4637  -23.1397   21.8829 H   0  0  0  0  0  0
  -27.8662  -22.7539   21.3070 H   0  0  0  0  0  0
  -28.2826  -24.0789   19.2069 H   0  0  0  0  0  0
  -29.8952  -24.4633   19.7640 H   0  0  0  0  0  0
  -31.1692  -17.3345   21.8133 H   0  0  0  0  0  0
  -31.1459  -16.9398   20.1387 H   0  0  0  0  0  0
  -28.9596  -25.6430   21.7518 H   0  0  0  0  0  0
  -27.3442  -25.2674   21.2369 H   0  0  0  0  0  0
  -28.8212  -17.9455   21.7790 H   0  0  0  0  0  0
  1 25  1  0  0  0
  1 30  2  0  0  0
  1 85  1  0  0  0
  2  3  1  0  0  0
  2 25  1  0  0  0
  2 86  1  0  0  0
  2 87  1  0  0  0
  3  4  1  0  0  0
  3 88  1  0  0  0
  3 89  1  0  0  0
  4  5  1  0  0  0
  4 90  1  0  0  0
  4 91  1  0  0  0
  5  6  1  0  0  0
  5 26  1  0  0  0
  5 92  1  0  0  0
  6 25  1  0  0  0
  6 93  1  0  0  0
  6 94  1  0  0  0
  7  8  2  0  0  0
  7 26  1  0  0  0
  7 29  1  0  0  0
  8  9  1  0  0  0
  8 22  1  0  0  0
  9 10  1  0  0  0
  9 27  2  0  0  0
 10 11  2  0  0  0
 10 15  1  0  0  0
 11 12  1  0  0  0
 11 95  1  0  0  0
 12 13  2  0  0  0
 12 96  1  0  0  0
 13 14  1  0  0  0
 13 31  1  0  0  0
 14 15  2  0  0  0
 14 97  1  0  0  0
 15 98  1  0  0  0
 16 17  2  0  0  0
 16 21  1  0  0  0
 16 31  1  0  0  0
 17 18  1  0  0  0
 17 99  1  0  0  0
 18 19  2  0  0  0
 18100  1  0  0  0
 19 20  1  0  0  0
 19 24  1  0  0  0
 20 21  2  0  0  0
 20101  1  0  0  0
 21 23  1  0  0  0
 22 28  1  0  0  0
 22 32  2  0  0  0
 26 27  1  0  0  0
 28102  1  0  0  0
 28103  1  0  0  0
 29104  1  0  0  0
 29105  1  0  0  0
 33 34  1  0  0  0
 33 66  1  0  0  0
 33 70  2  0  0  0
 34 36  1  0  0  0
 34 59  1  0  0  0
 34106  1  0  0  0
 35 44  2  0  0  0
 35 45  1  0  0  0
 35 68  1  0  0  0
 36 56  1  0  0  0
 36107  1  0  0  0
 37 39  1  0  0  0
 37 47  1  0  0  0
 37 66  1  0  0  0
 37108  1  0  0  0
 38 43  2  0  0  0
 38 46  1  0  0  0
 38 47  1  0  0  0
 39 64  1  0  0  0
 39 67  2  0  0  0
 40 52  1  0  0  0
 40 53  2  0  0  0
 40 58  1  0  0  0
 41109  1  0  0  0
 41110  1  0  0  0
 41111  1  0  0  0
 41 48  1  0  0  0
 42 43  1  0  0  0
 42 66  1  0  0  0
 42112  1  0  0  0
 42113  1  0  0  0
 43 44  1  0  0  0
 44114  1  0  0  0
 45 46  2  0  0  0
 45115  1  0  0  0
 46116  1  0  0  0
 47117  1  0  0  0
 47118  1  0  0  0
 48 56  1  0  0  0
 48 65  1  0  0  0
 48119  1  0  0  0
 49 50  1  0  0  0
 49 53  1  0  0  0
 49 64  1  0  0  0
 49120  1  0  0  0
 50 51  1  0  0  0
 50121  1  0  0  0
 50122  1  0  0  0
 51 52  1  0  0  0
 51123  1  0  0  0
 51124  1  0  0  0
 52125  1  0  0  0
 52126  1  0  0  0
 53 54  1  0  0  0
 54 55  2  0  0  0
 54127  1  0  0  0
 55 57  1  0  0  0
 55128  1  0  0  0
 56 69  2  0  0  0
 57 58  2  0  0  0
 57129  1  0  0  0
 58130  1  0  0  0
 59 60  1  0  0  0
 59 61  1  0  0  0
 59 62  1  0  0  0
 60131  1  0  0  0
 60132  1  0  0  0
 60133  1  0  0  0
 61134  1  0  0  0
 61135  1  0  0  0
 61136  1  0  0  0
 62137  1  0  0  0
 62138  1  0  0  0
 62139  1  0  0  0
 63 65  1  0  0  0
 63140  1  0  0  0
 63141  1  0  0  0
 63142  1  0  0  0
 64143  1  0  0  0
 65144  1  0  0  0
 68 82  1  0  0  0
 71 73  2  0  0  0
 71 74  1  0  0  0
 71145  1  0  0  0
 72 73  1  0  0  0
 72 75  2  0  0  0
 72146  1  0  0  0
 73 79  1  0  0  0
 74 76  1  0  0  0
 74 84  2  0  0  0
 75 83  1  0  0  0
 75 84  1  0  0  0
 76147  1  0  0  0
 76148  1  0  0  0
 76149  1  0  0  0
 77150  1  0  0  0
 77151  1  0  0  0
 77152  1  0  0  0
 77 83  1  0  0  0
 78 85  1  0  0  0
 78153  1  0  0  0
 78154  1  0  0  0
 78155  1  0  0  0
 79 80  1  0  0  0
 79156  1  0  0  0
 79157  1  0  0  0
 80 82  1  0  0  0
 80158  1  0  0  0
 80159  1  0  0  0
 81 83  1  0  0  0
 81 85  1  0  0  0
 81160  1  0  0  0
 81161  1  0  0  0
 82162  1  0  0  0
 82163  1  0  0  0
 83164  1  0  0  0
M  ISO  4   1 100  68 101  82 101  85 100
M  END
> <chiral flag>
0

> <version>
0

> <s_m_source_file>
/data/baiqing/PycharmProjects/Reinvent-master-3.2/result/LINK_invent/BTK/process_docking_weight1_custom_sum_contain_oxygen_bond_distance_aromatic_linkinvent_7_9_3/rearranged_h_0075.sdf

> <i_m_source_file_index>
51

> <r_mmod_Potential_Energy-OPLS-2005>
-94.3400039672852

> <r_mmod_Stretch_Energy-OPLS-2005>
44.0866012573242

> <r_mmod_Bend_Energy-OPLS-2005>
104.414588928223

> <r_mmod_Torsional_Energy-OPLS-2005>
273.231567382812

> <r_mmod_Improper_Torsional_Energy-OPLS-2005>
6.22276878356934

> <r_mmod_Van_der_Waal_Energy-OPLS-2005>
157.106811523438

> <r_mmod_Electrostatic_Energy-OPLS-2005>
-490.684875488281

> <r_mmod_Solvation_Energy-OPLS-2005>
-200.41259765625

> <b_mmod_Minimization_Converged-OPLS-2005>
0

> <r_mmod_RMS_Derivative-OPLS-2005>
2.10543847084045

$$$$
52
                    3D
 Structure written by MMmdl.
166174  0  0  1  0            999 V2000
  -30.5364  -14.9694   20.4069 C   0  0  0  0  0  0
  -30.4383  -12.5978   19.5135 C   0  0  0  0  0  0
  -29.5250  -12.5311   18.2666 C   0  0  0  0  0  0
  -28.0582  -12.3147   18.6815 C   0  0  0  0  0  0
  -27.6298  -13.2514   19.8412 C   0  0  2  0  0  0
  -28.6688  -13.2918   20.9830 C   0  0  0  0  0  0
  -25.2461  -13.8225   20.5719 C   0  0  0  0  0  0
  -24.1778  -13.0444   20.9228 C   0  0  0  0  0  0
  -24.6398  -11.6931   20.8759 C   0  0  0  0  0  0
  -23.9086  -10.4298   21.0410 C   0  0  0  0  0  0
  -24.3632   -9.4211   21.9187 C   0  0  0  0  0  0
  -23.6303   -8.2248   22.0757 C   0  0  0  0  0  0
  -22.4285   -8.0287   21.3547 C   0  0  0  0  0  0
  -21.9924   -9.0263   20.4648 C   0  0  0  0  0  0
  -22.7257  -10.2139   20.3060 C   0  0  0  0  0  0
  -21.6854   -6.0742   22.5280 C   0  0  0  0  0  0
  -21.4015   -6.5645   23.8213 C   0  0  0  0  0  0
  -21.3659   -5.6796   24.9174 C   0  0  0  0  0  0
  -21.6043   -4.3059   24.7223 C   0  0  0  0  0  0
  -21.8819   -3.8152   23.4345 C   0  0  0  0  0  0
  -21.9193   -4.6971   22.3401 C   0  0  0  0  0  0
  -22.7798  -13.5213   21.1880 C   0  0  0  0  0  0
  -22.1662   -4.2157   21.0979 F   0  0  0  0  0  0
  -21.5627   -3.4542   25.7736 F   0  0  0  0  0  0
  -29.9465  -13.7039   20.3889 N   0  0  0  0  0  0
  -26.2888  -12.9463   20.3259 N   0  0  0  0  0  0
  -25.9331  -11.6589   20.5746 N   0  0  0  0  0  0
  -22.0448  -12.8201   22.0432 N   0  0  0  0  0  0
  -25.4128  -15.1954   20.4138 N   0  0  0  0  0  0
  -31.7294  -15.0299   20.0936 O   0  0  0  0  0  0
  -21.6643   -6.8889   21.4243 O   0  0  0  0  0  0
  -22.3484  -14.5516   20.6720 O   0  0  0  0  0  0
  -24.6460  -31.8415   23.1868 C   0  0  0  0  0  0
  -25.9224  -32.4679   23.8262 C   0  0  1  0  0  0
  -27.2131  -27.1089   20.1531 C   0  0  0  0  0  0
  -25.5962  -33.8485   24.2177 N   0  0  0  0  0  0
  -23.4503  -30.4603   21.5332 C   0  0  2  0  0  0
  -24.9002  -28.8851   20.1075 C   0  0  0  0  0  0
  -22.7582  -29.4526   22.4852 C   0  0  0  0  0  0
  -18.0304  -28.1389   22.8470 C   0  0  0  0  0  0
  -24.1491  -36.7248   23.2640 C   0  0  0  0  0  0
  -26.0086  -30.7053   21.3910 C   0  0  0  0  0  0
  -26.0780  -29.3150   20.7312 C   0  0  0  0  0  0
  -27.2341  -28.4429   20.7380 C   0  0  0  0  0  0
  -26.0131  -26.7943   19.4765 C   0  0  0  0  0  0
  -24.8825  -27.6395   19.4636 C   0  0  0  0  0  0
  -23.6776  -29.7900   20.1521 C   0  0  0  0  0  0
  -25.4125  -36.3016   24.0305 C   0  0  1  0  0  0
  -20.5919  -28.3719   23.1225 C   0  0  2  0  0  0
  -20.6787  -26.9417   22.5403 C   0  0  0  0  0  0
  -19.5761  -26.6372   21.5208 C   0  0  0  0  0  0
  -18.1941  -26.7928   22.1617 C   0  0  0  0  0  0
  -19.1562  -28.8874   23.2835 C   0  0  0  0  0  0
  -18.9480  -30.1472   23.8858 C   0  0  0  0  0  0
  -17.6475  -30.6583   24.0555 C   0  0  0  0  0  0
  -25.9079  -34.9392   23.5050 C   0  0  0  0  0  0
  -16.5365  -29.9076   23.6333 C   0  0  0  0  0  0
  -16.7291  -28.6495   23.0351 C   0  0  0  0  0  0
  -26.4537  -31.6559   25.0716 C   0  0  0  0  0  0
  -25.3709  -31.3759   26.1401 C   0  0  0  0  0  0
  -27.0414  -30.2943   24.6334 C   0  0  0  0  0  0
  -27.6054  -32.4344   25.7504 C   0  0  0  0  0  0
  -27.5574  -37.1777   24.8461 C   0  0  0  0  0  0
  -21.4273  -29.3040   22.3600 N   0  0  0  0  0  0
  -26.4285  -37.3734   23.9404 N   0  0  0  0  0  0
  -24.7215  -31.0248   22.0915 N   0  0  0  0  0  0
  -23.4217  -28.8077   23.3012 O   0  0  0  0  0  0
  -28.2478  -26.0976   20.2512 O   0  0  0  0  0  0
  -26.5668  -34.8891   22.4632 O   0  0  0  0  0  0
  -23.5572  -32.1312   23.7070 O   0  0  0  0  0  0
  -29.0658  -22.1833   18.1476 C   0  0  0  0  0  0
  -29.1928  -21.0526   17.3956 C   0  0  0  0  0  0
  -29.1955  -20.4279   19.5734 C   0  0  0  0  0  0
  -27.8727  -18.8029   21.0944 C   0  0  0  0  0  0
  -30.6482  -20.2467   15.5550 C   0  0  0  0  0  0
  -29.0894  -22.1746   15.1659 C   0  0  0  0  0  0
  -28.1561  -19.8691   15.4712 C   0  0  0  0  0  0
  -28.8096  -23.1469   20.4352 C   0  0  0  0  0  0
  -30.0146  -17.6577   20.0534 C   0  0  0  0  0  0
  -27.9903  -24.5775   19.9483 C   0  0  0  0  0  0
  -29.2784  -19.1197   20.5691 C   0  0  1  0  0  0
  -29.2717  -20.8362   15.9069 C   0  0  0  0  0  0
  -28.9858  -21.8606   19.4868 N   0  0  0  0  0  0
  -29.2593  -20.0344   18.2948 N   0  3  0  0  0  0
  -29.7663  -16.1646   20.5511 N   0  0  0  0  0  0
  -31.4737  -12.7487   19.2043 H   0  0  0  0  0  0
  -30.4278  -11.6494   20.0533 H   0  0  0  0  0  0
  -29.8489  -11.7292   17.6015 H   0  0  0  0  0  0
  -29.6127  -13.4578   17.6973 H   0  0  0  0  0  0
  -27.9568  -11.2745   18.9935 H   0  0  0  0  0  0
  -27.3966  -12.4417   17.8238 H   0  0  0  0  0  0
  -27.5906  -14.2510   19.4073 H   0  0  0  0  0  0
  -28.7570  -12.3206   21.4718 H   0  0  0  0  0  0
  -28.3634  -14.0006   21.7543 H   0  0  0  0  0  0
  -25.2775   -9.5685   22.4764 H   0  0  0  0  0  0
  -24.0008   -7.4640   22.7478 H   0  0  0  0  0  0
  -21.0855   -8.8788   19.8952 H   0  0  0  0  0  0
  -22.3720  -10.9682   19.6170 H   0  0  0  0  0  0
  -21.2008   -7.6153   23.9719 H   0  0  0  0  0  0
  -21.1478   -6.0525   25.9077 H   0  0  0  0  0  0
  -22.0597   -2.7616   23.2842 H   0  0  0  0  0  0
  -22.4073  -11.9865   22.4821 H   0  0  0  0  0  0
  -21.1062  -13.1216   22.2633 H   0  0  0  0  0  0
  -24.6418  -15.8447   20.5237 H   0  0  0  0  0  0
  -26.2511  -15.6345   20.0573 H   0  0  0  0  0  0
  -26.7290  -32.5276   23.0988 H   0  0  0  0  0  0
  -25.0079  -33.9597   25.0302 H   0  0  0  0  0  0
  -22.7532  -31.2866   21.3786 H   0  0  0  0  0  0
  -23.3753  -35.9579   23.3286 H   0  0  0  0  0  0
  -24.3580  -36.8910   22.2060 H   0  0  0  0  0  0
  -23.7248  -37.6435   23.6701 H   0  0  0  0  0  0
  -26.1691  -31.4582   20.6184 H   0  0  0  0  0  0
  -26.8766  -30.7550   22.0367 H   0  0  0  0  0  0
  -28.1281  -28.7640   21.2539 H   0  0  0  0  0  0
  -25.9079  -25.8465   18.9705 H   0  0  0  0  0  0
  -23.9852  -27.3070   18.9600 H   0  0  0  0  0  0
  -23.8157  -30.5649   19.3972 H   0  0  0  0  0  0
  -22.7918  -29.2337   19.8408 H   0  0  0  0  0  0
  -25.1313  -36.1838   25.0796 H   0  0  0  0  0  0
  -21.0005  -28.3310   24.1349 H   0  0  0  0  0  0
  -20.5672  -26.2330   23.3625 H   0  0  0  0  0  0
  -21.6653  -26.7415   22.1203 H   0  0  0  0  0  0
  -19.6917  -25.6275   21.1254 H   0  0  0  0  0  0
  -19.6698  -27.3165   20.6722 H   0  0  0  0  0  0
  -17.4212  -26.6667   21.4019 H   0  0  0  0  0  0
  -18.0340  -26.0075   22.9019 H   0  0  0  0  0  0
  -19.7957  -30.7292   24.2211 H   0  0  0  0  0  0
  -17.5029  -31.6261   24.5162 H   0  0  0  0  0  0
  -15.5364  -30.2962   23.7679 H   0  0  0  0  0  0
  -15.8692  -28.0804   22.7079 H   0  0  0  0  0  0
  -24.5896  -30.7100   25.7723 H   0  0  0  0  0  0
  -24.8886  -32.2943   26.4754 H   0  0  0  0  0  0
  -25.7978  -30.8981   27.0227 H   0  0  0  0  0  0
  -26.3044  -29.6652   24.1331 H   0  0  0  0  0  0
  -27.3990  -29.7263   25.4933 H   0  0  0  0  0  0
  -27.8967  -30.4159   23.9686 H   0  0  0  0  0  0
  -27.2633  -33.3669   26.2005 H   0  0  0  0  0  0
  -28.3904  -32.6874   25.0365 H   0  0  0  0  0  0
  -28.0682  -31.8527   26.5489 H   0  0  0  0  0  0
  -28.2569  -38.0095   24.7519 H   0  0  0  0  0  0
  -28.1096  -36.2621   24.6279 H   0  0  0  0  0  0
  -27.2292  -37.1411   25.8864 H   0  0  0  0  0  0
  -20.9492  -29.8772   21.6790 H   0  0  0  0  0  0
  -26.0143  -38.2794   24.1427 H   0  0  0  0  0  0
  -29.0201  -23.1975   17.7854 H   0  0  0  0  0  0
  -27.4237  -19.6788   21.5634 H   0  0  0  0  0  0
  -27.8998  -18.0099   21.8419 H   0  0  0  0  0  0
  -27.2125  -18.4817   20.2885 H   0  0  0  0  0  0
  -31.4542  -20.9107   15.8689 H   0  0  0  0  0  0
  -30.7484  -20.0960   14.4799 H   0  0  0  0  0  0
  -30.8134  -19.2815   16.0340 H   0  0  0  0  0  0
  -29.8668  -22.8915   15.4320 H   0  0  0  0  0  0
  -28.1247  -22.6295   15.3945 H   0  0  0  0  0  0
  -29.1337  -22.0364   14.0851 H   0  0  0  0  0  0
  -28.2527  -18.8904   15.9413 H   0  0  0  0  0  0
  -28.1728  -19.7093   14.3927 H   0  0  0  0  0  0
  -27.1710  -20.2614   15.7269 H   0  0  0  0  0  0
  -28.3734  -22.7892   21.3677 H   0  0  0  0  0  0
  -29.8275  -23.4382   20.6932 H   0  0  0  0  0  0
  -31.0931  -17.8199   20.0724 H   0  0  0  0  0  0
  -29.7843  -17.5633   18.9932 H   0  0  0  0  0  0
  -26.9685  -24.3918   20.2789 H   0  0  0  0  0  0
  -27.9086  -24.5658   18.8654 H   0  0  0  0  0  0
  -29.8589  -19.4814   21.4187 H   0  0  0  0  0  0
  -29.3566  -19.0645   18.0243 H   0  0  0  0  0  0
  -28.8193  -15.9866   20.8508 H   0  0  0  0  0  0
  1 25  1  0  0  0
  1 30  2  0  0  0
  1 85  1  0  0  0
  2  3  1  0  0  0
  2 25  1  0  0  0
  2 86  1  0  0  0
  2 87  1  0  0  0
  3  4  1  0  0  0
  3 88  1  0  0  0
  3 89  1  0  0  0
  4  5  1  0  0  0
  4 90  1  0  0  0
  4 91  1  0  0  0
  5  6  1  0  0  0
  5 26  1  0  0  0
  5 92  1  0  0  0
  6 25  1  0  0  0
  6 93  1  0  0  0
  6 94  1  0  0  0
  7  8  2  0  0  0
  7 26  1  0  0  0
  7 29  1  0  0  0
  8  9  1  0  0  0
  8 22  1  0  0  0
  9 10  1  0  0  0
  9 27  2  0  0  0
 10 11  2  0  0  0
 10 15  1  0  0  0
 11 12  1  0  0  0
 11 95  1  0  0  0
 12 13  2  0  0  0
 12 96  1  0  0  0
 13 14  1  0  0  0
 13 31  1  0  0  0
 14 15  2  0  0  0
 14 97  1  0  0  0
 15 98  1  0  0  0
 16 17  2  0  0  0
 16 21  1  0  0  0
 16 31  1  0  0  0
 17 18  1  0  0  0
 17 99  1  0  0  0
 18 19  2  0  0  0
 18100  1  0  0  0
 19 20  1  0  0  0
 19 24  1  0  0  0
 20 21  2  0  0  0
 20101  1  0  0  0
 21 23  1  0  0  0
 22 28  1  0  0  0
 22 32  2  0  0  0
 26 27  1  0  0  0
 28102  1  0  0  0
 28103  1  0  0  0
 29104  1  0  0  0
 29105  1  0  0  0
 33 34  1  0  0  0
 33 66  1  0  0  0
 33 70  2  0  0  0
 34 36  1  0  0  0
 34 59  1  0  0  0
 34106  1  0  0  0
 35 44  2  0  0  0
 35 45  1  0  0  0
 35 68  1  0  0  0
 36 56  1  0  0  0
 36107  1  0  0  0
 37 39  1  0  0  0
 37 47  1  0  0  0
 37 66  1  0  0  0
 37108  1  0  0  0
 38 43  2  0  0  0
 38 46  1  0  0  0
 38 47  1  0  0  0
 39 64  1  0  0  0
 39 67  2  0  0  0
 40 52  1  0  0  0
 40 53  2  0  0  0
 40 58  1  0  0  0
 41109  1  0  0  0
 41110  1  0  0  0
 41111  1  0  0  0
 41 48  1  0  0  0
 42 43  1  0  0  0
 42 66  1  0  0  0
 42112  1  0  0  0
 42113  1  0  0  0
 43 44  1  0  0  0
 44114  1  0  0  0
 45 46  2  0  0  0
 45115  1  0  0  0
 46116  1  0  0  0
 47117  1  0  0  0
 47118  1  0  0  0
 48 56  1  0  0  0
 48 65  1  0  0  0
 48119  1  0  0  0
 49 50  1  0  0  0
 49 53  1  0  0  0
 49 64  1  0  0  0
 49120  1  0  0  0
 50 51  1  0  0  0
 50121  1  0  0  0
 50122  1  0  0  0
 51 52  1  0  0  0
 51123  1  0  0  0
 51124  1  0  0  0
 52125  1  0  0  0
 52126  1  0  0  0
 53 54  1  0  0  0
 54 55  2  0  0  0
 54127  1  0  0  0
 55 57  1  0  0  0
 55128  1  0  0  0
 56 69  2  0  0  0
 57 58  2  0  0  0
 57129  1  0  0  0
 58130  1  0  0  0
 59 60  1  0  0  0
 59 61  1  0  0  0
 59 62  1  0  0  0
 60131  1  0  0  0
 60132  1  0  0  0
 60133  1  0  0  0
 61134  1  0  0  0
 61135  1  0  0  0
 61136  1  0  0  0
 62137  1  0  0  0
 62138  1  0  0  0
 62139  1  0  0  0
 63 65  1  0  0  0
 63140  1  0  0  0
 63141  1  0  0  0
 63142  1  0  0  0
 64143  1  0  0  0
 65144  1  0  0  0
 68 80  1  0  0  0
 71 72  2  0  0  0
 71 83  1  0  0  0
 71145  1  0  0  0
 72 82  1  0  0  0
 72 84  1  0  0  0
 73 81  1  0  0  0
 73 83  1  0  0  0
 73 84  2  0  0  0
 74146  1  0  0  0
 74147  1  0  0  0
 74148  1  0  0  0
 74 81  1  0  0  0
 75149  1  0  0  0
 75150  1  0  0  0
 75151  1  0  0  0
 75 82  1  0  0  0
 76 82  1  0  0  0
 76152  1  0  0  0
 76153  1  0  0  0
 76154  1  0  0  0
 77 82  1  0  0  0
 77155  1  0  0  0
 77156  1  0  0  0
 77157  1  0  0  0
 78 80  1  0  0  0
 78 83  1  0  0  0
 78158  1  0  0  0
 78159  1  0  0  0
 79 81  1  0  0  0
 79 85  1  0  0  0
 79160  1  0  0  0
 79161  1  0  0  0
 80162  1  0  0  0
 80163  1  0  0  0
 81164  1  0  0  0
 84165  1  0  0  0
 85166  1  0  0  0
M  CHG  1  84   1
M  ISO  4   1 100  68 101  80 101  85 100
M  END
> <chiral flag>
0

> <version>
0

> <s_m_source_file>
/data/baiqing/PycharmProjects/Reinvent-master-3.2/result/LINK_invent/BTK/process_docking_weight1_custom_sum_contain_oxygen_bond_distance_aromatic_linkinvent_7_9_3/rearranged_h_0075.sdf

> <i_m_source_file_index>
52

> <r_mmod_Potential_Energy-OPLS-2005>
555.987548828125

> <r_mmod_Stretch_Energy-OPLS-2005>
316.513427734375

> <r_mmod_Bend_Energy-OPLS-2005>
342.26416015625

> <r_mmod_Torsional_Energy-OPLS-2005>
253.059371948242

> <r_mmod_Improper_Torsional_Energy-OPLS-2005>
6.03426694869995

> <r_mmod_Van_der_Waal_Energy-OPLS-2005>
114.047805786133

> <r_mmod_Electrostatic_Energy-OPLS-2005>
-270.551971435547

> <r_mmod_Solvation_Energy-OPLS-2005>
-420.15771484375

> <b_mmod_Minimization_Converged-OPLS-2005>
0

> <r_mmod_RMS_Derivative-OPLS-2005>
0.625327587127686

$$$$
53
                    3D
 Structure written by MMmdl.
177185  0  0  1  0            999 V2000
  -30.7494  -14.6445   20.2588 C   0  0  0  0  0  0
  -30.4315  -12.3585   19.4409 C   0  0  0  0  0  0
  -29.4906  -12.3723   18.2214 C   0  0  0  0  0  0
  -28.0075  -12.3210   18.6488 C   0  0  0  0  0  0
  -27.6333  -13.1906   19.8884 C   0  0  2  0  0  0
  -28.7373  -13.1919   20.9665 C   0  0  0  0  0  0
  -25.2486  -13.7986   20.5911 C   0  0  0  0  0  0
  -24.1764  -13.0307   20.9328 C   0  0  0  0  0  0
  -24.6341  -11.6766   20.8896 C   0  0  0  0  0  0
  -23.9050  -10.4207   21.0492 C   0  0  0  0  0  0
  -24.3617   -9.4117   21.9243 C   0  0  0  0  0  0
  -23.6310   -8.2147   22.0730 C   0  0  0  0  0  0
  -22.4280   -8.0234   21.3518 C   0  0  0  0  0  0
  -21.9933   -9.0236   20.4609 C   0  0  0  0  0  0
  -22.7248  -10.2106   20.3077 C   0  0  0  0  0  0
  -21.6819   -6.0744   22.5303 C   0  0  0  0  0  0
  -21.3991   -6.5658   23.8232 C   0  0  0  0  0  0
  -21.3660   -5.6788   24.9202 C   0  0  0  0  0  0
  -21.6068   -4.3069   24.7212 C   0  0  0  0  0  0
  -21.8809   -3.8161   23.4321 C   0  0  0  0  0  0
  -21.9175   -4.6994   22.3392 C   0  0  0  0  0  0
  -22.7772  -13.5108   21.1914 C   0  0  0  0  0  0
  -22.1666   -4.2204   21.0958 F   0  0  0  0  0  0
  -21.5641   -3.4537   25.7712 F   0  0  0  0  0  0
  -30.0381  -13.4676   20.3187 N   0  0  0  0  0  0
  -26.2955  -12.9101   20.3769 N   0  0  0  0  0  0
  -25.9293  -11.6295   20.6104 N   0  0  0  0  0  0
  -22.0375  -12.8199   22.0495 N   0  0  0  0  0  0
  -25.4048  -15.1755   20.4199 N   0  0  0  0  0  0
  -31.9747  -14.5999   20.2510 O   0  0  0  0  0  0
  -21.6607   -6.8874   21.4237 O   0  0  0  0  0  0
  -22.3486  -14.5407   20.6693 O   0  0  0  0  0  0
  -24.6112  -31.8704   23.2088 C   0  0  0  0  0  0
  -25.9044  -32.4809   23.8345 C   0  0  1  0  0  0
  -27.2438  -27.4702   20.1200 C   0  0  0  0  0  0
  -25.5932  -33.8602   24.2310 N   0  0  0  0  0  0
  -23.3928  -30.5016   21.5389 C   0  0  2  0  0  0
  -24.8477  -28.9619   20.1085 C   0  0  0  0  0  0
  -22.7342  -29.4767   22.4897 C   0  0  0  0  0  0
  -18.0301  -28.1389   22.8528 C   0  0  0  0  0  0
  -24.1479  -36.7293   23.2625 C   0  0  0  0  0  0
  -25.9133  -30.8603   21.3427 C   0  0  0  0  0  0
  -26.0000  -29.4910   20.7050 C   0  0  0  0  0  0
  -27.2041  -28.7586   20.7036 C   0  0  0  0  0  0
  -26.0819  -26.9439   19.5298 C   0  0  0  0  0  0
  -24.8861  -27.6877   19.5083 C   0  0  0  0  0  0
  -23.6006  -29.8214   20.1530 C   0  0  0  0  0  0
  -25.4087  -36.3077   24.0331 C   0  0  1  0  0  0
  -20.5876  -28.3685   23.1280 C   0  0  2  0  0  0
  -20.6761  -26.9420   22.5400 C   0  0  0  0  0  0
  -19.5730  -26.6420   21.5189 C   0  0  0  0  0  0
  -18.1921  -26.7951   22.1628 C   0  0  0  0  0  0
  -19.1547  -28.8849   23.2935 C   0  0  0  0  0  0
  -18.9492  -30.1466   23.8941 C   0  0  0  0  0  0
  -17.6491  -30.6597   24.0588 C   0  0  0  0  0  0
  -25.9044  -34.9462   23.5112 C   0  0  0  0  0  0
  -16.5379  -29.9116   23.6326 C   0  0  0  0  0  0
  -16.7289  -28.6519   23.0366 C   0  0  0  0  0  0
  -26.4488  -31.6569   25.0646 C   0  0  0  0  0  0
  -25.3777  -31.3699   26.1397 C   0  0  0  0  0  0
  -27.0302  -30.3015   24.5977 C   0  0  0  0  0  0
  -27.6063  -32.4261   25.7435 C   0  0  0  0  0  0
  -27.5573  -37.1792   24.8469 C   0  0  0  0  0  0
  -21.4085  -29.3082   22.3650 N   0  0  0  0  0  0
  -26.4266  -37.3778   23.9444 N   0  0  0  0  0  0
  -24.6573  -31.0902   22.0901 N   0  0  0  0  0  0
  -23.4122  -28.8317   23.2942 O   0  0  0  0  0  0
  -28.4132  -26.7550   20.0741 O   0  0  0  0  0  0
  -26.5588  -34.8950   22.4664 O   0  0  0  0  0  0
  -23.5363  -32.1409   23.7607 O   0  0  0  0  0  0
  -33.4307  -17.9050   20.2468 C   0  0  0  0  0  0
  -34.2227  -19.0135   20.5922 C   0  0  0  0  0  0
  -33.5736  -20.2029   20.9971 C   0  0  0  0  0  0
  -32.0288  -18.0109   20.2531 C   0  0  0  0  0  0
  -32.1577  -20.1793   21.1645 C   0  0  0  0  0  0
  -35.7379  -18.8949   20.4497 C   0  0  0  0  0  0
  -34.3835  -21.4725   21.2321 C   0  0  0  0  0  0
  -30.6675  -18.1631   18.2158 C   0  0  0  0  0  0
  -31.9778  -21.8925   23.1087 C   0  0  0  0  0  0
  -29.3103  -16.6608   20.9447 C   0  0  0  0  0  0
  -29.2784  -15.8335   18.4966 C   0  0  0  0  0  0
  -29.8541  -23.4597   21.3859 C   0  0  0  0  0  0
  -29.3786  -24.5485   20.3808 C   0  0  0  0  0  0
  -30.8878  -22.4437   20.8021 C   0  0  0  0  0  0
  -28.5033  -25.6675   20.9991 C   0  0  0  0  0  0
  -31.2171  -17.1311   19.2726 C   0  0  2  0  0  0
  -31.3485  -21.3384   21.8038 C   0  0  1  0  0  0
  -30.1324  -16.0442   19.7897 C   0  0  0  0  0  0
  -31.4172  -19.1042   20.7835 N   0  0  0  0  0  0
  -31.4722  -12.4306   19.1144 H   0  0  0  0  0  0
  -30.3616  -11.4257   19.9959 H   0  0  0  0  0  0
  -29.6997  -11.4975   17.6037 H   0  0  0  0  0  0
  -29.7053  -13.2185   17.5702 H   0  0  0  0  0  0
  -27.8029  -11.2728   18.8736 H   0  0  0  0  0  0
  -27.3676  -12.5777   17.8024 H   0  0  0  0  0  0
  -27.5181  -14.2116   19.5911 H   0  0  0  0  0  0
  -28.7629  -12.2318   21.4807 H   0  0  0  0  0  0
  -28.5231  -13.9315   21.7397 H   0  0  0  0  0  0
  -25.2697   -9.5664   22.4919 H   0  0  0  0  0  0
  -24.0016   -7.4535   22.7438 H   0  0  0  0  0  0
  -21.0864   -8.8794   19.8912 H   0  0  0  0  0  0
  -22.3691  -10.9739   19.6294 H   0  0  0  0  0  0
  -21.1983   -7.6155   23.9787 H   0  0  0  0  0  0
  -21.1517   -6.0493   25.9123 H   0  0  0  0  0  0
  -22.0582   -2.7625   23.2789 H   0  0  0  0  0  0
  -22.3892  -11.9932   22.5119 H   0  0  0  0  0  0
  -21.1044  -13.1400   22.2688 H   0  0  0  0  0  0
  -24.6288  -15.8182   20.5284 H   0  0  0  0  0  0
  -26.2593  -15.6257   20.1193 H   0  0  0  0  0  0
  -26.7109  -32.5569   23.1125 H   0  0  0  0  0  0
  -25.0116  -33.9680   25.0471 H   0  0  0  0  0  0
  -22.6812  -31.3227   21.3996 H   0  0  0  0  0  0
  -23.3724  -35.9651   23.3289 H   0  0  0  0  0  0
  -24.3597  -36.8896   22.2044 H   0  0  0  0  0  0
  -23.7248  -37.6505   23.6639 H   0  0  0  0  0  0
  -26.0070  -31.6204   20.5659 H   0  0  0  0  0  0
  -26.8071  -30.9295   21.9505 H   0  0  0  0  0  0
  -28.0955  -29.1822   21.1464 H   0  0  0  0  0  0
  -26.1159  -25.9646   19.0766 H   0  0  0  0  0  0
  -24.0106  -27.2760   19.0271 H   0  0  0  0  0  0
  -23.6961  -30.5931   19.3854 H   0  0  0  0  0  0
  -22.7269  -29.2340   19.8595 H   0  0  0  0  0  0
  -25.1278  -36.1906   25.0823 H   0  0  0  0  0  0
  -21.0082  -28.3323   24.1355 H   0  0  0  0  0  0
  -20.5632  -26.2326   23.3606 H   0  0  0  0  0  0
  -21.6631  -26.7461   22.1220 H   0  0  0  0  0  0
  -19.6874  -25.6340   21.1208 H   0  0  0  0  0  0
  -19.6652  -27.3229   20.6712 H   0  0  0  0  0  0
  -17.4196  -26.6760   21.4038 H   0  0  0  0  0  0
  -18.0368  -26.0050   22.8987 H   0  0  0  0  0  0
  -19.7959  -30.7309   24.2291 H   0  0  0  0  0  0
  -17.5031  -31.6257   24.5227 H   0  0  0  0  0  0
  -15.5382  -30.3037   23.7594 H   0  0  0  0  0  0
  -15.8689  -28.0843   22.7048 H   0  0  0  0  0  0
  -24.5986  -30.6970   25.7795 H   0  0  0  0  0  0
  -24.8905  -32.2864   26.4740 H   0  0  0  0  0  0
  -25.8160  -30.8986   27.0192 H   0  0  0  0  0  0
  -26.2806  -29.6755   24.1096 H   0  0  0  0  0  0
  -27.4158  -29.7279   25.4418 H   0  0  0  0  0  0
  -27.8622  -30.4327   23.9040 H   0  0  0  0  0  0
  -27.2659  -33.3561   26.1998 H   0  0  0  0  0  0
  -28.3911  -32.6772   25.0292 H   0  0  0  0  0  0
  -28.0631  -31.8324   26.5354 H   0  0  0  0  0  0
  -28.2597  -38.0082   24.7540 H   0  0  0  0  0  0
  -28.1063  -36.2630   24.6261 H   0  0  0  0  0  0
  -27.2316  -37.1407   25.8874 H   0  0  0  0  0  0
  -20.9189  -29.8780   21.6880 H   0  0  0  0  0  0
  -26.0137  -38.2857   24.1450 H   0  0  0  0  0  0
  -33.9020  -17.0239   19.8378 H   0  0  0  0  0  0
  -36.0590  -17.9290   20.8328 H   0  0  0  0  0  0
  -36.2835  -19.6423   21.0239 H   0  0  0  0  0  0
  -36.0622  -18.9482   19.4064 H   0  0  0  0  0  0
  -34.6303  -21.5739   22.2886 H   0  0  0  0  0  0
  -33.8460  -22.3632   20.9032 H   0  0  0  0  0  0
  -35.3184  -21.4867   20.6750 H   0  0  0  0  0  0
  -29.7737  -18.6317   18.6252 H   0  0  0  0  0  0
  -30.4163  -17.7579   17.2323 H   0  0  0  0  0  0
  -31.3815  -18.9634   18.0023 H   0  0  0  0  0  0
  -32.7290  -22.6614   22.9215 H   0  0  0  0  0  0
  -32.4555  -21.0945   23.6809 H   0  0  0  0  0  0
  -31.2246  -22.3454   23.7551 H   0  0  0  0  0  0
  -28.9147  -17.6297   20.6468 H   0  0  0  0  0  0
  -29.9437  -16.8427   21.8152 H   0  0  0  0  0  0
  -28.4700  -16.0527   21.2695 H   0  0  0  0  0  0
  -28.5271  -16.6110   18.3466 H   0  0  0  0  0  0
  -28.7689  -14.9117   18.3579 H   0  0  0  0  0  0
  -29.9158  -15.7871   17.6155 H   0  0  0  0  0  0
  -28.9780  -22.9237   21.7642 H   0  0  0  0  0  0
  -30.2928  -23.9469   22.2607 H   0  0  0  0  0  0
  -30.2486  -25.0149   19.9177 H   0  0  0  0  0  0
  -28.8197  -24.0802   19.5667 H   0  0  0  0  0  0
  -31.7552  -22.9690   20.3909 H   0  0  0  0  0  0
  -30.4184  -21.9457   19.9506 H   0  0  0  0  0  0
  -27.5258  -25.2698   21.2847 H   0  0  0  0  0  0
  -28.9653  -26.0551   21.9098 H   0  0  0  0  0  0
  -31.9613  -16.5616   18.7143 H   0  0  0  0  0  0
  -30.4268  -20.8717   22.1438 H   0  0  0  0  0  0
  1 25  1  0  0  0
  1 30  2  0  0  0
  1 88  1  0  0  0
  2  3  1  0  0  0
  2 25  1  0  0  0
  2 90  1  0  0  0
  2 91  1  0  0  0
  3  4  1  0  0  0
  3 92  1  0  0  0
  3 93  1  0  0  0
  4  5  1  0  0  0
  4 94  1  0  0  0
  4 95  1  0  0  0
  5  6  1  0  0  0
  5 26  1  0  0  0
  5 96  1  0  0  0
  6 25  1  0  0  0
  6 97  1  0  0  0
  6 98  1  0  0  0
  7  8  2  0  0  0
  7 26  1  0  0  0
  7 29  1  0  0  0
  8  9  1  0  0  0
  8 22  1  0  0  0
  9 10  1  0  0  0
  9 27  2  0  0  0
 10 11  2  0  0  0
 10 15  1  0  0  0
 11 12  1  0  0  0
 11 99  1  0  0  0
 12 13  2  0  0  0
 12100  1  0  0  0
 13 14  1  0  0  0
 13 31  1  0  0  0
 14 15  2  0  0  0
 14101  1  0  0  0
 15102  1  0  0  0
 16 17  2  0  0  0
 16 21  1  0  0  0
 16 31  1  0  0  0
 17 18  1  0  0  0
 17103  1  0  0  0
 18 19  2  0  0  0
 18104  1  0  0  0
 19 20  1  0  0  0
 19 24  1  0  0  0
 20 21  2  0  0  0
 20105  1  0  0  0
 21 23  1  0  0  0
 22 28  1  0  0  0
 22 32  2  0  0  0
 26 27  1  0  0  0
 28106  1  0  0  0
 28107  1  0  0  0
 29108  1  0  0  0
 29109  1  0  0  0
 33 34  1  0  0  0
 33 66  1  0  0  0
 33 70  2  0  0  0
 34 36  1  0  0  0
 34 59  1  0  0  0
 34110  1  0  0  0
 35 44  2  0  0  0
 35 45  1  0  0  0
 35 68  1  0  0  0
 36 56  1  0  0  0
 36111  1  0  0  0
 37 39  1  0  0  0
 37 47  1  0  0  0
 37 66  1  0  0  0
 37112  1  0  0  0
 38 43  2  0  0  0
 38 46  1  0  0  0
 38 47  1  0  0  0
 39 64  1  0  0  0
 39 67  2  0  0  0
 40 52  1  0  0  0
 40 53  2  0  0  0
 40 58  1  0  0  0
 41113  1  0  0  0
 41114  1  0  0  0
 41115  1  0  0  0
 41 48  1  0  0  0
 42 43  1  0  0  0
 42 66  1  0  0  0
 42116  1  0  0  0
 42117  1  0  0  0
 43 44  1  0  0  0
 44118  1  0  0  0
 45 46  2  0  0  0
 45119  1  0  0  0
 46120  1  0  0  0
 47121  1  0  0  0
 47122  1  0  0  0
 48 56  1  0  0  0
 48 65  1  0  0  0
 48123  1  0  0  0
 49 50  1  0  0  0
 49 53  1  0  0  0
 49 64  1  0  0  0
 49124  1  0  0  0
 50 51  1  0  0  0
 50125  1  0  0  0
 50126  1  0  0  0
 51 52  1  0  0  0
 51127  1  0  0  0
 51128  1  0  0  0
 52129  1  0  0  0
 52130  1  0  0  0
 53 54  1  0  0  0
 54 55  2  0  0  0
 54131  1  0  0  0
 55 57  1  0  0  0
 55132  1  0  0  0
 56 69  2  0  0  0
 57 58  2  0  0  0
 57133  1  0  0  0
 58134  1  0  0  0
 59 60  1  0  0  0
 59 61  1  0  0  0
 59 62  1  0  0  0
 60135  1  0  0  0
 60136  1  0  0  0
 60137  1  0  0  0
 61138  1  0  0  0
 61139  1  0  0  0
 61140  1  0  0  0
 62141  1  0  0  0
 62142  1  0  0  0
 62143  1  0  0  0
 63 65  1  0  0  0
 63144  1  0  0  0
 63145  1  0  0  0
 63146  1  0  0  0
 64147  1  0  0  0
 65148  1  0  0  0
 68 85  1  0  0  0
 71 72  2  0  0  0
 71 74  1  0  0  0
 71149  1  0  0  0
 72 73  1  0  0  0
 72 76  1  0  0  0
 73 75  2  0  0  0
 73 77  1  0  0  0
 74 86  1  0  0  0
 74 89  2  0  0  0
 75 87  1  0  0  0
 75 89  1  0  0  0
 76150  1  0  0  0
 76151  1  0  0  0
 76152  1  0  0  0
 77153  1  0  0  0
 77154  1  0  0  0
 77155  1  0  0  0
 78156  1  0  0  0
 78157  1  0  0  0
 78158  1  0  0  0
 78 86  1  0  0  0
 79159  1  0  0  0
 79160  1  0  0  0
 79161  1  0  0  0
 79 87  1  0  0  0
 80162  1  0  0  0
 80163  1  0  0  0
 80164  1  0  0  0
 80 88  1  0  0  0
 81 88  1  0  0  0
 81165  1  0  0  0
 81166  1  0  0  0
 81167  1  0  0  0
 82 83  1  0  0  0
 82 84  1  0  0  0
 82168  1  0  0  0
 82169  1  0  0  0
 83 85  1  0  0  0
 83170  1  0  0  0
 83171  1  0  0  0
 84 87  1  0  0  0
 84172  1  0  0  0
 84173  1  0  0  0
 85174  1  0  0  0
 85175  1  0  0  0
 86 88  1  0  0  0
 86176  1  0  0  0
 87177  1  0  0  0
M  ISO  4   1 100  68 101  85 101  88 100
M  END
> <chiral flag>
0

> <version>
0

> <s_m_source_file>
/data/baiqing/PycharmProjects/Reinvent-master-3.2/result/LINK_invent/BTK/process_docking_weight1_custom_sum_contain_oxygen_bond_distance_aromatic_linkinvent_7_9_3/rearranged_h_0075.sdf

> <i_m_source_file_index>
53

> <r_mmod_Potential_Energy-OPLS-2005>
90.6431503295898

> <r_mmod_Stretch_Energy-OPLS-2005>
68.1973190307617

> <r_mmod_Bend_Energy-OPLS-2005>
160.178070068359

> <r_mmod_Torsional_Energy-OPLS-2005>
285.775665283203

> <r_mmod_Improper_Torsional_Energy-OPLS-2005>
13.576057434082

> <r_mmod_Van_der_Waal_Energy-OPLS-2005>
192.915832519531

> <r_mmod_Electrostatic_Energy-OPLS-2005>
-502.221740722656

> <r_mmod_Solvation_Energy-OPLS-2005>
-187.118453979492

> <b_mmod_Minimization_Converged-OPLS-2005>
0

> <r_mmod_RMS_Derivative-OPLS-2005>
8.72222805023193

$$$$
54
                    3D
 Structure written by MMmdl.
156164  0  0  1  0            999 V2000
  -30.6245  -14.7446   20.4266 C   0  0  0  0  0  0
  -30.4248  -12.4507   19.4749 C   0  0  0  0  0  0
  -29.5071  -12.4994   18.2345 C   0  0  0  0  0  0
  -28.0333  -12.3262   18.6496 C   0  0  0  0  0  0
  -27.6367  -13.2363   19.8436 C   0  0  2  0  0  0
  -28.6817  -13.1941   20.9796 C   0  0  0  0  0  0
  -25.2487  -13.8211   20.5696 C   0  0  0  0  0  0
  -24.1786  -13.0447   20.9211 C   0  0  0  0  0  0
  -24.6388  -11.6927   20.8752 C   0  0  0  0  0  0
  -23.9073  -10.4296   21.0407 C   0  0  0  0  0  0
  -24.3624   -9.4209   21.9185 C   0  0  0  0  0  0
  -23.6294   -8.2246   22.0755 C   0  0  0  0  0  0
  -22.4275   -8.0284   21.3547 C   0  0  0  0  0  0
  -21.9914   -9.0261   20.4649 C   0  0  0  0  0  0
  -22.7246  -10.2138   20.3056 C   0  0  0  0  0  0
  -21.6855   -6.0733   22.5279 C   0  0  0  0  0  0
  -21.4016   -6.5638   23.8211 C   0  0  0  0  0  0
  -21.3661   -5.6792   24.9176 C   0  0  0  0  0  0
  -21.6042   -4.3054   24.7225 C   0  0  0  0  0  0
  -21.8819   -3.8144   23.4348 C   0  0  0  0  0  0
  -21.9193   -4.6961   22.3401 C   0  0  0  0  0  0
  -22.7808  -13.5223   21.1870 C   0  0  0  0  0  0
  -22.1659   -4.2146   21.0979 F   0  0  0  0  0  0
  -21.5631   -3.4537   25.7738 F   0  0  0  0  0  0
  -29.9809  -13.5289   20.3882 N   0  0  0  0  0  0
  -26.2911  -12.9430   20.3259 N   0  0  0  0  0  0
  -25.9317  -11.6567   20.5749 N   0  0  0  0  0  0
  -22.0455  -12.8214   22.0428 N   0  0  0  0  0  0
  -25.4166  -15.1937   20.4125 N   0  0  0  0  0  0
  -31.8324  -14.7925   20.1810 O   0  0  0  0  0  0
  -21.6641   -6.8880   21.4240 O   0  0  0  0  0  0
  -22.3489  -14.5528   20.6718 O   0  0  0  0  0  0
  -24.6312  -31.8546   23.1971 C   0  0  0  0  0  0
  -25.9136  -32.4753   23.8318 C   0  0  1  0  0  0
  -27.2191  -27.2643   20.1387 C   0  0  0  0  0  0
  -25.5931  -33.8553   24.2248 N   0  0  0  0  0  0
  -23.4276  -30.4757   21.5400 C   0  0  2  0  0  0
  -24.8758  -28.9158   20.1145 C   0  0  0  0  0  0
  -22.7494  -29.4607   22.4917 C   0  0  0  0  0  0
  -18.0292  -28.1381   22.8480 C   0  0  0  0  0  0
  -24.1489  -36.7283   23.2640 C   0  0  0  0  0  0
  -25.9722  -30.7698   21.3740 C   0  0  0  0  0  0
  -26.0472  -29.3903   20.7200 C   0  0  0  0  0  0
  -27.2263  -28.5785   20.7154 C   0  0  0  0  0  0
  -26.0285  -26.8490   19.5109 C   0  0  0  0  0  0
  -24.8705  -27.6532   19.4986 C   0  0  0  0  0  0
  -23.6467  -29.8045   20.1580 C   0  0  0  0  0  0
  -25.4113  -36.3067   24.0326 C   0  0  1  0  0  0
  -20.5892  -28.3697   23.1270 C   0  0  2  0  0  0
  -20.6785  -26.9414   22.5408 C   0  0  0  0  0  0
  -19.5761  -26.6380   21.5211 C   0  0  0  0  0  0
  -18.1942  -26.7923   22.1622 C   0  0  0  0  0  0
  -19.1543  -28.8856   23.2870 C   0  0  0  0  0  0
  -18.9465  -30.1457   23.8887 C   0  0  0  0  0  0
  -17.6463  -30.6582   24.0559 C   0  0  0  0  0  0
  -25.9054  -34.9438   23.5093 C   0  0  0  0  0  0
  -16.5354  -29.9078   23.6325 C   0  0  0  0  0  0
  -16.7278  -28.6498   23.0347 C   0  0  0  0  0  0
  -26.4504  -31.6577   25.0707 C   0  0  0  0  0  0
  -25.3726  -31.3731   26.1429 C   0  0  0  0  0  0
  -27.0353  -30.2993   24.6188 C   0  0  0  0  0  0
  -27.6051  -32.4321   25.7487 C   0  0  0  0  0  0
  -27.5576  -37.1797   24.8464 C   0  0  0  0  0  0
  -21.4202  -29.3048   22.3664 N   0  0  0  0  0  0
  -26.4286  -37.3765   23.9413 N   0  0  0  0  0  0
  -24.6960  -31.0517   22.0938 N   0  0  0  0  0  0
  -23.4195  -28.8149   23.3020 O   0  0  0  0  0  0
  -28.3137  -26.3766   20.1376 O   0  0  0  0  0  0
  -26.5626  -34.8918   22.4661 O   0  0  0  0  0  0
  -23.5467  -32.1366   23.7274 O   0  0  0  0  0  0
  -29.9269  -19.9230   20.6763 C   0  0  0  0  0  0
  -27.8595  -20.0704   20.1355 C   0  0  0  0  0  0
  -29.5122  -18.6288   20.3028 C   0  0  0  0  0  0
  -31.3282  -18.5002   17.9096 C   0  0  0  0  0  0
  -30.6545  -17.2498   18.5004 C   0  0  0  0  0  0
  -28.5634  -23.6051   20.0567 C   0  0  0  0  0  0
  -28.7744  -22.3236   21.0303 C   0  0  0  0  0  0
  -28.1508  -25.0163   20.7556 C   0  0  0  0  0  0
  -30.3518  -17.3079   20.0257 C   0  0  2  0  0  0
  -28.1622  -18.7683   19.9620 N   0  0  0  0  0  0
  -28.8590  -20.8634   20.5703 N   0  0  0  0  0  0
  -29.8779  -15.9170   20.4593 N   0  0  0  0  0  0
  -31.4678  -12.5618   19.1735 H   0  0  0  0  0  0
  -30.3591  -11.4809   19.9703 H   0  0  0  0  0  0
  -29.7889  -11.7218   17.5229 H   0  0  0  0  0  0
  -29.6361  -13.4510   17.7161 H   0  0  0  0  0  0
  -27.8923  -11.2798   18.9220 H   0  0  0  0  0  0
  -27.3764  -12.5099   17.7986 H   0  0  0  0  0  0
  -27.6240  -14.2527   19.4496 H   0  0  0  0  0  0
  -28.7146  -12.2083   21.4459 H   0  0  0  0  0  0
  -28.4225  -13.9029   21.7679 H   0  0  0  0  0  0
  -25.2769   -9.5681   22.4765 H   0  0  0  0  0  0
  -24.0000   -7.4636   22.7476 H   0  0  0  0  0  0
  -21.0844   -8.8786   19.8956 H   0  0  0  0  0  0
  -22.3707  -10.9681   19.6167 H   0  0  0  0  0  0
  -21.2013   -7.6147   23.9714 H   0  0  0  0  0  0
  -21.1480   -6.0522   25.9078 H   0  0  0  0  0  0
  -22.0597   -2.7606   23.2848 H   0  0  0  0  0  0
  -22.4077  -11.9883   22.4822 H   0  0  0  0  0  0
  -21.1077  -13.1242   22.2641 H   0  0  0  0  0  0
  -24.6493  -15.8467   20.5276 H   0  0  0  0  0  0
  -26.2639  -15.6397   20.0846 H   0  0  0  0  0  0
  -26.7199  -32.5406   23.1057 H   0  0  0  0  0  0
  -25.0075  -33.9682   25.0394 H   0  0  0  0  0  0
  -22.7237  -31.2972   21.3907 H   0  0  0  0  0  0
  -23.3751  -35.9616   23.3300 H   0  0  0  0  0  0
  -24.3579  -36.8911   22.2055 H   0  0  0  0  0  0
  -23.7245  -37.6484   23.6666 H   0  0  0  0  0  0
  -26.1055  -31.5286   20.6019 H   0  0  0  0  0  0
  -26.8506  -30.8225   22.0054 H   0  0  0  0  0  0
  -28.1274  -28.9394   21.1911 H   0  0  0  0  0  0
  -25.9907  -25.8780   19.0361 H   0  0  0  0  0  0
  -23.9737  -27.2840   19.0207 H   0  0  0  0  0  0
  -23.7737  -30.5772   19.3988 H   0  0  0  0  0  0
  -22.7650  -29.2369   19.8549 H   0  0  0  0  0  0
  -25.1299  -36.1909   25.0817 H   0  0  0  0  0  0
  -20.9978  -28.3283   24.1392 H   0  0  0  0  0  0
  -20.5681  -26.2310   23.3617 H   0  0  0  0  0  0
  -21.6656  -26.7439   22.1205 H   0  0  0  0  0  0
  -19.6926  -25.6286   21.1251 H   0  0  0  0  0  0
  -19.6698  -27.3184   20.6733 H   0  0  0  0  0  0
  -17.4211  -26.6661   21.4028 H   0  0  0  0  0  0
  -18.0349  -26.0068   22.9021 H   0  0  0  0  0  0
  -19.7943  -30.7272   24.2258 H   0  0  0  0  0  0
  -17.5015  -31.6259   24.5165 H   0  0  0  0  0  0
  -15.5355  -30.2976   23.7651 H   0  0  0  0  0  0
  -15.8678  -28.0816   22.7065 H   0  0  0  0  0  0
  -24.5899  -30.7082   25.7760 H   0  0  0  0  0  0
  -24.8919  -32.2902   26.4841 H   0  0  0  0  0  0
  -25.8042  -30.8916   27.0213 H   0  0  0  0  0  0
  -26.2936  -29.6735   24.1208 H   0  0  0  0  0  0
  -27.4036  -29.7263   25.4709 H   0  0  0  0  0  0
  -27.8812  -30.4272   23.9429 H   0  0  0  0  0  0
  -27.2647  -33.3621   26.2052 H   0  0  0  0  0  0
  -28.3867  -32.6880   25.0321 H   0  0  0  0  0  0
  -28.0706  -31.8450   26.5415 H   0  0  0  0  0  0
  -28.2593  -38.0094   24.7507 H   0  0  0  0  0  0
  -28.1073  -36.2625   24.6294 H   0  0  0  0  0  0
  -27.2295  -37.1452   25.8867 H   0  0  0  0  0  0
  -20.9391  -29.8774   21.6867 H   0  0  0  0  0  0
  -26.0168  -38.2842   24.1404 H   0  0  0  0  0  0
  -30.9076  -20.2493   20.9971 H   0  0  0  0  0  0
  -26.8595  -20.4513   19.9800 H   0  0  0  0  0  0
  -32.2594  -18.7312   18.4278 H   0  0  0  0  0  0
  -30.6823  -19.3767   17.9628 H   0  0  0  0  0  0
  -31.5660  -18.3453   16.8570 H   0  0  0  0  0  0
  -31.2931  -16.3999   18.2630 H   0  0  0  0  0  0
  -29.7213  -17.0755   17.9622 H   0  0  0  0  0  0
  -27.8074  -23.3632   19.3095 H   0  0  0  0  0  0
  -29.4878  -23.7540   19.4986 H   0  0  0  0  0  0
  -27.9539  -22.3472   21.7484 H   0  0  0  0  0  0
  -29.6631  -22.5132   21.6323 H   0  0  0  0  0  0
  -28.7440  -25.0792   21.6681 H   0  0  0  0  0  0
  -27.1266  -24.9118   21.1172 H   0  0  0  0  0  0
  -31.3110  -17.4393   20.5304 H   0  0  0  0  0  0
  -28.8897  -15.8296   20.6394 H   0  0  0  0  0  0
  1 25  1  0  0  0
  1 30  2  0  0  0
  1 82  1  0  0  0
  2  3  1  0  0  0
  2 25  1  0  0  0
  2 83  1  0  0  0
  2 84  1  0  0  0
  3  4  1  0  0  0
  3 85  1  0  0  0
  3 86  1  0  0  0
  4  5  1  0  0  0
  4 87  1  0  0  0
  4 88  1  0  0  0
  5  6  1  0  0  0
  5 26  1  0  0  0
  5 89  1  0  0  0
  6 25  1  0  0  0
  6 90  1  0  0  0
  6 91  1  0  0  0
  7  8  2  0  0  0
  7 26  1  0  0  0
  7 29  1  0  0  0
  8  9  1  0  0  0
  8 22  1  0  0  0
  9 10  1  0  0  0
  9 27  2  0  0  0
 10 11  2  0  0  0
 10 15  1  0  0  0
 11 12  1  0  0  0
 11 92  1  0  0  0
 12 13  2  0  0  0
 12 93  1  0  0  0
 13 14  1  0  0  0
 13 31  1  0  0  0
 14 15  2  0  0  0
 14 94  1  0  0  0
 15 95  1  0  0  0
 16 17  2  0  0  0
 16 21  1  0  0  0
 16 31  1  0  0  0
 17 18  1  0  0  0
 17 96  1  0  0  0
 18 19  2  0  0  0
 18 97  1  0  0  0
 19 20  1  0  0  0
 19 24  1  0  0  0
 20 21  2  0  0  0
 20 98  1  0  0  0
 21 23  1  0  0  0
 22 28  1  0  0  0
 22 32  2  0  0  0
 26 27  1  0  0  0
 28 99  1  0  0  0
 28100  1  0  0  0
 29101  1  0  0  0
 29102  1  0  0  0
 33 34  1  0  0  0
 33 66  1  0  0  0
 33 70  2  0  0  0
 34 36  1  0  0  0
 34 59  1  0  0  0
 34103  1  0  0  0
 35 44  2  0  0  0
 35 45  1  0  0  0
 35 68  1  0  0  0
 36 56  1  0  0  0
 36104  1  0  0  0
 37 39  1  0  0  0
 37 47  1  0  0  0
 37 66  1  0  0  0
 37105  1  0  0  0
 38 43  2  0  0  0
 38 46  1  0  0  0
 38 47  1  0  0  0
 39 64  1  0  0  0
 39 67  2  0  0  0
 40 52  1  0  0  0
 40 53  2  0  0  0
 40 58  1  0  0  0
 41106  1  0  0  0
 41107  1  0  0  0
 41108  1  0  0  0
 41 48  1  0  0  0
 42 43  1  0  0  0
 42 66  1  0  0  0
 42109  1  0  0  0
 42110  1  0  0  0
 43 44  1  0  0  0
 44111  1  0  0  0
 45 46  2  0  0  0
 45112  1  0  0  0
 46113  1  0  0  0
 47114  1  0  0  0
 47115  1  0  0  0
 48 56  1  0  0  0
 48 65  1  0  0  0
 48116  1  0  0  0
 49 50  1  0  0  0
 49 53  1  0  0  0
 49 64  1  0  0  0
 49117  1  0  0  0
 50 51  1  0  0  0
 50118  1  0  0  0
 50119  1  0  0  0
 51 52  1  0  0  0
 51120  1  0  0  0
 51121  1  0  0  0
 52122  1  0  0  0
 52123  1  0  0  0
 53 54  1  0  0  0
 54 55  2  0  0  0
 54124  1  0  0  0
 55 57  1  0  0  0
 55125  1  0  0  0
 56 69  2  0  0  0
 57 58  2  0  0  0
 57126  1  0  0  0
 58127  1  0  0  0
 59 60  1  0  0  0
 59 61  1  0  0  0
 59 62  1  0  0  0
 60128  1  0  0  0
 60129  1  0  0  0
 60130  1  0  0  0
 61131  1  0  0  0
 61132  1  0  0  0
 61133  1  0  0  0
 62134  1  0  0  0
 62135  1  0  0  0
 62136  1  0  0  0
 63 65  1  0  0  0
 63137  1  0  0  0
 63138  1  0  0  0
 63139  1  0  0  0
 64140  1  0  0  0
 65141  1  0  0  0
 68 78  1  0  0  0
 71 73  2  0  0  0
 71 81  1  0  0  0
 71142  1  0  0  0
 72 80  2  0  0  0
 72 81  1  0  0  0
 72143  1  0  0  0
 73 79  1  0  0  0
 73 80  1  0  0  0
 74 75  1  0  0  0
 74144  1  0  0  0
 74145  1  0  0  0
 74146  1  0  0  0
 75147  1  0  0  0
 75148  1  0  0  0
 75 79  1  0  0  0
 76 77  1  0  0  0
 76 78  1  0  0  0
 76149  1  0  0  0
 76150  1  0  0  0
 77 81  1  0  0  0
 77151  1  0  0  0
 77152  1  0  0  0
 78153  1  0  0  0
 78154  1  0  0  0
 79 82  1  0  0  0
 79155  1  0  0  0
 82156  1  0  0  0
M  ISO  4   1 100  68 101  78 101  82 100
M  END
> <chiral flag>
0

> <version>
0

> <s_m_source_file>
/data/baiqing/PycharmProjects/Reinvent-master-3.2/result/LINK_invent/BTK/process_docking_weight1_custom_sum_contain_oxygen_bond_distance_aromatic_linkinvent_7_9_3/rearranged_h_0075.sdf

> <i_m_source_file_index>
54

> <r_mmod_Potential_Energy-OPLS-2005>
82.6361618041992

> <r_mmod_Stretch_Energy-OPLS-2005>
120.260192871094

> <r_mmod_Bend_Energy-OPLS-2005>
180.482025146484

> <r_mmod_Torsional_Energy-OPLS-2005>
238.960693359375

> <r_mmod_Improper_Torsional_Energy-OPLS-2005>
9.03417015075684

> <r_mmod_Van_der_Waal_Energy-OPLS-2005>
112.100891113281

> <r_mmod_Electrostatic_Energy-OPLS-2005>
-451.478424072266

> <r_mmod_Solvation_Energy-OPLS-2005>
-212.931411743164

> <b_mmod_Minimization_Converged-OPLS-2005>
0

> <r_mmod_RMS_Derivative-OPLS-2005>
0.85946798324585

$$$$
55
                    3D
 Structure written by MMmdl.
160168  0  0  1  0            999 V2000
  -30.5070  -15.0461   20.4278 C   0  0  0  0  0  0
  -30.4459  -12.6643   19.4932 C   0  0  0  0  0  0
  -29.5265  -12.5439   18.2550 C   0  0  0  0  0  0
  -28.0655  -12.3050   18.6809 C   0  0  0  0  0  0
  -27.6235  -13.2528   19.8276 C   0  0  2  0  0  0
  -28.6666  -13.3228   20.9618 C   0  0  0  0  0  0
  -25.2442  -13.8198   20.5718 C   0  0  0  0  0  0
  -24.1769  -13.0425   20.9251 C   0  0  0  0  0  0
  -24.6379  -11.6913   20.8751 C   0  0  0  0  0  0
  -23.9052  -10.4285   21.0402 C   0  0  0  0  0  0
  -24.3607   -9.4207   21.9176 C   0  0  0  0  0  0
  -23.6302   -8.2228   22.0751 C   0  0  0  0  0  0
  -22.4280   -8.0261   21.3543 C   0  0  0  0  0  0
  -21.9899   -9.0227   20.4641 C   0  0  0  0  0  0
  -22.7221  -10.2113   20.3056 C   0  0  0  0  0  0
  -21.6858   -6.0723   22.5284 C   0  0  0  0  0  0
  -21.4004   -6.5630   23.8214 C   0  0  0  0  0  0
  -21.3659   -5.6791   24.9182 C   0  0  0  0  0  0
  -21.6056   -4.3057   24.7234 C   0  0  0  0  0  0
  -21.8819   -3.8135   23.4357 C   0  0  0  0  0  0
  -21.9191   -4.6948   22.3410 C   0  0  0  0  0  0
  -22.7792  -13.5197   21.1908 C   0  0  0  0  0  0
  -22.1669   -4.2126   21.0993 F   0  0  0  0  0  0
  -21.5626   -3.4545   25.7749 F   0  0  0  0  0  0
  -29.9238  -13.7728   20.3482 N   0  0  0  0  0  0
  -26.2857  -12.9435   20.3200 N   0  0  0  0  0  0
  -25.9310  -11.6568   20.5694 N   0  0  0  0  0  0
  -22.0435  -12.8195   22.0466 N   0  0  0  0  0  0
  -25.4094  -15.1926   20.4147 N   0  0  0  0  0  0
  -31.7263  -15.0967   20.2309 O   0  0  0  0  0  0
  -21.6655   -6.8856   21.4239 O   0  0  0  0  0  0
  -22.3477  -14.5498   20.6744 O   0  0  0  0  0  0
  -24.6503  -31.8356   23.1779 C   0  0  0  0  0  0
  -25.9255  -32.4644   23.8200 C   0  0  1  0  0  0
  -27.2261  -27.0638   20.1838 C   0  0  0  0  0  0
  -25.5980  -33.8454   24.2137 N   0  0  0  0  0  0
  -23.4575  -30.4489   21.5241 C   0  0  2  0  0  0
  -24.9082  -28.8463   20.1260 C   0  0  0  0  0  0
  -22.7610  -29.4512   22.4833 C   0  0  0  0  0  0
  -18.0324  -28.1386   22.8485 C   0  0  0  0  0  0
  -24.1493  -36.7237   23.2630 C   0  0  0  0  0  0
  -26.0175  -30.6882   21.3840 C   0  0  0  0  0  0
  -26.0874  -29.2851   20.7417 C   0  0  0  0  0  0
  -27.2472  -28.4128   20.7455 C   0  0  0  0  0  0
  -26.0183  -26.7311   19.5393 C   0  0  0  0  0  0
  -24.8888  -27.5842   19.5098 C   0  0  0  0  0  0
  -23.6895  -29.7598   20.1514 C   0  0  0  0  0  0
  -25.4124  -36.2998   24.0303 C   0  0  1  0  0  0
  -20.5945  -28.3720   23.1228 C   0  0  2  0  0  0
  -20.6799  -26.9410   22.5408 C   0  0  0  0  0  0
  -19.5766  -26.6368   21.5225 C   0  0  0  0  0  0
  -18.1952  -26.7934   22.1631 C   0  0  0  0  0  0
  -19.1582  -28.8875   23.2852 C   0  0  0  0  0  0
  -18.9493  -30.1477   23.8862 C   0  0  0  0  0  0
  -17.6475  -30.6576   24.0560 C   0  0  0  0  0  0
  -25.9088  -34.9380   23.5032 C   0  0  0  0  0  0
  -16.5371  -29.9067   23.6332 C   0  0  0  0  0  0
  -16.7311  -28.6487   23.0354 C   0  0  0  0  0  0
  -26.4553  -31.6529   25.0663 C   0  0  0  0  0  0
  -25.3732  -31.3723   26.1353 C   0  0  0  0  0  0
  -27.0396  -30.2902   24.6267 C   0  0  0  0  0  0
  -27.6089  -32.4302   25.7448 C   0  0  0  0  0  0
  -27.5587  -37.1751   24.8456 C   0  0  0  0  0  0
  -21.4291  -29.3034   22.3603 N   0  0  0  0  0  0
  -26.4274  -37.3729   23.9426 N   0  0  0  0  0  0
  -24.7287  -31.0158   22.0835 N   0  0  0  0  0  0
  -23.4234  -28.8085   23.3024 O   0  0  0  0  0  0
  -28.3135  -26.1018   20.0994 O   0  0  0  0  0  0
  -26.5671  -34.8912   22.4606 O   0  0  0  0  0  0
  -23.5612  -32.1245   23.6971 O   0  0  0  0  0  0
  -29.4832  -20.0923   18.0167 C   0  0  0  0  0  0
  -29.1355  -21.4090   18.4247 C   0  0  0  0  0  0
  -28.8895  -21.6190   19.8251 C   0  0  0  0  0  0
  -29.4975  -19.1638   20.1032 C   0  0  0  0  0  0
  -29.9870  -22.2473   16.1400 C   0  0  0  0  0  0
  -29.0997  -23.9192   17.6909 C   0  0  0  0  0  0
  -27.5406  -22.2419   16.6674 C   0  0  0  0  0  0
  -28.0601  -22.9975   20.3529 C   0  0  0  0  0  0
  -29.9547  -17.7792   20.9183 C   0  0  0  0  0  0
  -28.4410  -24.6493   20.7315 C   0  0  0  0  0  0
  -28.9431  -22.4443   17.2756 C   0  0  0  0  0  0
  -29.6493  -19.0204   18.8065 N   0  0  0  0  0  0
  -29.1133  -20.4305   20.6180 N   0  0  0  0  0  0
  -29.7134  -16.2371   20.5410 N   0  0  0  0  0  0
  -31.4730  -12.8504   19.1740 H   0  0  0  0  0  0
  -30.4741  -11.7257   20.0497 H   0  0  0  0  0  0
  -29.8684  -11.7341   17.6087 H   0  0  0  0  0  0
  -29.5895  -13.4574   17.6618 H   0  0  0  0  0  0
  -27.9892  -11.2691   19.0132 H   0  0  0  0  0  0
  -27.3962  -12.4018   17.8252 H   0  0  0  0  0  0
  -27.5707  -14.2441   19.3776 H   0  0  0  0  0  0
  -28.7876  -12.3555   21.4509 H   0  0  0  0  0  0
  -28.3482  -14.0242   21.7352 H   0  0  0  0  0  0
  -25.2745   -9.5707   22.4752 H   0  0  0  0  0  0
  -24.0025   -7.4625   22.7471 H   0  0  0  0  0  0
  -21.0824   -8.8727   19.8953 H   0  0  0  0  0  0
  -22.3654  -10.9645   19.6161 H   0  0  0  0  0  0
  -21.1991   -7.6140   23.9711 H   0  0  0  0  0  0
  -21.1484   -6.0526   25.9086 H   0  0  0  0  0  0
  -22.0593   -2.7595   23.2874 H   0  0  0  0  0  0
  -22.4075  -11.9873   22.4870 H   0  0  0  0  0  0
  -21.1028  -13.1169   22.2621 H   0  0  0  0  0  0
  -24.6342  -15.8381   20.5226 H   0  0  0  0  0  0
  -26.2401  -15.6308   20.0379 H   0  0  0  0  0  0
  -26.7326  -32.5234   23.0940 H   0  0  0  0  0  0
  -25.0138  -33.9550   25.0288 H   0  0  0  0  0  0
  -22.7633  -31.2748   21.3554 H   0  0  0  0  0  0
  -23.3772  -35.9548   23.3238 H   0  0  0  0  0  0
  -24.3586  -36.8928   22.2056 H   0  0  0  0  0  0
  -23.7240  -37.6408   23.6712 H   0  0  0  0  0  0
  -26.1718  -31.4297   20.5988 H   0  0  0  0  0  0
  -26.8903  -30.7508   22.0228 H   0  0  0  0  0  0
  -28.1561  -28.7580   21.2177 H   0  0  0  0  0  0
  -25.9437  -25.7699   19.0495 H   0  0  0  0  0  0
  -23.9922  -27.2440   19.0104 H   0  0  0  0  0  0
  -23.8362  -30.5227   19.3863 H   0  0  0  0  0  0
  -22.8047  -29.2021   19.8413 H   0  0  0  0  0  0
  -25.1312  -36.1781   25.0789 H   0  0  0  0  0  0
  -21.0036  -28.3299   24.1357 H   0  0  0  0  0  0
  -20.5683  -26.2326   23.3630 H   0  0  0  0  0  0
  -21.6661  -26.7398   22.1206 H   0  0  0  0  0  0
  -19.6913  -25.6277   21.1260 H   0  0  0  0  0  0
  -19.6699  -27.3176   20.6752 H   0  0  0  0  0  0
  -17.4220  -26.6709   21.4028 H   0  0  0  0  0  0
  -18.0335  -26.0081   22.9023 H   0  0  0  0  0  0
  -19.7958  -30.7329   24.2191 H   0  0  0  0  0  0
  -17.5010  -31.6245   24.5176 H   0  0  0  0  0  0
  -15.5362  -30.2941   23.7647 H   0  0  0  0  0  0
  -15.8730  -28.0783   22.7060 H   0  0  0  0  0  0
  -24.5970  -30.7000   25.7687 H   0  0  0  0  0  0
  -24.8854  -32.2888   26.4663 H   0  0  0  0  0  0
  -25.8019  -30.8995   27.0191 H   0  0  0  0  0  0
  -26.2980  -29.6632   24.1300 H   0  0  0  0  0  0
  -27.4004  -29.7207   25.4840 H   0  0  0  0  0  0
  -27.8915  -30.4105   23.9578 H   0  0  0  0  0  0
  -27.2690  -33.3649   26.1914 H   0  0  0  0  0  0
  -28.3950  -32.6763   25.0303 H   0  0  0  0  0  0
  -28.0694  -31.8483   26.5438 H   0  0  0  0  0  0
  -28.2531  -38.0113   24.7573 H   0  0  0  0  0  0
  -28.1149  -36.2645   24.6182 H   0  0  0  0  0  0
  -27.2322  -37.1282   25.8857 H   0  0  0  0  0  0
  -20.9510  -29.8742   21.6766 H   0  0  0  0  0  0
  -26.0124  -38.2772   24.1477 H   0  0  0  0  0  0
  -29.5996  -19.8363   16.9776 H   0  0  0  0  0  0
  -31.0090  -22.2855   16.5207 H   0  0  0  0  0  0
  -29.9025  -23.0207   15.3749 H   0  0  0  0  0  0
  -29.8705  -21.3176   15.5858 H   0  0  0  0  0  0
  -29.9695  -24.0750   18.3308 H   0  0  0  0  0  0
  -28.2080  -24.3091   18.1733 H   0  0  0  0  0  0
  -29.2285  -24.5697   16.8251 H   0  0  0  0  0  0
  -27.4160  -21.2329   16.2711 H   0  0  0  0  0  0
  -27.3590  -22.9323   15.8423 H   0  0  0  0  0  0
  -26.7476  -22.3968   17.3999 H   0  0  0  0  0  0
  -27.7036  -22.6322   21.3153 H   0  0  0  0  0  0
  -27.1435  -23.0239   19.7647 H   0  0  0  0  0  0
  -29.5444  -17.8963   21.9212 H   0  0  0  0  0  0
  -31.0308  -17.8757   21.0638 H   0  0  0  0  0  0
  -29.4702  -24.6173   21.0880 H   0  0  0  0  0  0
  -27.8786  -24.8087   21.6514 H   0  0  0  0  0  0
  -28.7274  -16.0342   20.5130 H   0  0  0  0  0  0
  1 25  1  0  0  0
  1 30  2  0  0  0
  1 84  1  0  0  0
  2  3  1  0  0  0
  2 25  1  0  0  0
  2 85  1  0  0  0
  2 86  1  0  0  0
  3  4  1  0  0  0
  3 87  1  0  0  0
  3 88  1  0  0  0
  4  5  1  0  0  0
  4 89  1  0  0  0
  4 90  1  0  0  0
  5  6  1  0  0  0
  5 26  1  0  0  0
  5 91  1  0  0  0
  6 25  1  0  0  0
  6 92  1  0  0  0
  6 93  1  0  0  0
  7  8  2  0  0  0
  7 26  1  0  0  0
  7 29  1  0  0  0
  8  9  1  0  0  0
  8 22  1  0  0  0
  9 10  1  0  0  0
  9 27  2  0  0  0
 10 11  2  0  0  0
 10 15  1  0  0  0
 11 12  1  0  0  0
 11 94  1  0  0  0
 12 13  2  0  0  0
 12 95  1  0  0  0
 13 14  1  0  0  0
 13 31  1  0  0  0
 14 15  2  0  0  0
 14 96  1  0  0  0
 15 97  1  0  0  0
 16 17  2  0  0  0
 16 21  1  0  0  0
 16 31  1  0  0  0
 17 18  1  0  0  0
 17 98  1  0  0  0
 18 19  2  0  0  0
 18 99  1  0  0  0
 19 20  1  0  0  0
 19 24  1  0  0  0
 20 21  2  0  0  0
 20100  1  0  0  0
 21 23  1  0  0  0
 22 28  1  0  0  0
 22 32  2  0  0  0
 26 27  1  0  0  0
 28101  1  0  0  0
 28102  1  0  0  0
 29103  1  0  0  0
 29104  1  0  0  0
 33 34  1  0  0  0
 33 66  1  0  0  0
 33 70  2  0  0  0
 34 36  1  0  0  0
 34 59  1  0  0  0
 34105  1  0  0  0
 35 44  2  0  0  0
 35 45  1  0  0  0
 35 68  1  0  0  0
 36 56  1  0  0  0
 36106  1  0  0  0
 37 39  1  0  0  0
 37 47  1  0  0  0
 37 66  1  0  0  0
 37107  1  0  0  0
 38 43  2  0  0  0
 38 46  1  0  0  0
 38 47  1  0  0  0
 39 64  1  0  0  0
 39 67  2  0  0  0
 40 52  1  0  0  0
 40 53  2  0  0  0
 40 58  1  0  0  0
 41108  1  0  0  0
 41109  1  0  0  0
 41110  1  0  0  0
 41 48  1  0  0  0
 42 43  1  0  0  0
 42 66  1  0  0  0
 42111  1  0  0  0
 42112  1  0  0  0
 43 44  1  0  0  0
 44113  1  0  0  0
 45 46  2  0  0  0
 45114  1  0  0  0
 46115  1  0  0  0
 47116  1  0  0  0
 47117  1  0  0  0
 48 56  1  0  0  0
 48 65  1  0  0  0
 48118  1  0  0  0
 49 50  1  0  0  0
 49 53  1  0  0  0
 49 64  1  0  0  0
 49119  1  0  0  0
 50 51  1  0  0  0
 50120  1  0  0  0
 50121  1  0  0  0
 51 52  1  0  0  0
 51122  1  0  0  0
 51123  1  0  0  0
 52124  1  0  0  0
 52125  1  0  0  0
 53 54  1  0  0  0
 54 55  2  0  0  0
 54126  1  0  0  0
 55 57  1  0  0  0
 55127  1  0  0  0
 56 69  2  0  0  0
 57 58  2  0  0  0
 57128  1  0  0  0
 58129  1  0  0  0
 59 60  1  0  0  0
 59 61  1  0  0  0
 59 62  1  0  0  0
 60130  1  0  0  0
 60131  1  0  0  0
 60132  1  0  0  0
 61133  1  0  0  0
 61134  1  0  0  0
 61135  1  0  0  0
 62136  1  0  0  0
 62137  1  0  0  0
 62138  1  0  0  0
 63 65  1  0  0  0
 63139  1  0  0  0
 63140  1  0  0  0
 63141  1  0  0  0
 64142  1  0  0  0
 65143  1  0  0  0
 68 80  1  0  0  0
 71 72  2  0  0  0
 71 82  1  0  0  0
 71144  1  0  0  0
 72 73  1  0  0  0
 72 81  1  0  0  0
 73 78  1  0  0  0
 73 83  2  0  0  0
 74 79  1  0  0  0
 74 82  2  0  0  0
 74 83  1  0  0  0
 75145  1  0  0  0
 75146  1  0  0  0
 75147  1  0  0  0
 75 81  1  0  0  0
 76 81  1  0  0  0
 76148  1  0  0  0
 76149  1  0  0  0
 76150  1  0  0  0
 77 81  1  0  0  0
 77151  1  0  0  0
 77152  1  0  0  0
 77153  1  0  0  0
 78 80  1  0  0  0
 78154  1  0  0  0
 78155  1  0  0  0
 79 84  1  0  0  0
 79156  1  0  0  0
 79157  1  0  0  0
 80158  1  0  0  0
 80159  1  0  0  0
 84160  1  0  0  0
M  ISO  4   1 100  68 101  80 101  84 100
M  END
> <chiral flag>
0

> <version>
0

> <s_m_source_file>
/data/baiqing/PycharmProjects/Reinvent-master-3.2/result/LINK_invent/BTK/process_docking_weight1_custom_sum_contain_oxygen_bond_distance_aromatic_linkinvent_7_9_3/rearranged_h_0075.sdf

> <i_m_source_file_index>
55

> <r_mmod_Potential_Energy-OPLS-2005>
342.18359375

> <r_mmod_Stretch_Energy-OPLS-2005>
349.260375976562

> <r_mmod_Bend_Energy-OPLS-2005>
414.178985595703

> <r_mmod_Torsional_Energy-OPLS-2005>
240.679397583008

> <r_mmod_Improper_Torsional_Energy-OPLS-2005>
7.50556039810181

> <r_mmod_Van_der_Waal_Energy-OPLS-2005>
144.24885559082

> <r_mmod_Electrostatic_Energy-OPLS-2005>
-830.314636230469

> <r_mmod_Solvation_Energy-OPLS-2005>
-239.019134521484

> <b_mmod_Minimization_Converged-OPLS-2005>
0

> <r_mmod_RMS_Derivative-OPLS-2005>
2.57861161231995

$$$$
56
                    3D
 Structure written by MMmdl.
169177  0  0  1  0            999 V2000
  -30.7360  -14.5779   20.3492 C   0  0  0  0  0  0
  -30.4232  -12.3130   19.4793 C   0  0  0  0  0  0
  -29.5132  -12.2863   18.2297 C   0  0  0  0  0  0
  -28.0227  -12.6120   18.5061 C   0  0  0  0  0  0
  -27.7085  -12.7193   20.0092 C   0  0  2  0  0  0
  -28.7363  -13.2417   21.0166 C   0  0  0  0  0  0
  -25.3105  -13.7448   20.5670 C   0  0  0  0  0  0
  -24.1816  -13.0314   20.9096 C   0  0  0  0  0  0
  -24.5631  -11.6654   20.8823 C   0  0  0  0  0  0
  -23.8313  -10.4223   21.0545 C   0  0  0  0  0  0
  -24.3139   -9.4215   21.9204 C   0  0  0  0  0  0
  -23.6084   -8.2153   22.0723 C   0  0  0  0  0  0
  -22.4096   -8.0123   21.3453 C   0  0  0  0  0  0
  -21.9471   -9.0085   20.4682 C   0  0  0  0  0  0
  -22.6594  -10.2042   20.3138 C   0  0  0  0  0  0
  -21.6781   -6.0649   22.5199 C   0  0  0  0  0  0
  -21.3972   -6.5783   23.8046 C   0  0  0  0  0  0
  -21.3606   -5.7138   24.9172 C   0  0  0  0  0  0
  -21.5977   -4.3353   24.7420 C   0  0  0  0  0  0
  -21.8715   -3.8215   23.4631 C   0  0  0  0  0  0
  -21.9134   -4.6859   22.3529 C   0  0  0  0  0  0
  -22.7988  -13.5481   21.1733 C   0  0  0  0  0  0
  -22.1615   -4.1927   21.1162 F   0  0  0  0  0  0
  -21.5616   -3.4889   25.7955 F   0  0  0  0  0  0
  -30.0116  -13.4393   20.3253 N   0  0  0  0  0  0
  -26.3049  -12.7715   20.3881 N   0  0  0  0  0  0
  -25.8281  -11.5410   20.6135 N   0  0  0  0  0  0
  -22.0333  -12.8317   21.9950 N   0  0  0  0  0  0
  -25.5426  -15.1014   20.4046 N   0  0  0  0  0  0
  -31.9555  -14.6004   20.2209 O   0  0  0  0  0  0
  -21.6680   -6.8614   21.4042 O   0  0  0  0  0  0
  -22.3896  -14.5937   20.6689 O   0  0  0  0  0  0
  -24.6063  -31.8735   23.2112 C   0  0  0  0  0  0
  -25.8989  -32.4870   23.8398 C   0  0  1  0  0  0
  -27.2672  -27.5129   20.0976 C   0  0  0  0  0  0
  -25.5875  -33.8664   24.2372 N   0  0  0  0  0  0
  -23.3941  -30.4935   21.5504 C   0  0  2  0  0  0
  -24.8510  -28.9609   20.1175 C   0  0  0  0  0  0
  -22.7368  -29.4684   22.4980 C   0  0  0  0  0  0
  -18.0246  -28.1381   22.8470 C   0  0  0  0  0  0
  -24.1450  -36.7312   23.2637 C   0  0  0  0  0  0
  -25.9087  -30.8676   21.3474 C   0  0  0  0  0  0
  -25.9996  -29.5004   20.7101 C   0  0  0  0  0  0
  -27.2073  -28.7820   20.6975 C   0  0  0  0  0  0
  -26.1072  -26.9640   19.5075 C   0  0  0  0  0  0
  -24.8977  -27.6893   19.5132 C   0  0  0  0  0  0
  -23.6037  -29.8185   20.1657 C   0  0  0  0  0  0
  -25.4073  -36.3152   24.0363 C   0  0  1  0  0  0
  -20.5837  -28.3678   23.1301 C   0  0  2  0  0  0
  -20.6721  -26.9415   22.5427 C   0  0  0  0  0  0
  -19.5732  -26.6389   21.5194 C   0  0  0  0  0  0
  -18.1901  -26.7923   22.1600 C   0  0  0  0  0  0
  -19.1493  -28.8826   23.2889 C   0  0  0  0  0  0
  -18.9440  -30.1415   23.8946 C   0  0  0  0  0  0
  -17.6441  -30.6582   24.0560 C   0  0  0  0  0  0
  -25.9006  -34.9511   23.5170 C   0  0  0  0  0  0
  -16.5325  -29.9106   23.6304 C   0  0  0  0  0  0
  -16.7241  -28.6515   23.0343 C   0  0  0  0  0  0
  -26.4457  -31.6610   25.0678 C   0  0  0  0  0  0
  -25.3723  -31.3702   26.1433 C   0  0  0  0  0  0
  -27.0286  -30.3080   24.5977 C   0  0  0  0  0  0
  -27.6100  -32.4262   25.7406 C   0  0  0  0  0  0
  -27.5584  -37.1808   24.8476 C   0  0  0  0  0  0
  -21.4089  -29.3059   22.3721 N   0  0  0  0  0  0
  -26.4286  -37.3821   23.9433 N   0  0  0  0  0  0
  -24.6548  -31.0862   22.1003 N   0  0  0  0  0  0
  -23.4145  -28.8231   23.3008 O   0  0  0  0  0  0
  -28.4751  -26.8690   20.0743 O   0  0  0  0  0  0
  -26.5561  -34.8966   22.4723 O   0  0  0  0  0  0
  -23.5264  -32.1481   23.7538 O   0  0  0  0  0  0
  -27.8765  -18.9065   19.1693 C   0  0  0  0  0  0
  -26.7929  -19.7699   17.4257 C   0  0  0  0  0  0
  -27.0642  -19.9800   18.7479 C   0  0  0  0  0  0
  -28.1228  -18.0641   18.1200 C   0  0  0  0  0  0
  -30.5213  -17.4292   18.0252 C   0  0  0  0  0  0
  -28.8663  -15.8810   16.9946 C   0  0  0  0  0  0
  -27.3504  -18.1276   15.6450 C   0  0  0  0  0  0
  -26.7095  -21.1585   19.6002 C   0  0  0  0  0  0
  -27.7094  -22.2782   19.2990 C   0  0  0  0  0  0
  -27.7425  -23.3587   20.3678 C   0  0  0  0  0  0
  -28.6438  -24.5125   19.9265 C   0  0  0  0  0  0
  -28.8759  -16.0772   19.5047 C   0  0  0  0  0  0
  -28.5599  -25.7041   20.8760 C   0  0  0  0  0  0
  -29.0802  -16.8787   18.1549 C   0  0  0  0  0  0
  -27.4301  -18.6041   17.0206 N   0  0  0  0  0  0
  -30.0843  -15.7510   20.2843 N   0  0  0  0  0  0
  -31.4775  -12.3688   19.1868 H   0  0  0  0  0  0
  -30.3300  -11.3863   20.0499 H   0  0  0  0  0  0
  -29.5786  -11.2866   17.7922 H   0  0  0  0  0  0
  -29.9188  -12.9546   17.4767 H   0  0  0  0  0  0
  -27.3941  -11.8425   18.0503 H   0  0  0  0  0  0
  -27.7437  -13.5305   17.9984 H   0  0  0  0  0  0
  -27.9634  -11.6700   20.1965 H   0  0  0  0  0  0
  -28.8917  -12.5256   21.8277 H   0  0  0  0  0  0
  -28.3778  -14.1574   21.4883 H   0  0  0  0  0  0
  -25.2386   -9.5841   22.4540 H   0  0  0  0  0  0
  -24.0078   -7.4563   22.7300 H   0  0  0  0  0  0
  -21.0369   -8.8446   19.9025 H   0  0  0  0  0  0
  -22.3004  -10.9630   19.6340 H   0  0  0  0  0  0
  -21.1938   -7.6332   23.9299 H   0  0  0  0  0  0
  -21.1442   -6.1182   25.8949 H   0  0  0  0  0  0
  -22.0441   -2.7632   23.3433 H   0  0  0  0  0  0
  -22.3417  -11.9424   22.3605 H   0  0  0  0  0  0
  -21.0790  -13.1072   22.1730 H   0  0  0  0  0  0
  -24.8223  -15.7914   20.5768 H   0  0  0  0  0  0
  -26.4263  -15.4946   20.1086 H   0  0  0  0  0  0
  -26.7053  -32.5680   23.1175 H   0  0  0  0  0  0
  -25.0052  -33.9812   25.0537 H   0  0  0  0  0  0
  -22.6790  -31.3074   21.4057 H   0  0  0  0  0  0
  -23.3743  -35.9620   23.3326 H   0  0  0  0  0  0
  -24.3524  -36.8902   22.2051 H   0  0  0  0  0  0
  -23.7183  -37.6512   23.6614 H   0  0  0  0  0  0
  -25.9792  -31.6199   20.5597 H   0  0  0  0  0  0
  -26.8107  -30.9496   21.9439 H   0  0  0  0  0  0
  -28.1035  -29.2029   21.1359 H   0  0  0  0  0  0
  -26.1543  -25.9979   19.0294 H   0  0  0  0  0  0
  -24.0212  -27.2660   19.0441 H   0  0  0  0  0  0
  -23.7073  -30.5919   19.4017 H   0  0  0  0  0  0
  -22.7303  -29.2281   19.8721 H   0  0  0  0  0  0
  -25.1215  -36.2019   25.0853 H   0  0  0  0  0  0
  -20.9932  -28.3262   24.1411 H   0  0  0  0  0  0
  -20.5527  -26.2319   23.3633 H   0  0  0  0  0  0
  -21.6608  -26.7401   22.1281 H   0  0  0  0  0  0
  -19.6903  -25.6297   21.1232 H   0  0  0  0  0  0
  -19.6667  -27.3195   20.6719 H   0  0  0  0  0  0
  -17.4162  -26.6663   21.4007 H   0  0  0  0  0  0
  -18.0312  -26.0041   22.8978 H   0  0  0  0  0  0
  -19.7916  -30.7186   24.2398 H   0  0  0  0  0  0
  -17.5014  -31.6290   24.5145 H   0  0  0  0  0  0
  -15.5346  -30.3045   23.7582 H   0  0  0  0  0  0
  -15.8638  -28.0851   22.7070 H   0  0  0  0  0  0
  -24.5894  -30.7058   25.7744 H   0  0  0  0  0  0
  -24.8899  -32.2851   26.4873 H   0  0  0  0  0  0
  -25.8062  -30.8853   27.0190 H   0  0  0  0  0  0
  -26.2844  -29.6845   24.1009 H   0  0  0  0  0  0
  -27.4105  -29.7292   25.4389 H   0  0  0  0  0  0
  -27.8614  -30.4458   23.9088 H   0  0  0  0  0  0
  -27.2835  -33.3579   26.2035 H   0  0  0  0  0  0
  -28.3875  -32.6791   25.0182 H   0  0  0  0  0  0
  -28.0787  -31.8317   26.5260 H   0  0  0  0  0  0
  -28.2604  -38.0100   24.7511 H   0  0  0  0  0  0
  -28.1076  -36.2639   24.6268 H   0  0  0  0  0  0
  -27.2314  -37.1434   25.8884 H   0  0  0  0  0  0
  -20.9252  -29.8828   21.6987 H   0  0  0  0  0  0
  -26.0187  -38.2904   24.1440 H   0  0  0  0  0  0
  -28.3025  -18.8089   20.1578 H   0  0  0  0  0  0
  -26.2369  -20.3794   16.7195 H   0  0  0  0  0  0
  -30.6327  -18.0707   17.1484 H   0  0  0  0  0  0
  -31.2543  -16.6264   17.9196 H   0  0  0  0  0  0
  -30.8035  -18.0373   18.8896 H   0  0  0  0  0  0
  -27.8349  -15.5234   16.9606 H   0  0  0  0  0  0
  -29.5134  -15.0195   17.1016 H   0  0  0  0  0  0
  -29.1111  -16.2959   16.0205 H   0  0  0  0  0  0
  -28.3351  -18.1347   15.1776 H   0  0  0  0  0  0
  -26.6976  -18.7784   15.0607 H   0  0  0  0  0  0
  -26.9183  -17.1281   15.6084 H   0  0  0  0  0  0
  -26.7886  -20.8511   20.6461 H   0  0  0  0  0  0
  -25.6795  -21.4830   19.4444 H   0  0  0  0  0  0
  -27.4858  -22.7035   18.3170 H   0  0  0  0  0  0
  -28.7181  -21.8598   19.2247 H   0  0  0  0  0  0
  -28.1000  -22.9435   21.3104 H   0  0  0  0  0  0
  -26.7300  -23.7249   20.5469 H   0  0  0  0  0  0
  -28.3450  -24.8302   18.9269 H   0  0  0  0  0  0
  -29.6796  -24.1739   19.8241 H   0  0  0  0  0  0
  -28.2900  -15.1918   19.2968 H   0  0  0  0  0  0
  -28.2377  -16.6039   20.2084 H   0  0  0  0  0  0
  -29.4565  -25.7559   21.4951 H   0  0  0  0  0  0
  -27.7107  -25.6176   21.5649 H   0  0  0  0  0  0
  -30.6983  -16.5392   20.4272 H   0  0  0  0  0  0
  1 25  1  0  0  0
  1 30  2  0  0  0
  1 86  1  0  0  0
  2  3  1  0  0  0
  2 25  1  0  0  0
  2 87  1  0  0  0
  2 88  1  0  0  0
  3  4  1  0  0  0
  3 89  1  0  0  0
  3 90  1  0  0  0
  4  5  1  0  0  0
  4 91  1  0  0  0
  4 92  1  0  0  0
  5  6  1  0  0  0
  5 26  1  0  0  0
  5 93  1  0  0  0
  6 25  1  0  0  0
  6 94  1  0  0  0
  6 95  1  0  0  0
  7  8  2  0  0  0
  7 26  1  0  0  0
  7 29  1  0  0  0
  8  9  1  0  0  0
  8 22  1  0  0  0
  9 10  1  0  0  0
  9 27  2  0  0  0
 10 11  2  0  0  0
 10 15  1  0  0  0
 11 12  1  0  0  0
 11 96  1  0  0  0
 12 13  2  0  0  0
 12 97  1  0  0  0
 13 14  1  0  0  0
 13 31  1  0  0  0
 14 15  2  0  0  0
 14 98  1  0  0  0
 15 99  1  0  0  0
 16 17  2  0  0  0
 16 21  1  0  0  0
 16 31  1  0  0  0
 17 18  1  0  0  0
 17100  1  0  0  0
 18 19  2  0  0  0
 18101  1  0  0  0
 19 20  1  0  0  0
 19 24  1  0  0  0
 20 21  2  0  0  0
 20102  1  0  0  0
 21 23  1  0  0  0
 22 28  1  0  0  0
 22 32  2  0  0  0
 26 27  1  0  0  0
 28103  1  0  0  0
 28104  1  0  0  0
 29105  1  0  0  0
 29106  1  0  0  0
 33 34  1  0  0  0
 33 66  1  0  0  0
 33 70  2  0  0  0
 34 36  1  0  0  0
 34 59  1  0  0  0
 34107  1  0  0  0
 35 44  2  0  0  0
 35 45  1  0  0  0
 35 68  1  0  0  0
 36 56  1  0  0  0
 36108  1  0  0  0
 37 39  1  0  0  0
 37 47  1  0  0  0
 37 66  1  0  0  0
 37109  1  0  0  0
 38 43  2  0  0  0
 38 46  1  0  0  0
 38 47  1  0  0  0
 39 64  1  0  0  0
 39 67  2  0  0  0
 40 52  1  0  0  0
 40 53  2  0  0  0
 40 58  1  0  0  0
 41110  1  0  0  0
 41111  1  0  0  0
 41112  1  0  0  0
 41 48  1  0  0  0
 42 43  1  0  0  0
 42 66  1  0  0  0
 42113  1  0  0  0
 42114  1  0  0  0
 43 44  1  0  0  0
 44115  1  0  0  0
 45 46  2  0  0  0
 45116  1  0  0  0
 46117  1  0  0  0
 47118  1  0  0  0
 47119  1  0  0  0
 48 56  1  0  0  0
 48 65  1  0  0  0
 48120  1  0  0  0
 49 50  1  0  0  0
 49 53  1  0  0  0
 49 64  1  0  0  0
 49121  1  0  0  0
 50 51  1  0  0  0
 50122  1  0  0  0
 50123  1  0  0  0
 51 52  1  0  0  0
 51124  1  0  0  0
 51125  1  0  0  0
 52126  1  0  0  0
 52127  1  0  0  0
 53 54  1  0  0  0
 54 55  2  0  0  0
 54128  1  0  0  0
 55 57  1  0  0  0
 55129  1  0  0  0
 56 69  2  0  0  0
 57 58  2  0  0  0
 57130  1  0  0  0
 58131  1  0  0  0
 59 60  1  0  0  0
 59 61  1  0  0  0
 59 62  1  0  0  0
 60132  1  0  0  0
 60133  1  0  0  0
 60134  1  0  0  0
 61135  1  0  0  0
 61136  1  0  0  0
 61137  1  0  0  0
 62138  1  0  0  0
 62139  1  0  0  0
 62140  1  0  0  0
 63 65  1  0  0  0
 63141  1  0  0  0
 63142  1  0  0  0
 63143  1  0  0  0
 64144  1  0  0  0
 65145  1  0  0  0
 68 83  1  0  0  0
 71 73  1  0  0  0
 71 74  2  0  0  0
 71146  1  0  0  0
 72 73  2  0  0  0
 72 85  1  0  0  0
 72147  1  0  0  0
 73 78  1  0  0  0
 74 84  1  0  0  0
 74 85  1  0  0  0
 75148  1  0  0  0
 75149  1  0  0  0
 75150  1  0  0  0
 75 84  1  0  0  0
 76 84  1  0  0  0
 76151  1  0  0  0
 76152  1  0  0  0
 76153  1  0  0  0
 77 85  1  0  0  0
 77154  1  0  0  0
 77155  1  0  0  0
 77156  1  0  0  0
 78 79  1  0  0  0
 78157  1  0  0  0
 78158  1  0  0  0
 79 80  1  0  0  0
 79159  1  0  0  0
 79160  1  0  0  0
 80 81  1  0  0  0
 80161  1  0  0  0
 80162  1  0  0  0
 81 83  1  0  0  0
 81163  1  0  0  0
 81164  1  0  0  0
 82 84  1  0  0  0
 82 86  1  0  0  0
 82165  1  0  0  0
 82166  1  0  0  0
 83167  1  0  0  0
 83168  1  0  0  0
 86169  1  0  0  0
M  ISO  4   1 100  68 101  83 101  86 100
M  END
> <chiral flag>
0

> <version>
0

> <s_m_source_file>
/data/baiqing/PycharmProjects/Reinvent-master-3.2/result/LINK_invent/BTK/process_docking_weight1_custom_sum_contain_oxygen_bond_distance_aromatic_linkinvent_7_9_3/rearranged_h_0075.sdf

> <i_m_source_file_index>
56

> <r_mmod_Potential_Energy-OPLS-2005>
182.670516967773

> <r_mmod_Stretch_Energy-OPLS-2005>
36.0713005065918

> <r_mmod_Bend_Energy-OPLS-2005>
190.635986328125

> <r_mmod_Torsional_Energy-OPLS-2005>
358.993499755859

> <r_mmod_Improper_Torsional_Energy-OPLS-2005>
7.08864307403564

> <r_mmod_Van_der_Waal_Energy-OPLS-2005>
150.814483642578

> <r_mmod_Electrostatic_Energy-OPLS-2005>
-464.279083251953

> <r_mmod_Solvation_Energy-OPLS-2005>
-193.302612304688

> <b_mmod_Minimization_Converged-OPLS-2005>
0

> <r_mmod_RMS_Derivative-OPLS-2005>
8.19178485870361

$$$$
57
                    3D
 Structure written by MMmdl.
172180  0  0  1  0            999 V2000
  -30.8109  -14.3613   20.7116 C   0  0  0  0  0  0
  -30.4071  -12.3012   19.4042 C   0  0  0  0  0  0
  -29.4846  -12.5498   18.1981 C   0  0  0  0  0  0
  -28.0100  -12.3899   18.6043 C   0  0  0  0  0  0
  -27.6621  -13.2130   19.8690 C   0  0  2  0  0  0
  -28.6940  -12.9867   20.9919 C   0  0  0  0  0  0
  -25.2578  -13.8188   20.5638 C   0  0  0  0  0  0
  -24.1838  -13.0452   20.9139 C   0  0  0  0  0  0
  -24.6407  -11.6921   20.8704 C   0  0  0  0  0  0
  -23.9085  -10.4300   21.0391 C   0  0  0  0  0  0
  -24.3636   -9.4217   21.9173 C   0  0  0  0  0  0
  -23.6309   -8.2256   22.0762 C   0  0  0  0  0  0
  -22.4286   -8.0289   21.3554 C   0  0  0  0  0  0
  -21.9927   -9.0257   20.4649 C   0  0  0  0  0  0
  -22.7262  -10.2133   20.3044 C   0  0  0  0  0  0
  -21.6855   -6.0746   22.5288 C   0  0  0  0  0  0
  -21.4010   -6.5644   23.8221 C   0  0  0  0  0  0
  -21.3651   -5.6794   24.9175 C   0  0  0  0  0  0
  -21.6037   -4.3059   24.7225 C   0  0  0  0  0  0
  -21.8823   -3.8156   23.4347 C   0  0  0  0  0  0
  -21.9195   -4.6975   22.3407 C   0  0  0  0  0  0
  -22.7851  -13.5229   21.1829 C   0  0  0  0  0  0
  -22.1665   -4.2168   21.0984 F   0  0  0  0  0  0
  -21.5631   -3.4544   25.7737 F   0  0  0  0  0  0
  -30.0508  -13.2526   20.4719 N   0  0  0  0  0  0
  -26.3021  -12.9369   20.3304 N   0  0  0  0  0  0
  -25.9332  -11.6520   20.5708 N   0  0  0  0  0  0
  -22.0510  -12.8199   22.0378 N   0  0  0  0  0  0
  -25.4278  -15.1915   20.4077 N   0  0  0  0  0  0
  -31.7642  -14.6659   19.9845 O   0  0  0  0  0  0
  -21.6645   -6.8891   21.4250 O   0  0  0  0  0  0
  -22.3518  -14.5545   20.6706 O   0  0  0  0  0  0
  -24.6151  -31.8677   23.2110 C   0  0  0  0  0  0
  -25.9057  -32.4817   23.8396 C   0  0  1  0  0  0
  -27.2368  -27.4340   20.0884 C   0  0  0  0  0  0
  -25.5935  -33.8619   24.2339 N   0  0  0  0  0  0
  -23.4023  -30.4926   21.5499 C   0  0  2  0  0  0
  -24.8479  -28.9597   20.1147 C   0  0  0  0  0  0
  -22.7407  -29.4649   22.4980 C   0  0  0  0  0  0
  -18.0281  -28.1355   22.8461 C   0  0  0  0  0  0
  -24.1493  -36.7297   23.2636 C   0  0  0  0  0  0
  -25.9306  -30.8316   21.3655 C   0  0  0  0  0  0
  -26.0066  -29.4656   20.7144 C   0  0  0  0  0  0
  -27.2008  -28.7079   20.7010 C   0  0  0  0  0  0
  -26.0511  -26.9424   19.4892 C   0  0  0  0  0  0
  -24.8646  -27.6979   19.5005 C   0  0  0  0  0  0
  -23.6118  -29.8292   20.1634 C   0  0  0  0  0  0
  -25.4115  -36.3109   24.0339 C   0  0  1  0  0  0
  -20.5865  -28.3652   23.1300 C   0  0  2  0  0  0
  -20.6779  -26.9391   22.5399 C   0  0  0  0  0  0
  -19.5774  -26.6371   21.5183 C   0  0  0  0  0  0
  -18.1939  -26.7911   22.1576 C   0  0  0  0  0  0
  -19.1522  -28.8823   23.2879 C   0  0  0  0  0  0
  -18.9461  -30.1433   23.8892 C   0  0  0  0  0  0
  -17.6464  -30.6566   24.0562 C   0  0  0  0  0  0
  -25.9036  -34.9474   23.5122 C   0  0  0  0  0  0
  -16.5354  -29.9059   23.6341 C   0  0  0  0  0  0
  -16.7269  -28.6485   23.0329 C   0  0  0  0  0  0
  -26.4499  -31.6577   25.0716 C   0  0  0  0  0  0
  -25.3769  -31.3622   26.1455 C   0  0  0  0  0  0
  -27.0370  -30.3047   24.6060 C   0  0  0  0  0  0
  -27.6074  -32.4296   25.7480 C   0  0  0  0  0  0
  -27.5578  -37.1815   24.8474 C   0  0  0  0  0  0
  -21.4133  -29.3031   22.3718 N   0  0  0  0  0  0
  -26.4294  -37.3795   23.9410 N   0  0  0  0  0  0
  -24.6674  -31.0776   22.1010 N   0  0  0  0  0  0
  -23.4176  -28.8184   23.3021 O   0  0  0  0  0  0
  -28.4245  -26.7249   20.0959 O   0  0  0  0  0  0
  -26.5570  -34.8932   22.4666 O   0  0  0  0  0  0
  -23.5346  -32.1429   23.7504 O   0  0  0  0  0  0
  -31.0075  -20.1035   20.6409 C   0  0  0  0  0  0
  -30.1415  -20.0438   21.7477 C   0  0  0  0  0  0
  -30.9501  -21.2078   19.7664 C   0  0  0  0  0  0
  -29.2258  -21.1116   21.9207 C   0  0  0  0  0  0
  -30.0048  -22.2319   20.0219 C   0  0  0  0  0  0
  -31.9499  -21.2709   18.6201 C   0  0  0  0  0  0
  -28.8980  -21.9073   24.3089 C   0  0  0  0  0  0
  -29.6806  -23.1692   17.7577 C   0  0  0  0  0  0
  -30.4439  -14.5205   23.1170 C   0  0  0  0  0  0
  -30.2991  -18.9021   22.7573 C   0  0  0  0  0  0
  -28.2683  -21.1959   23.1017 C   0  0  0  0  0  0
  -29.7749  -17.5150   22.3066 C   0  0  0  0  0  0
  -30.8922  -16.5586   21.8248 C   0  0  0  0  0  0
  -29.7935  -24.7086   19.7798 C   0  0  0  0  0  0
  -28.3981  -25.3571   19.6689 C   0  0  0  0  0  0
  -29.1763  -22.1728   21.0827 N   0  0  0  0  0  0
  -29.8679  -23.3636   19.1933 N   0  0  0  0  0  0
  -30.4830  -15.1351   21.7791 N   0  0  0  0  0  0
  -31.4517  -12.3861   19.0998 H   0  0  0  0  0  0
  -30.2929  -11.2790   19.7679 H   0  0  0  0  0  0
  -29.7264  -11.8663   17.3843 H   0  0  0  0  0  0
  -29.6519  -13.5555   17.8092 H   0  0  0  0  0  0
  -27.8170  -11.3305   18.7782 H   0  0  0  0  0  0
  -27.3609  -12.6881   17.7795 H   0  0  0  0  0  0
  -27.7108  -14.2655   19.5879 H   0  0  0  0  0  0
  -28.6444  -11.9629   21.3656 H   0  0  0  0  0  0
  -28.4165  -13.6235   21.8291 H   0  0  0  0  0  0
  -25.2788   -9.5690   22.4734 H   0  0  0  0  0  0
  -24.0028   -7.4648   22.7480 H   0  0  0  0  0  0
  -21.0869   -8.8765   19.8943 H   0  0  0  0  0  0
  -22.3733  -10.9662   19.6144 H   0  0  0  0  0  0
  -21.1998   -7.6152   23.9736 H   0  0  0  0  0  0
  -21.1462   -6.0516   25.9080 H   0  0  0  0  0  0
  -22.0610   -2.7620   23.2844 H   0  0  0  0  0  0
  -22.4148  -11.9849   22.4722 H   0  0  0  0  0  0
  -21.1121  -13.1198   22.2614 H   0  0  0  0  0  0
  -24.6648  -15.8485   20.5292 H   0  0  0  0  0  0
  -26.2886  -15.6356   20.1129 H   0  0  0  0  0  0
  -26.7121  -32.5555   23.1151 H   0  0  0  0  0  0
  -25.0238  -33.9795   25.0592 H   0  0  0  0  0  0
  -22.6915  -31.3096   21.4097 H   0  0  0  0  0  0
  -23.3765  -35.9619   23.3314 H   0  0  0  0  0  0
  -24.3589  -36.8894   22.2045 H   0  0  0  0  0  0
  -23.7244  -37.6503   23.6647 H   0  0  0  0  0  0
  -26.0398  -31.5967   20.5964 H   0  0  0  0  0  0
  -26.8182  -30.8861   21.9836 H   0  0  0  0  0  0
  -28.0968  -29.0921   21.1670 H   0  0  0  0  0  0
  -26.0158  -25.9810   19.0001 H   0  0  0  0  0  0
  -23.9729  -27.3048   19.0311 H   0  0  0  0  0  0
  -23.7241  -30.6063   19.4072 H   0  0  0  0  0  0
  -22.7346  -29.2532   19.8621 H   0  0  0  0  0  0
  -25.1284  -36.1967   25.0832 H   0  0  0  0  0  0
  -20.9939  -28.3220   24.1422 H   0  0  0  0  0  0
  -20.5682  -26.2252   23.3574 H   0  0  0  0  0  0
  -21.6660  -26.7442   22.1197 H   0  0  0  0  0  0
  -19.6954  -25.6281   21.1216 H   0  0  0  0  0  0
  -19.6735  -27.3184   20.6717 H   0  0  0  0  0  0
  -17.4215  -26.6667   21.3963 H   0  0  0  0  0  0
  -18.0336  -26.0018   22.8940 H   0  0  0  0  0  0
  -19.7939  -30.7254   24.2235 H   0  0  0  0  0  0
  -17.5023  -31.6253   24.5153 H   0  0  0  0  0  0
  -15.5358  -30.2956   23.7694 H   0  0  0  0  0  0
  -15.8664  -28.0842   22.7000 H   0  0  0  0  0  0
  -24.6050  -30.6833   25.7806 H   0  0  0  0  0  0
  -24.8826  -32.2722   26.4851 H   0  0  0  0  0  0
  -25.8147  -30.8880   27.0248 H   0  0  0  0  0  0
  -26.2917  -29.6742   24.1194 H   0  0  0  0  0  0
  -27.4284  -29.7325   25.4482 H   0  0  0  0  0  0
  -27.8663  -30.4417   23.9119 H   0  0  0  0  0  0
  -27.2724  -33.3608   26.2056 H   0  0  0  0  0  0
  -28.3885  -32.6818   25.0299 H   0  0  0  0  0  0
  -28.0737  -31.8413   26.5392 H   0  0  0  0  0  0
  -28.2596  -38.0110   24.7523 H   0  0  0  0  0  0
  -28.1075  -36.2641   24.6300 H   0  0  0  0  0  0
  -27.2304  -37.1469   25.8882 H   0  0  0  0  0  0
  -20.9297  -29.8751   21.6940 H   0  0  0  0  0  0
  -26.0176  -38.2869   24.1430 H   0  0  0  0  0  0
  -31.7397  -19.3239   20.4854 H   0  0  0  0  0  0
  -32.8231  -20.6517   18.8275 H   0  0  0  0  0  0
  -32.3063  -22.2886   18.4582 H   0  0  0  0  0  0
  -31.4992  -20.9066   17.6972 H   0  0  0  0  0  0
  -28.1951  -21.9639   25.1396 H   0  0  0  0  0  0
  -29.1946  -22.9248   24.0511 H   0  0  0  0  0  0
  -29.7864  -21.3832   24.6609 H   0  0  0  0  0  0
  -29.5921  -22.1146   17.4962 H   0  0  0  0  0  0
  -30.5186  -23.5927   17.2028 H   0  0  0  0  0  0
  -28.7688  -23.6523   17.4073 H   0  0  0  0  0  0
  -29.5171  -14.7804   23.6283 H   0  0  0  0  0  0
  -31.2754  -14.8576   23.7359 H   0  0  0  0  0  0
  -30.5052  -13.4303   23.0906 H   0  0  0  0  0  0
  -29.8233  -19.1671   23.6993 H   0  0  0  0  0  0
  -31.3559  -18.8353   23.0183 H   0  0  0  0  0  0
  -27.9139  -20.2034   23.3796 H   0  0  0  0  0  0
  -27.3723  -21.7391   22.7969 H   0  0  0  0  0  0
  -28.9845  -17.6095   21.5610 H   0  0  0  0  0  0
  -29.2966  -17.0623   23.1758 H   0  0  0  0  0  0
  -31.7701  -16.6453   22.4664 H   0  0  0  0  0  0
  -31.2203  -16.9126   20.8453 H   0  0  0  0  0  0
  -30.1144  -24.6857   20.8214 H   0  0  0  0  0  0
  -30.5188  -25.3346   19.2596 H   0  0  0  0  0  0
  -27.6831  -24.7879   20.2660 H   0  0  0  0  0  0
  -28.0726  -25.3285   18.6297 H   0  0  0  0  0  0
  1 25  1  0  0  0
  1 30  2  0  0  0
  1 88  1  0  0  0
  2  3  1  0  0  0
  2 25  1  0  0  0
  2 89  1  0  0  0
  2 90  1  0  0  0
  3  4  1  0  0  0
  3 91  1  0  0  0
  3 92  1  0  0  0
  4  5  1  0  0  0
  4 93  1  0  0  0
  4 94  1  0  0  0
  5  6  1  0  0  0
  5 26  1  0  0  0
  5 95  1  0  0  0
  6 25  1  0  0  0
  6 96  1  0  0  0
  6 97  1  0  0  0
  7  8  2  0  0  0
  7 26  1  0  0  0
  7 29  1  0  0  0
  8  9  1  0  0  0
  8 22  1  0  0  0
  9 10  1  0  0  0
  9 27  2  0  0  0
 10 11  2  0  0  0
 10 15  1  0  0  0
 11 12  1  0  0  0
 11 98  1  0  0  0
 12 13  2  0  0  0
 12 99  1  0  0  0
 13 14  1  0  0  0
 13 31  1  0  0  0
 14 15  2  0  0  0
 14100  1  0  0  0
 15101  1  0  0  0
 16 17  2  0  0  0
 16 21  1  0  0  0
 16 31  1  0  0  0
 17 18  1  0  0  0
 17102  1  0  0  0
 18 19  2  0  0  0
 18103  1  0  0  0
 19 20  1  0  0  0
 19 24  1  0  0  0
 20 21  2  0  0  0
 20104  1  0  0  0
 21 23  1  0  0  0
 22 28  1  0  0  0
 22 32  2  0  0  0
 26 27  1  0  0  0
 28105  1  0  0  0
 28106  1  0  0  0
 29107  1  0  0  0
 29108  1  0  0  0
 33 34  1  0  0  0
 33 66  1  0  0  0
 33 70  2  0  0  0
 34 36  1  0  0  0
 34 59  1  0  0  0
 34109  1  0  0  0
 35 44  2  0  0  0
 35 45  1  0  0  0
 35 68  1  0  0  0
 36 56  1  0  0  0
 36110  1  0  0  0
 37 39  1  0  0  0
 37 47  1  0  0  0
 37 66  1  0  0  0
 37111  1  0  0  0
 38 43  2  0  0  0
 38 46  1  0  0  0
 38 47  1  0  0  0
 39 64  1  0  0  0
 39 67  2  0  0  0
 40 52  1  0  0  0
 40 53  2  0  0  0
 40 58  1  0  0  0
 41112  1  0  0  0
 41113  1  0  0  0
 41114  1  0  0  0
 41 48  1  0  0  0
 42 43  1  0  0  0
 42 66  1  0  0  0
 42115  1  0  0  0
 42116  1  0  0  0
 43 44  1  0  0  0
 44117  1  0  0  0
 45 46  2  0  0  0
 45118  1  0  0  0
 46119  1  0  0  0
 47120  1  0  0  0
 47121  1  0  0  0
 48 56  1  0  0  0
 48 65  1  0  0  0
 48122  1  0  0  0
 49 50  1  0  0  0
 49 53  1  0  0  0
 49 64  1  0  0  0
 49123  1  0  0  0
 50 51  1  0  0  0
 50124  1  0  0  0
 50125  1  0  0  0
 51 52  1  0  0  0
 51126  1  0  0  0
 51127  1  0  0  0
 52128  1  0  0  0
 52129  1  0  0  0
 53 54  1  0  0  0
 54 55  2  0  0  0
 54130  1  0  0  0
 55 57  1  0  0  0
 55131  1  0  0  0
 56 69  2  0  0  0
 57 58  2  0  0  0
 57132  1  0  0  0
 58133  1  0  0  0
 59 60  1  0  0  0
 59 61  1  0  0  0
 59 62  1  0  0  0
 60134  1  0  0  0
 60135  1  0  0  0
 60136  1  0  0  0
 61137  1  0  0  0
 61138  1  0  0  0
 61139  1  0  0  0
 62140  1  0  0  0
 62141  1  0  0  0
 62142  1  0  0  0
 63 65  1  0  0  0
 63143  1  0  0  0
 63144  1  0  0  0
 63145  1  0  0  0
 64146  1  0  0  0
 65147  1  0  0  0
 68 85  1  0  0  0
 71 72  2  0  0  0
 71 73  1  0  0  0
 71148  1  0  0  0
 72 74  1  0  0  0
 72 80  1  0  0  0
 73 75  2  0  0  0
 73 76  1  0  0  0
 74 81  1  0  0  0
 74 86  2  0  0  0
 75 86  1  0  0  0
 75 87  1  0  0  0
 76149  1  0  0  0
 76150  1  0  0  0
 76151  1  0  0  0
 77 81  1  0  0  0
 77152  1  0  0  0
 77153  1  0  0  0
 77154  1  0  0  0
 78 87  1  0  0  0
 78155  1  0  0  0
 78156  1  0  0  0
 78157  1  0  0  0
 79 88  1  0  0  0
 79158  1  0  0  0
 79159  1  0  0  0
 79160  1  0  0  0
 80 82  1  0  0  0
 80161  1  0  0  0
 80162  1  0  0  0
 81163  1  0  0  0
 81164  1  0  0  0
 82 83  1  0  0  0
 82165  1  0  0  0
 82166  1  0  0  0
 83 88  1  0  0  0
 83167  1  0  0  0
 83168  1  0  0  0
 84 85  1  0  0  0
 84 87  1  0  0  0
 84169  1  0  0  0
 84170  1  0  0  0
 85171  1  0  0  0
 85172  1  0  0  0
M  ISO  4   1 100  68 101  85 101  88 100
M  END
> <chiral flag>
0

> <version>
0

> <s_m_source_file>
/data/baiqing/PycharmProjects/Reinvent-master-3.2/result/LINK_invent/BTK/process_docking_weight1_custom_sum_contain_oxygen_bond_distance_aromatic_linkinvent_7_9_3/rearranged_h_0075.sdf

> <i_m_source_file_index>
57

> <r_mmod_Potential_Energy-OPLS-2005>
-143.263626098633

> <r_mmod_Stretch_Energy-OPLS-2005>
40.8214836120605

> <r_mmod_Bend_Energy-OPLS-2005>
117.766357421875

> <r_mmod_Torsional_Energy-OPLS-2005>
270.062042236328

> <r_mmod_Improper_Torsional_Energy-OPLS-2005>
4.6922173500061

> <r_mmod_Van_der_Waal_Energy-OPLS-2005>
173.847854614258

> <r_mmod_Electrostatic_Energy-OPLS-2005>
-542.2724609375

> <r_mmod_Solvation_Energy-OPLS-2005>
-217.77555847168

> <b_mmod_Minimization_Converged-OPLS-2005>
0

> <r_mmod_RMS_Derivative-OPLS-2005>
2.16993689537048

$$$$
58
                    3D
 Structure written by MMmdl.
156164  0  0  1  0            999 V2000
  -30.4199  -15.3141   20.3578 C   0  0  0  0  0  0
  -30.4384  -12.8475   19.5167 C   0  0  0  0  0  0
  -29.5362  -12.5830   18.2841 C   0  0  0  0  0  0
  -28.0867  -12.2983   18.7127 C   0  0  0  0  0  0
  -27.6087  -13.2770   19.8153 C   0  0  2  0  0  0
  -28.6434  -13.4751   20.9434 C   0  0  0  0  0  0
  -25.2401  -13.8251   20.5717 C   0  0  0  0  0  0
  -24.1750  -13.0439   20.9226 C   0  0  0  0  0  0
  -24.6408  -11.6930   20.8737 C   0  0  0  0  0  0
  -23.9108  -10.4292   21.0392 C   0  0  0  0  0  0
  -24.3652   -9.4213   21.9179 C   0  0  0  0  0  0
  -23.6312   -8.2260   22.0771 C   0  0  0  0  0  0
  -22.4294   -8.0290   21.3559 C   0  0  0  0  0  0
  -21.9932   -9.0258   20.4656 C   0  0  0  0  0  0
  -22.7271  -10.2130   20.3054 C   0  0  0  0  0  0
  -21.6862   -6.0735   22.5273 C   0  0  0  0  0  0
  -21.4017   -6.5634   23.8204 C   0  0  0  0  0  0
  -21.3663   -5.6791   24.9168 C   0  0  0  0  0  0
  -21.6051   -4.3056   24.7213 C   0  0  0  0  0  0
  -21.8825   -3.8143   23.4336 C   0  0  0  0  0  0
  -21.9198   -4.6962   22.3394 C   0  0  0  0  0  0
  -22.7769  -13.5207   21.1860 C   0  0  0  0  0  0
  -22.1665   -4.2147   21.0968 F   0  0  0  0  0  0
  -21.5635   -3.4539   25.7727 F   0  0  0  0  0  0
  -29.8622  -14.0000   20.3071 N   0  0  0  0  0  0
  -26.2824  -12.9519   20.3201 N   0  0  0  0  0  0
  -25.9349  -11.6625   20.5698 N   0  0  0  0  0  0
  -22.0426  -12.8204   22.0420 N   0  0  0  0  0  0
  -25.4037  -15.1991   20.4152 N   0  0  0  0  0  0
  -31.6477  -15.2967   20.1858 O   0  0  0  0  0  0
  -21.6659   -6.8880   21.4243 O   0  0  0  0  0  0
  -22.3445  -14.5487   20.6666 O   0  0  0  0  0  0
  -24.6668  -31.8197   23.1678 C   0  0  0  0  0  0
  -25.9340  -32.4554   23.8156 C   0  0  1  0  0  0
  -27.2131  -26.8963   20.1843 C   0  0  0  0  0  0
  -25.5990  -33.8370   24.2058 N   0  0  0  0  0  0
  -23.4809  -30.4307   21.5185 C   0  0  2  0  0  0
  -24.9319  -28.8092   20.1118 C   0  0  0  0  0  0
  -22.7672  -29.4430   22.4789 C   0  0  0  0  0  0
  -18.0310  -28.1417   22.8448 C   0  0  0  0  0  0
  -24.1499  -36.7197   23.2649 C   0  0  0  0  0  0
  -26.0515  -30.6151   21.4018 C   0  0  0  0  0  0
  -26.1172  -29.2023   20.7454 C   0  0  0  0  0  0
  -27.2521  -28.2674   20.7553 C   0  0  0  0  0  0
  -26.0003  -26.6633   19.4989 C   0  0  0  0  0  0
  -24.9002  -27.5608   19.4693 C   0  0  0  0  0  0
  -23.7200  -29.7413   20.1461 C   0  0  0  0  0  0
  -25.4142  -36.2944   24.0295 C   0  0  1  0  0  0
  -20.5934  -28.3767   23.1174 C   0  0  2  0  0  0
  -20.6796  -26.9444   22.5397 C   0  0  0  0  0  0
  -19.5774  -26.6377   21.5209 C   0  0  0  0  0  0
  -18.1950  -26.7944   22.1604 C   0  0  0  0  0  0
  -19.1577  -28.8910   23.2789 C   0  0  0  0  0  0
  -18.9486  -30.1497   23.8834 C   0  0  0  0  0  0
  -17.6488  -30.6601   24.0545 C   0  0  0  0  0  0
  -25.9112  -34.9327   23.4998 C   0  0  0  0  0  0
  -16.5370  -29.9086   23.6345 C   0  0  0  0  0  0
  -16.7294  -28.6507   23.0360 C   0  0  0  0  0  0
  -26.4576  -31.6516   25.0700 C   0  0  0  0  0  0
  -25.3711  -31.3762   26.1361 C   0  0  0  0  0  0
  -27.0488  -30.2872   24.6477 C   0  0  0  0  0  0
  -27.6055  -32.4345   25.7509 C   0  0  0  0  0  0
  -27.5573  -37.1753   24.8461 C   0  0  0  0  0  0
  -21.4340  -29.3046   22.3527 N   0  0  0  0  0  0
  -26.4279  -37.3690   23.9404 N   0  0  0  0  0  0
  -24.7548  -30.9830   22.0827 N   0  0  0  0  0  0
  -23.4201  -28.8011   23.3050 O   0  0  0  0  0  0
  -28.2064  -25.7748   20.2661 O   0  0  0  0  0  0
  -26.5718  -34.8869   22.4590 O   0  0  0  0  0  0
  -23.5731  -32.1186   23.6764 O   0  0  0  0  0  0
  -26.5872  -19.7381   19.5321 C   0  0  0  0  0  0
  -27.0450  -21.0047   19.7442 C   0  0  0  0  0  0
  -28.6991  -19.4944   20.1398 C   0  0  0  0  0  0
  -31.0302  -18.5513   19.3773 C   0  0  0  0  0  0
  -29.2006  -22.6353   21.8961 C   0  0  0  0  0  0
  -30.2026  -22.7461   19.6083 C   0  0  0  0  0  0
  -27.9548  -24.1357   20.0881 C   0  0  0  0  0  0
  -29.9086  -18.2730   20.3861 C   0  0  2  0  0  0
  -28.8942  -22.5866   20.3940 C   0  0  0  0  0  0
  -27.5997  -18.8344   19.7688 N   0  0  0  0  0  0
  -28.3886  -21.0011   20.1298 N   0  0  0  0  0  0
  -29.6553  -16.5994   20.4035 N   0  0  0  0  0  0
  -31.4500  -13.0675   19.1730 H   0  0  0  0  0  0
  -30.5283  -11.9517   20.1340 H   0  0  0  0  0  0
  -29.9281  -11.7522   17.6970 H   0  0  0  0  0  0
  -29.5541  -13.4567   17.6309 H   0  0  0  0  0  0
  -28.0470  -11.2733   19.0851 H   0  0  0  0  0  0
  -27.4225  -12.3355   17.8472 H   0  0  0  0  0  0
  -27.5147  -14.2367   19.3065 H   0  0  0  0  0  0
  -28.8321  -12.5473   21.4844 H   0  0  0  0  0  0
  -28.2726  -14.1953   21.6744 H   0  0  0  0  0  0
  -25.2804   -9.5679   22.4746 H   0  0  0  0  0  0
  -24.0013   -7.4659   22.7511 H   0  0  0  0  0  0
  -21.0865   -8.8773   19.8958 H   0  0  0  0  0  0
  -22.3739  -10.9662   19.6153 H   0  0  0  0  0  0
  -21.2002   -7.6141   23.9698 H   0  0  0  0  0  0
  -21.1487   -6.0523   25.9069 H   0  0  0  0  0  0
  -22.0598   -2.7604   23.2834 H   0  0  0  0  0  0
  -22.4060  -11.9893   22.4848 H   0  0  0  0  0  0
  -21.1029  -13.1211   22.2574 H   0  0  0  0  0  0
  -24.6357  -15.8502   20.5350 H   0  0  0  0  0  0
  -26.2465  -15.6440   20.0761 H   0  0  0  0  0  0
  -26.7412  -32.5072   23.0869 H   0  0  0  0  0  0
  -25.0078  -33.9437   25.0167 H   0  0  0  0  0  0
  -22.7966  -31.2636   21.3448 H   0  0  0  0  0  0
  -23.3772  -35.9516   23.3264 H   0  0  0  0  0  0
  -24.3582  -36.8896   22.2074 H   0  0  0  0  0  0
  -23.7252  -37.6366   23.6743 H   0  0  0  0  0  0
  -26.2381  -31.3545   20.6227 H   0  0  0  0  0  0
  -26.9099  -30.6700   22.0593 H   0  0  0  0  0  0
  -28.1485  -28.5648   21.2799 H   0  0  0  0  0  0
  -25.8674  -25.7108   19.0068 H   0  0  0  0  0  0
  -23.9984  -27.2526   18.9577 H   0  0  0  0  0  0
  -23.8764  -30.5071   19.3865 H   0  0  0  0  0  0
  -22.8281  -29.1976   19.8288 H   0  0  0  0  0  0
  -25.1346  -36.1729   25.0788 H   0  0  0  0  0  0
  -21.0006  -28.3380   24.1300 H   0  0  0  0  0  0
  -20.5681  -26.2388   23.3646 H   0  0  0  0  0  0
  -21.6663  -26.7426   22.1207 H   0  0  0  0  0  0
  -19.6950  -25.6269   21.1277 H   0  0  0  0  0  0
  -19.6724  -27.3151   20.6708 H   0  0  0  0  0  0
  -17.4227  -26.6661   21.4006 H   0  0  0  0  0  0
  -18.0354  -26.0100   22.9019 H   0  0  0  0  0  0
  -19.7969  -30.7317   24.2185 H   0  0  0  0  0  0
  -17.5040  -31.6278   24.5160 H   0  0  0  0  0  0
  -15.5377  -30.2973   23.7722 H   0  0  0  0  0  0
  -15.8681  -28.0812   22.7129 H   0  0  0  0  0  0
  -24.5903  -30.7096   25.7673 H   0  0  0  0  0  0
  -24.8887  -32.2952   26.4692 H   0  0  0  0  0  0
  -25.7950  -30.8992   27.0204 H   0  0  0  0  0  0
  -26.3165  -29.6528   24.1467 H   0  0  0  0  0  0
  -27.3967  -29.7263   25.5161 H   0  0  0  0  0  0
  -27.9125  -30.4028   23.9932 H   0  0  0  0  0  0
  -27.2604  -33.3687   26.1951 H   0  0  0  0  0  0
  -28.3932  -32.6846   25.0395 H   0  0  0  0  0  0
  -28.0648  -31.8573   26.5540 H   0  0  0  0  0  0
  -28.2554  -38.0082   24.7521 H   0  0  0  0  0  0
  -28.1104  -36.2604   24.6271 H   0  0  0  0  0  0
  -27.2281  -37.1372   25.8861 H   0  0  0  0  0  0
  -20.9626  -29.8717   21.6617 H   0  0  0  0  0  0
  -26.0117  -38.2741   24.1418 H   0  0  0  0  0  0
  -25.6016  -19.4126   19.2276 H   0  0  0  0  0  0
  -26.4878  -21.9252   19.6423 H   0  0  0  0  0  0
  -31.4002  -19.5723   19.4809 H   0  0  0  0  0  0
  -30.6676  -18.4350   18.3557 H   0  0  0  0  0  0
  -31.8826  -17.8875   19.5108 H   0  0  0  0  0  0
  -29.6533  -23.5860   22.1797 H   0  0  0  0  0  0
  -29.8749  -21.8332   22.1974 H   0  0  0  0  0  0
  -28.2821  -22.5289   22.4740 H   0  0  0  0  0  0
  -30.8971  -21.9326   19.8164 H   0  0  0  0  0  0
  -30.7010  -23.6835   19.8590 H   0  0  0  0  0  0
  -30.0138  -22.7557   18.5351 H   0  0  0  0  0  0
  -27.0242  -23.9902   20.6363 H   0  0  0  0  0  0
  -27.6555  -24.0566   19.0431 H   0  0  0  0  0  0
  -30.3148  -18.4841   21.3765 H   0  0  0  0  0  0
  -28.6651  -16.4153   20.4696 H   0  0  0  0  0  0
  1 25  1  0  0  0
  1 30  2  0  0  0
  1 82  1  0  0  0
  2  3  1  0  0  0
  2 25  1  0  0  0
  2 83  1  0  0  0
  2 84  1  0  0  0
  3  4  1  0  0  0
  3 85  1  0  0  0
  3 86  1  0  0  0
  4  5  1  0  0  0
  4 87  1  0  0  0
  4 88  1  0  0  0
  5  6  1  0  0  0
  5 26  1  0  0  0
  5 89  1  0  0  0
  6 25  1  0  0  0
  6 90  1  0  0  0
  6 91  1  0  0  0
  7  8  2  0  0  0
  7 26  1  0  0  0
  7 29  1  0  0  0
  8  9  1  0  0  0
  8 22  1  0  0  0
  9 10  1  0  0  0
  9 27  2  0  0  0
 10 11  2  0  0  0
 10 15  1  0  0  0
 11 12  1  0  0  0
 11 92  1  0  0  0
 12 13  2  0  0  0
 12 93  1  0  0  0
 13 14  1  0  0  0
 13 31  1  0  0  0
 14 15  2  0  0  0
 14 94  1  0  0  0
 15 95  1  0  0  0
 16 17  2  0  0  0
 16 21  1  0  0  0
 16 31  1  0  0  0
 17 18  1  0  0  0
 17 96  1  0  0  0
 18 19  2  0  0  0
 18 97  1  0  0  0
 19 20  1  0  0  0
 19 24  1  0  0  0
 20 21  2  0  0  0
 20 98  1  0  0  0
 21 23  1  0  0  0
 22 28  1  0  0  0
 22 32  2  0  0  0
 26 27  1  0  0  0
 28 99  1  0  0  0
 28100  1  0  0  0
 29101  1  0  0  0
 29102  1  0  0  0
 33 34  1  0  0  0
 33 66  1  0  0  0
 33 70  2  0  0  0
 34 36  1  0  0  0
 34 59  1  0  0  0
 34103  1  0  0  0
 35 44  2  0  0  0
 35 45  1  0  0  0
 35 68  1  0  0  0
 36 56  1  0  0  0
 36104  1  0  0  0
 37 39  1  0  0  0
 37 47  1  0  0  0
 37 66  1  0  0  0
 37105  1  0  0  0
 38 43  2  0  0  0
 38 46  1  0  0  0
 38 47  1  0  0  0
 39 64  1  0  0  0
 39 67  2  0  0  0
 40 52  1  0  0  0
 40 53  2  0  0  0
 40 58  1  0  0  0
 41106  1  0  0  0
 41107  1  0  0  0
 41108  1  0  0  0
 41 48  1  0  0  0
 42 43  1  0  0  0
 42 66  1  0  0  0
 42109  1  0  0  0
 42110  1  0  0  0
 43 44  1  0  0  0
 44111  1  0  0  0
 45 46  2  0  0  0
 45112  1  0  0  0
 46113  1  0  0  0
 47114  1  0  0  0
 47115  1  0  0  0
 48 56  1  0  0  0
 48 65  1  0  0  0
 48116  1  0  0  0
 49 50  1  0  0  0
 49 53  1  0  0  0
 49 64  1  0  0  0
 49117  1  0  0  0
 50 51  1  0  0  0
 50118  1  0  0  0
 50119  1  0  0  0
 51 52  1  0  0  0
 51120  1  0  0  0
 51121  1  0  0  0
 52122  1  0  0  0
 52123  1  0  0  0
 53 54  1  0  0  0
 54 55  2  0  0  0
 54124  1  0  0  0
 55 57  1  0  0  0
 55125  1  0  0  0
 56 69  2  0  0  0
 57 58  2  0  0  0
 57126  1  0  0  0
 58127  1  0  0  0
 59 60  1  0  0  0
 59 61  1  0  0  0
 59 62  1  0  0  0
 60128  1  0  0  0
 60129  1  0  0  0
 60130  1  0  0  0
 61131  1  0  0  0
 61132  1  0  0  0
 61133  1  0  0  0
 62134  1  0  0  0
 62135  1  0  0  0
 62136  1  0  0  0
 63 65  1  0  0  0
 63137  1  0  0  0
 63138  1  0  0  0
 63139  1  0  0  0
 64140  1  0  0  0
 65141  1  0  0  0
 68 77  1  0  0  0
 71 72  2  0  0  0
 71 80  1  0  0  0
 71142  1  0  0  0
 72 81  1  0  0  0
 72143  1  0  0  0
 73 78  1  0  0  0
 73 80  2  0  0  0
 73 81  1  0  0  0
 74144  1  0  0  0
 74145  1  0  0  0
 74146  1  0  0  0
 74 78  1  0  0  0
 75147  1  0  0  0
 75148  1  0  0  0
 75149  1  0  0  0
 75 79  1  0  0  0
 76 79  1  0  0  0
 76150  1  0  0  0
 76151  1  0  0  0
 76152  1  0  0  0
 77 79  1  0  0  0
 77153  1  0  0  0
 77154  1  0  0  0
 78 82  1  0  0  0
 78155  1  0  0  0
 79 81  1  0  0  0
 82156  1  0  0  0
M  ISO  4   1 100  68 101  77 101  82 100
M  END
> <chiral flag>
0

> <version>
0

> <s_m_source_file>
/data/baiqing/PycharmProjects/Reinvent-master-3.2/result/LINK_invent/BTK/process_docking_weight1_custom_sum_contain_oxygen_bond_distance_aromatic_linkinvent_7_9_3/rearranged_h_0075.sdf

> <i_m_source_file_index>
58

> <r_mmod_Potential_Energy-OPLS-2005>
1411.51989746094

> <r_mmod_Stretch_Energy-OPLS-2005>
684.495666503906

> <r_mmod_Bend_Energy-OPLS-2005>
523.934631347656

> <r_mmod_Torsional_Energy-OPLS-2005>
243.917358398438

> <r_mmod_Improper_Torsional_Energy-OPLS-2005>
3.94555640220642

> <r_mmod_Van_der_Waal_Energy-OPLS-2005>
97.7658309936523

> <r_mmod_Electrostatic_Energy-OPLS-2005>
-438.155151367188

> <r_mmod_Solvation_Energy-OPLS-2005>
-214.133911132812

> <b_mmod_Minimization_Converged-OPLS-2005>
0

> <r_mmod_RMS_Derivative-OPLS-2005>
2.0720100402832

$$$$
59
                    3D
 Structure written by MMmdl.
167175  0  0  1  0            999 V2000
  -30.6850  -14.6887   20.5788 C   0  0  0  0  0  0
  -30.4268  -12.4442   19.4681 C   0  0  0  0  0  0
  -29.5024  -12.5253   18.2348 C   0  0  0  0  0  0
  -28.0372  -12.3332   18.6611 C   0  0  0  0  0  0
  -27.6506  -13.2317   19.8638 C   0  0  2  0  0  0
  -28.6949  -13.1383   21.0012 C   0  0  0  0  0  0
  -25.2463  -13.8155   20.5604 C   0  0  0  0  0  0
  -24.1792  -13.0386   20.9214 C   0  0  0  0  0  0
  -24.6426  -11.6899   20.8783 C   0  0  0  0  0  0
  -23.9104  -10.4274   21.0417 C   0  0  0  0  0  0
  -24.3639   -9.4194   21.9199 C   0  0  0  0  0  0
  -23.6306   -8.2241   22.0763 C   0  0  0  0  0  0
  -22.4291   -8.0280   21.3549 C   0  0  0  0  0  0
  -21.9934   -9.0257   20.4650 C   0  0  0  0  0  0
  -22.7275  -10.2131   20.3062 C   0  0  0  0  0  0
  -21.6849   -6.0747   22.5291 C   0  0  0  0  0  0
  -21.4003   -6.5645   23.8227 C   0  0  0  0  0  0
  -21.3651   -5.6794   24.9188 C   0  0  0  0  0  0
  -21.6040   -4.3062   24.7233 C   0  0  0  0  0  0
  -21.8823   -3.8154   23.4357 C   0  0  0  0  0  0
  -21.9195   -4.6976   22.3410 C   0  0  0  0  0  0
  -22.7827  -13.5181   21.1864 C   0  0  0  0  0  0
  -22.1670   -4.2162   21.0991 F   0  0  0  0  0  0
  -21.5624   -3.4542   25.7748 F   0  0  0  0  0  0
  -30.0099  -13.4886   20.4427 N   0  0  0  0  0  0
  -26.2979  -12.9416   20.3342 N   0  0  0  0  0  0
  -25.9374  -11.6556   20.5835 N   0  0  0  0  0  0
  -22.0472  -12.8171   22.0430 N   0  0  0  0  0  0
  -25.3887  -15.1842   20.3786 N   0  0  0  0  0  0
  -31.7660  -14.8124   19.9937 O   0  0  0  0  0  0
  -21.6639   -6.8890   21.4252 O   0  0  0  0  0  0
  -22.3498  -14.5484   20.6720 O   0  0  0  0  0  0
  -24.6258  -31.8583   23.1972 C   0  0  0  0  0  0
  -25.9096  -32.4766   23.8331 C   0  0  1  0  0  0
  -27.2334  -27.2955   20.1152 C   0  0  0  0  0  0
  -25.5892  -33.8567   24.2280 N   0  0  0  0  0  0
  -23.4197  -30.4787   21.5416 C   0  0  2  0  0  0
  -24.8692  -28.9318   20.1050 C   0  0  0  0  0  0
  -22.7454  -29.4598   22.4918 C   0  0  0  0  0  0
  -18.0267  -28.1336   22.8459 C   0  0  0  0  0  0
  -24.1460  -36.7265   23.2648 C   0  0  0  0  0  0
  -25.9598  -30.7873   21.3636 C   0  0  0  0  0  0
  -26.0374  -29.4086   20.7105 C   0  0  0  0  0  0
  -27.2160  -28.6021   20.7075 C   0  0  0  0  0  0
  -26.0402  -26.8769   19.4830 C   0  0  0  0  0  0
  -24.8762  -27.6737   19.4808 C   0  0  0  0  0  0
  -23.6325  -29.8083   20.1578 C   0  0  0  0  0  0
  -25.4086  -36.3070   24.0339 C   0  0  1  0  0  0
  -20.5874  -28.3643   23.1250 C   0  0  2  0  0  0
  -20.6732  -26.9349   22.5413 C   0  0  0  0  0  0
  -19.5729  -26.6338   21.5173 C   0  0  0  0  0  0
  -18.1898  -26.7878   22.1584 C   0  0  0  0  0  0
  -19.1528  -28.8804   23.2845 C   0  0  0  0  0  0
  -18.9474  -30.1413   23.8868 C   0  0  0  0  0  0
  -17.6478  -30.6550   24.0558 C   0  0  0  0  0  0
  -25.9033  -34.9441   23.5108 C   0  0  0  0  0  0
  -16.5362  -29.9065   23.6319 C   0  0  0  0  0  0
  -16.7254  -28.6476   23.0336 C   0  0  0  0  0  0
  -26.4485  -31.6562   25.0688 C   0  0  0  0  0  0
  -25.3727  -31.3666   26.1423 C   0  0  0  0  0  0
  -27.0343  -30.3002   24.6099 C   0  0  0  0  0  0
  -27.6051  -32.4300   25.7431 C   0  0  0  0  0  0
  -27.5554  -37.1754   24.8458 C   0  0  0  0  0  0
  -21.4169  -29.3027   22.3652 N   0  0  0  0  0  0
  -26.4252  -37.3776   23.9428 N   0  0  0  0  0  0
  -24.6883  -31.0586   22.0915 N   0  0  0  0  0  0
  -23.4165  -28.8130   23.2996 O   0  0  0  0  0  0
  -28.3762  -26.4720   20.1916 O   0  0  0  0  0  0
  -26.5609  -34.8907   22.4685 O   0  0  0  0  0  0
  -23.5424  -32.1370   23.7309 O   0  0  0  0  0  0
  -28.0619  -17.0963   20.9637 C   0  0  0  0  0  0
  -29.4628  -17.2124   21.0238 C   0  0  0  0  0  0
  -27.7614  -19.3983   20.7880 C   0  0  0  0  0  0
  -29.1713  -19.6212   20.8034 C   0  0  0  0  0  0
  -26.2489  -20.7693   22.3017 C   0  0  0  0  0  0
  -31.4256  -16.2966   22.4570 C   0  0  0  0  0  0
  -30.1802  -21.3576   22.3839 C   0  0  0  0  0  0
  -29.8677  -24.4215   21.7507 C   0  0  0  0  0  0
  -26.7072  -20.4974   20.8639 C   0  0  0  0  0  0
  -29.3261  -22.4179   20.0997 C   0  0  0  0  0  0
  -28.4618  -25.0450   19.7311 C   0  0  0  0  0  0
  -30.2577  -15.9179   21.5252 C   0  0  2  0  0  0
  -29.8244  -21.0791   20.9161 C   0  0  2  0  0  0
  -28.8469  -23.8467   20.7492 C   0  0  2  0  0  0
  -27.2285  -18.1521   20.8338 N   0  0  0  0  0  0
  -30.0063  -18.4978   20.9190 N   0  0  0  0  0  0
  -31.4698  -12.5384   19.1620 H   0  0  0  0  0  0
  -30.3537  -11.4537   19.9217 H   0  0  0  0  0  0
  -29.7773  -11.7668   17.5007 H   0  0  0  0  0  0
  -29.6268  -13.4914   17.7415 H   0  0  0  0  0  0
  -27.9162  -11.2851   18.9398 H   0  0  0  0  0  0
  -27.3639  -12.5054   17.8207 H   0  0  0  0  0  0
  -27.6568  -14.2578   19.4949 H   0  0  0  0  0  0
  -28.7236  -12.1314   21.4199 H   0  0  0  0  0  0
  -28.4055  -13.7862   21.8239 H   0  0  0  0  0  0
  -25.2776   -9.5670   22.4789 H   0  0  0  0  0  0
  -24.0010   -7.4623   22.7485 H   0  0  0  0  0  0
  -21.0872   -8.8784   19.8947 H   0  0  0  0  0  0
  -22.3741  -10.9678   19.6181 H   0  0  0  0  0  0
  -21.1985   -7.6147   23.9735 H   0  0  0  0  0  0
  -21.1462   -6.0521   25.9089 H   0  0  0  0  0  0
  -22.0604   -2.7621   23.2860 H   0  0  0  0  0  0
  -22.4082  -11.9829   22.4814 H   0  0  0  0  0  0
  -21.1095  -13.1207   22.2633 H   0  0  0  0  0  0
  -24.6038  -15.8176   20.4840 H   0  0  0  0  0  0
  -26.2067  -15.6420   19.9983 H   0  0  0  0  0  0
  -26.7166  -32.5470   23.1094 H   0  0  0  0  0  0
  -24.9997  -33.9716   25.0388 H   0  0  0  0  0  0
  -22.7148  -31.3001   21.3971 H   0  0  0  0  0  0
  -23.3726  -35.9597   23.3334 H   0  0  0  0  0  0
  -24.3550  -36.8876   22.2061 H   0  0  0  0  0  0
  -23.7222  -37.6475   23.6672 H   0  0  0  0  0  0
  -26.0735  -31.5460   20.5886 H   0  0  0  0  0  0
  -26.8461  -30.8592   21.9797 H   0  0  0  0  0  0
  -28.1126  -28.9647   21.1912 H   0  0  0  0  0  0
  -25.9656  -25.9214   18.9913 H   0  0  0  0  0  0
  -23.9808  -27.3085   18.9951 H   0  0  0  0  0  0
  -23.7338  -30.5844   19.3975 H   0  0  0  0  0  0
  -22.7558  -29.2269   19.8681 H   0  0  0  0  0  0
  -25.1265  -36.1918   25.0834 H   0  0  0  0  0  0
  -20.9975  -28.3230   24.1368 H   0  0  0  0  0  0
  -20.5521  -26.2261   23.3628 H   0  0  0  0  0  0
  -21.6606  -26.7280   22.1282 H   0  0  0  0  0  0
  -19.6886  -25.6249   21.1208 H   0  0  0  0  0  0
  -19.6701  -27.3146   20.6701 H   0  0  0  0  0  0
  -17.4172  -26.6616   21.3992 H   0  0  0  0  0  0
  -18.0305  -26.0000   22.8965 H   0  0  0  0  0  0
  -19.7975  -30.7204   24.2218 H   0  0  0  0  0  0
  -17.5066  -31.6236   24.5166 H   0  0  0  0  0  0
  -15.5375  -30.2987   23.7661 H   0  0  0  0  0  0
  -15.8633  -28.0830   22.7041 H   0  0  0  0  0  0
  -24.5926  -30.6985   25.7748 H   0  0  0  0  0  0
  -24.8857  -32.2807   26.4831 H   0  0  0  0  0  0
  -25.8045  -30.8865   27.0206 H   0  0  0  0  0  0
  -26.2907  -29.6724   24.1180 H   0  0  0  0  0  0
  -27.4150  -29.7289   25.4571 H   0  0  0  0  0  0
  -27.8708  -30.4321   23.9234 H   0  0  0  0  0  0
  -27.2690  -33.3648   26.1939 H   0  0  0  0  0  0
  -28.3864  -32.6788   25.0232 H   0  0  0  0  0  0
  -28.0707  -31.8467   26.5393 H   0  0  0  0  0  0
  -28.2539  -38.0068   24.7546 H   0  0  0  0  0  0
  -28.1081  -36.2605   24.6247 H   0  0  0  0  0  0
  -27.2286  -37.1376   25.8861 H   0  0  0  0  0  0
  -20.9308  -29.8839   21.6967 H   0  0  0  0  0  0
  -26.0129  -38.2825   24.1543 H   0  0  0  0  0  0
  -27.5991  -16.1442   21.1597 H   0  0  0  0  0  0
  -25.5327  -21.5917   22.3280 H   0  0  0  0  0  0
  -27.0854  -21.0288   22.9504 H   0  0  0  0  0  0
  -25.7643  -19.8911   22.7274 H   0  0  0  0  0  0
  -31.0771  -16.9099   23.2877 H   0  0  0  0  0  0
  -32.2011  -16.8491   21.9253 H   0  0  0  0  0  0
  -31.8855  -15.4051   22.8845 H   0  0  0  0  0  0
  -30.5991  -20.4782   22.8725 H   0  0  0  0  0  0
  -29.3118  -21.6720   22.9630 H   0  0  0  0  0  0
  -30.9523  -22.1198   22.4563 H   0  0  0  0  0  0
  -29.7763  -23.9543   22.7302 H   0  0  0  0  0  0
  -29.7059  -25.4825   21.9386 H   0  0  0  0  0  0
  -30.8911  -24.3166   21.3897 H   0  0  0  0  0  0
  -25.8431  -20.1970   20.2691 H   0  0  0  0  0  0
  -27.0323  -21.4224   20.4129 H   0  0  0  0  0  0
  -28.6365  -22.1247   19.3068 H   0  0  0  0  0  0
  -30.2032  -22.7036   19.5160 H   0  0  0  0  0  0
  -27.5924  -24.7254   19.1692 H   0  0  0  0  0  0
  -29.2511  -25.0747   18.9808 H   0  0  0  0  0  0
  -29.5585  -15.4736   22.2268 H   0  0  0  0  0  0
  -30.7910  -20.8893   20.4457 H   0  0  0  0  0  0
  -27.9426  -23.6380   21.3225 H   0  0  0  0  0  0
  1 25  1  0  0  0
  1 30  2  0  0  0
  1 82  1  0  0  0
  2  3  1  0  0  0
  2 25  1  0  0  0
  2 87  1  0  0  0
  2 88  1  0  0  0
  3  4  1  0  0  0
  3 89  1  0  0  0
  3 90  1  0  0  0
  4  5  1  0  0  0
  4 91  1  0  0  0
  4 92  1  0  0  0
  5  6  1  0  0  0
  5 26  1  0  0  0
  5 93  1  0  0  0
  6 25  1  0  0  0
  6 94  1  0  0  0
  6 95  1  0  0  0
  7  8  2  0  0  0
  7 26  1  0  0  0
  7 29  1  0  0  0
  8  9  1  0  0  0
  8 22  1  0  0  0
  9 10  1  0  0  0
  9 27  2  0  0  0
 10 11  2  0  0  0
 10 15  1  0  0  0
 11 12  1  0  0  0
 11 96  1  0  0  0
 12 13  2  0  0  0
 12 97  1  0  0  0
 13 14  1  0  0  0
 13 31  1  0  0  0
 14 15  2  0  0  0
 14 98  1  0  0  0
 15 99  1  0  0  0
 16 17  2  0  0  0
 16 21  1  0  0  0
 16 31  1  0  0  0
 17 18  1  0  0  0
 17100  1  0  0  0
 18 19  2  0  0  0
 18101  1  0  0  0
 19 20  1  0  0  0
 19 24  1  0  0  0
 20 21  2  0  0  0
 20102  1  0  0  0
 21 23  1  0  0  0
 22 28  1  0  0  0
 22 32  2  0  0  0
 26 27  1  0  0  0
 28103  1  0  0  0
 28104  1  0  0  0
 29105  1  0  0  0
 29106  1  0  0  0
 33 34  1  0  0  0
 33 66  1  0  0  0
 33 70  2  0  0  0
 34 36  1  0  0  0
 34 59  1  0  0  0
 34107  1  0  0  0
 35 44  2  0  0  0
 35 45  1  0  0  0
 35 68  1  0  0  0
 36 56  1  0  0  0
 36108  1  0  0  0
 37 39  1  0  0  0
 37 47  1  0  0  0
 37 66  1  0  0  0
 37109  1  0  0  0
 38 43  2  0  0  0
 38 46  1  0  0  0
 38 47  1  0  0  0
 39 64  1  0  0  0
 39 67  2  0  0  0
 40 52  1  0  0  0
 40 53  2  0  0  0
 40 58  1  0  0  0
 41110  1  0  0  0
 41111  1  0  0  0
 41112  1  0  0  0
 41 48  1  0  0  0
 42 43  1  0  0  0
 42 66  1  0  0  0
 42113  1  0  0  0
 42114  1  0  0  0
 43 44  1  0  0  0
 44115  1  0  0  0
 45 46  2  0  0  0
 45116  1  0  0  0
 46117  1  0  0  0
 47118  1  0  0  0
 47119  1  0  0  0
 48 56  1  0  0  0
 48 65  1  0  0  0
 48120  1  0  0  0
 49 50  1  0  0  0
 49 53  1  0  0  0
 49 64  1  0  0  0
 49121  1  0  0  0
 50 51  1  0  0  0
 50122  1  0  0  0
 50123  1  0  0  0
 51 52  1  0  0  0
 51124  1  0  0  0
 51125  1  0  0  0
 52126  1  0  0  0
 52127  1  0  0  0
 53 54  1  0  0  0
 54 55  2  0  0  0
 54128  1  0  0  0
 55 57  1  0  0  0
 55129  1  0  0  0
 56 69  2  0  0  0
 57 58  2  0  0  0
 57130  1  0  0  0
 58131  1  0  0  0
 59 60  1  0  0  0
 59 61  1  0  0  0
 59 62  1  0  0  0
 60132  1  0  0  0
 60133  1  0  0  0
 60134  1  0  0  0
 61135  1  0  0  0
 61136  1  0  0  0
 61137  1  0  0  0
 62138  1  0  0  0
 62139  1  0  0  0
 62140  1  0  0  0
 63 65  1  0  0  0
 63141  1  0  0  0
 63142  1  0  0  0
 63143  1  0  0  0
 64144  1  0  0  0
 65145  1  0  0  0
 68 81  1  0  0  0
 71 72  2  0  0  0
 71 85  1  0  0  0
 71146  1  0  0  0
 72 82  1  0  0  0
 72 86  1  0  0  0
 73 74  1  0  0  0
 73 79  1  0  0  0
 73 85  2  0  0  0
 74 83  1  0  0  0
 74 86  2  0  0  0
 75 79  1  0  0  0
 75147  1  0  0  0
 75148  1  0  0  0
 75149  1  0  0  0
 76150  1  0  0  0
 76151  1  0  0  0
 76152  1  0  0  0
 76 82  1  0  0  0
 77153  1  0  0  0
 77154  1  0  0  0
 77155  1  0  0  0
 77 83  1  0  0  0
 78156  1  0  0  0
 78157  1  0  0  0
 78158  1  0  0  0
 78 84  1  0  0  0
 79159  1  0  0  0
 79160  1  0  0  0
 80 83  1  0  0  0
 80 84  1  0  0  0
 80161  1  0  0  0
 80162  1  0  0  0
 81 84  1  0  0  0
 81163  1  0  0  0
 81164  1  0  0  0
 82165  1  0  0  0
 83166  1  0  0  0
 84167  1  0  0  0
M  ISO  4   1 100  68 101  81 101  82 100
M  END
> <chiral flag>
0

> <version>
0

> <s_m_source_file>
/data/baiqing/PycharmProjects/Reinvent-master-3.2/result/LINK_invent/BTK/process_docking_weight1_custom_sum_contain_oxygen_bond_distance_aromatic_linkinvent_7_9_3/rearranged_h_0075.sdf

> <i_m_source_file_index>
59

> <r_mmod_Potential_Energy-OPLS-2005>
344.274230957031

> <r_mmod_Stretch_Energy-OPLS-2005>
144.288818359375

> <r_mmod_Bend_Energy-OPLS-2005>
240.459457397461

> <r_mmod_Torsional_Energy-OPLS-2005>
195.497085571289

> <r_mmod_Improper_Torsional_Energy-OPLS-2005>
5.89494752883911

> <r_mmod_Van_der_Waal_Energy-OPLS-2005>
146.156860351562

> <r_mmod_Electrostatic_Energy-OPLS-2005>
-254.840759277344

> <r_mmod_Solvation_Energy-OPLS-2005>
-192.533889770508

> <b_mmod_Minimization_Converged-OPLS-2005>
0

> <r_mmod_RMS_Derivative-OPLS-2005>
3.72444176673889

$$$$
60
                    3D
 Structure written by MMmdl.
161169  0  0  1  0            999 V2000
  -30.6607  -14.6946   20.4259 C   0  0  0  0  0  0
  -30.4116  -12.4030   19.4885 C   0  0  0  0  0  0
  -29.5112  -12.4712   18.2362 C   0  0  0  0  0  0
  -28.0268  -12.3201   18.6358 C   0  0  0  0  0  0
  -27.6314  -13.2204   19.8387 C   0  0  2  0  0  0
  -28.6754  -13.1864   20.9740 C   0  0  0  0  0  0
  -25.2470  -13.8150   20.5730 C   0  0  0  0  0  0
  -24.1739  -13.0400   20.9148 C   0  0  0  0  0  0
  -24.6329  -11.6877   20.8731 C   0  0  0  0  0  0
  -23.8997  -10.4260   21.0398 C   0  0  0  0  0  0
  -24.3583   -9.4199   21.9187 C   0  0  0  0  0  0
  -23.6261   -8.2227   22.0757 C   0  0  0  0  0  0
  -22.4251   -8.0246   21.3537 C   0  0  0  0  0  0
  -21.9845   -9.0224   20.4648 C   0  0  0  0  0  0
  -22.7171  -10.2105   20.3049 C   0  0  0  0  0  0
  -21.6833   -6.0714   22.5273 C   0  0  0  0  0  0
  -21.4012   -6.5624   23.8210 C   0  0  0  0  0  0
  -21.3662   -5.6780   24.9176 C   0  0  0  0  0  0
  -21.6046   -4.3040   24.7226 C   0  0  0  0  0  0
  -21.8824   -3.8131   23.4355 C   0  0  0  0  0  0
  -21.9194   -4.6934   22.3398 C   0  0  0  0  0  0
  -22.7774  -13.5207   21.1829 C   0  0  0  0  0  0
  -22.1670   -4.2131   21.0976 F   0  0  0  0  0  0
  -21.5625   -3.4529   25.7745 F   0  0  0  0  0  0
  -29.9895  -13.4946   20.3942 N   0  0  0  0  0  0
  -26.2862  -12.9326   20.3253 N   0  0  0  0  0  0
  -25.9238  -11.6484   20.5720 N   0  0  0  0  0  0
  -22.0411  -12.8272   22.0418 N   0  0  0  0  0  0
  -25.4131  -15.1887   20.4364 N   0  0  0  0  0  0
  -31.8721  -14.7230   20.1920 O   0  0  0  0  0  0
  -21.6621   -6.8847   21.4236 O   0  0  0  0  0  0
  -22.3497  -14.5549   20.6704 O   0  0  0  0  0  0
  -24.6259  -31.8561   23.2026 C   0  0  0  0  0  0
  -25.9119  -32.4752   23.8338 C   0  0  1  0  0  0
  -27.2243  -27.3059   20.1269 C   0  0  0  0  0  0
  -25.5926  -33.8553   24.2251 N   0  0  0  0  0  0
  -23.4207  -30.4821   21.5395 C   0  0  2  0  0  0
  -24.8674  -28.9211   20.1210 C   0  0  0  0  0  0
  -22.7458  -29.4638   22.4882 C   0  0  0  0  0  0
  -18.0286  -28.1409   22.8467 C   0  0  0  0  0  0
  -24.1471  -36.7258   23.2642 C   0  0  0  0  0  0
  -25.9644  -30.7776   21.3817 C   0  0  0  0  0  0
  -26.0366  -29.4043   20.7227 C   0  0  0  0  0  0
  -27.2197  -28.6071   20.7158 C   0  0  0  0  0  0
  -26.0356  -26.8643   19.5147 C   0  0  0  0  0  0
  -24.8662  -27.6540   19.5137 C   0  0  0  0  0  0
  -23.6397  -29.8100   20.1590 C   0  0  0  0  0  0
  -25.4101  -36.3047   24.0314 C   0  0  1  0  0  0
  -20.5895  -28.3725   23.1237 C   0  0  2  0  0  0
  -20.6794  -26.9438   22.5400 C   0  0  0  0  0  0
  -19.5772  -26.6395   21.5206 C   0  0  0  0  0  0
  -18.1948  -26.7948   22.1611 C   0  0  0  0  0  0
  -19.1549  -28.8877   23.2851 C   0  0  0  0  0  0
  -18.9465  -30.1486   23.8866 C   0  0  0  0  0  0
  -17.6472  -30.6606   24.0566 C   0  0  0  0  0  0
  -25.9050  -34.9427   23.5078 C   0  0  0  0  0  0
  -16.5355  -29.9095   23.6362 C   0  0  0  0  0  0
  -16.7277  -28.6518   23.0354 C   0  0  0  0  0  0
  -26.4508  -31.6596   25.0735 C   0  0  0  0  0  0
  -25.3750  -31.3773   26.1472 C   0  0  0  0  0  0
  -27.0397  -30.2994   24.6309 C   0  0  0  0  0  0
  -27.6033  -32.4395   25.7496 C   0  0  0  0  0  0
  -27.5559  -37.1773   24.8458 C   0  0  0  0  0  0
  -21.4174  -29.3050   22.3577 N   0  0  0  0  0  0
  -26.4269  -37.3750   23.9412 N   0  0  0  0  0  0
  -24.6877  -31.0581   22.0959 N   0  0  0  0  0  0
  -23.4152  -28.8203   23.3005 O   0  0  0  0  0  0
  -28.3452  -26.4673   20.0860 O   0  0  0  0  0  0
  -26.5624  -34.8894   22.4653 O   0  0  0  0  0  0
  -23.5423  -32.1366   23.7356 O   0  0  0  0  0  0
  -30.5017  -17.3028   20.8738 C   0  0  0  0  0  0
  -29.9571  -16.0831   20.4791 C   0  0  0  0  0  0
  -28.6458  -17.7585   19.7517 C   0  0  0  0  0  0
  -27.5133  -18.4233   19.0343 C   0  0  0  0  0  0
  -30.2818  -22.8823   21.6272 C   0  0  0  0  0  0
  -30.2160  -22.7720   19.1156 C   0  0  0  0  0  0
  -28.9109  -21.0445   20.5017 C   0  0  0  0  0  0
  -28.2105  -23.7276   20.2964 C   0  0  0  0  0  0
  -30.0073  -19.8574   20.3927 C   0  0  0  0  0  0
  -28.3430  -25.2261   20.8954 C   0  0  0  0  0  0
  -29.3808  -22.5998   20.4035 C   0  0  0  0  0  0
  -29.6792  -18.3453   20.3996 N   0  0  0  0  0  0
  -28.8330  -16.4191   19.7753 N   0  3  0  0  0  0
  -31.4658  -12.4650   19.2175 H   0  0  0  0  0  0
  -30.2920  -11.4368   19.9832 H   0  0  0  0  0  0
  -29.7844  -11.6837   17.5322 H   0  0  0  0  0  0
  -29.6731  -13.4140   17.7097 H   0  0  0  0  0  0
  -27.8463  -11.2721   18.8823 H   0  0  0  0  0  0
  -27.3903  -12.5425   17.7797 H   0  0  0  0  0  0
  -27.6019  -14.2280   19.4371 H   0  0  0  0  0  0
  -28.6873  -12.2055   21.4529 H   0  0  0  0  0  0
  -28.4183  -13.9010   21.7586 H   0  0  0  0  0  0
  -25.2728   -9.5705   22.4768 H   0  0  0  0  0  0
  -23.9977   -7.4627   22.7478 H   0  0  0  0  0  0
  -21.0763   -8.8746   19.8962 H   0  0  0  0  0  0
  -22.3620  -10.9655   19.6169 H   0  0  0  0  0  0
  -21.2018   -7.6133   23.9719 H   0  0  0  0  0  0
  -21.1465   -6.0496   25.9076 H   0  0  0  0  0  0
  -22.0603   -2.7578   23.2855 H   0  0  0  0  0  0
  -22.3995  -11.9952   22.4873 H   0  0  0  0  0  0
  -21.1045  -13.1365   22.2626 H   0  0  0  0  0  0
  -24.6330  -15.8195   20.5923 H   0  0  0  0  0  0
  -26.2967  -15.6711   20.3789 H   0  0  0  0  0  0
  -26.7173  -32.5403   23.1063 H   0  0  0  0  0  0
  -25.0068  -33.9699   25.0388 H   0  0  0  0  0  0
  -22.7157  -31.3032   21.3926 H   0  0  0  0  0  0
  -23.3731  -35.9599   23.3323 H   0  0  0  0  0  0
  -24.3545  -36.8872   22.2057 H   0  0  0  0  0  0
  -23.7242  -37.6456   23.6674 H   0  0  0  0  0  0
  -26.1213  -31.5430   20.6206 H   0  0  0  0  0  0
  -26.8325  -30.8095   22.0290 H   0  0  0  0  0  0
  -28.1177  -28.9783   21.1879 H   0  0  0  0  0  0
  -26.0106  -25.8947   19.0381 H   0  0  0  0  0  0
  -23.9647  -27.2740   19.0537 H   0  0  0  0  0  0
  -23.7766  -30.5835   19.4022 H   0  0  0  0  0  0
  -22.7563  -29.2475   19.8508 H   0  0  0  0  0  0
  -25.1296  -36.1864   25.0805 H   0  0  0  0  0  0
  -21.0007  -28.3367   24.1350 H   0  0  0  0  0  0
  -20.5738  -26.2339   23.3613 H   0  0  0  0  0  0
  -21.6663  -26.7496   22.1181 H   0  0  0  0  0  0
  -19.6957  -25.6305   21.1246 H   0  0  0  0  0  0
  -19.6733  -27.3196   20.6729 H   0  0  0  0  0  0
  -17.4223  -26.6678   21.4010 H   0  0  0  0  0  0
  -18.0364  -26.0106   22.9024 H   0  0  0  0  0  0
  -19.7943  -30.7320   24.2204 H   0  0  0  0  0  0
  -17.5022  -31.6282   24.5182 H   0  0  0  0  0  0
  -15.5359  -30.2982   23.7726 H   0  0  0  0  0  0
  -15.8667  -28.0840   22.7080 H   0  0  0  0  0  0
  -24.5873  -30.7178   25.7803 H   0  0  0  0  0  0
  -24.9022  -32.2975   26.4917 H   0  0  0  0  0  0
  -25.8076  -30.8915   27.0229 H   0  0  0  0  0  0
  -26.3028  -29.6688   24.1321 H   0  0  0  0  0  0
  -27.4000  -29.7318   25.4900 H   0  0  0  0  0  0
  -27.8926  -30.4204   23.9631 H   0  0  0  0  0  0
  -27.2580  -33.3685   26.2039 H   0  0  0  0  0  0
  -28.3835  -32.6997   25.0336 H   0  0  0  0  0  0
  -28.0715  -31.8583   26.5444 H   0  0  0  0  0  0
  -28.2576  -38.0067   24.7504 H   0  0  0  0  0  0
  -28.1053  -36.2601   24.6284 H   0  0  0  0  0  0
  -27.2281  -37.1417   25.8861 H   0  0  0  0  0  0
  -20.9368  -29.8603   21.6631 H   0  0  0  0  0  0
  -26.0130  -38.2805   24.1454 H   0  0  0  0  0  0
  -31.4379  -17.4850   21.3810 H   0  0  0  0  0  0
  -27.9072  -19.0191   18.2103 H   0  0  0  0  0  0
  -26.9602  -19.0407   19.7411 H   0  0  0  0  0  0
  -26.8463  -17.6542   18.6462 H   0  0  0  0  0  0
  -31.0642  -22.1327   21.7388 H   0  0  0  0  0  0
  -29.7147  -22.8968   22.5592 H   0  0  0  0  0  0
  -30.8069  -23.8327   21.5385 H   0  0  0  0  0  0
  -31.2025  -22.3121   19.1821 H   0  0  0  0  0  0
  -30.3775  -23.8266   18.8888 H   0  0  0  0  0  0
  -29.7098  -22.3404   18.2492 H   0  0  0  0  0  0
  -28.3778  -20.8978   21.4425 H   0  0  0  0  0  0
  -28.1682  -20.9015   19.7230 H   0  0  0  0  0  0
  -27.9171  -23.8245   19.2516 H   0  0  0  0  0  0
  -27.3175  -23.3015   20.7580 H   0  0  0  0  0  0
  -30.7429  -19.9969   21.1849 H   0  0  0  0  0  0
  -30.5561  -20.0154   19.4648 H   0  0  0  0  0  0
  -29.2511  -25.2998   21.4856 H   0  0  0  0  0  0
  -27.5609  -25.3444   21.6461 H   0  0  0  0  0  0
  -28.2967  -15.7666   19.2187 H   0  0  0  0  0  0
  1 25  1  0  0  0
  1 30  2  0  0  0
  1 72  1  0  0  0
  2  3  1  0  0  0
  2 25  1  0  0  0
  2 84  1  0  0  0
  2 85  1  0  0  0
  3  4  1  0  0  0
  3 86  1  0  0  0
  3 87  1  0  0  0
  4  5  1  0  0  0
  4 88  1  0  0  0
  4 89  1  0  0  0
  5  6  1  0  0  0
  5 26  1  0  0  0
  5 90  1  0  0  0
  6 25  1  0  0  0
  6 91  1  0  0  0
  6 92  1  0  0  0
  7  8  2  0  0  0
  7 26  1  0  0  0
  7 29  1  0  0  0
  8  9  1  0  0  0
  8 22  1  0  0  0
  9 10  1  0  0  0
  9 27  2  0  0  0
 10 11  2  0  0  0
 10 15  1  0  0  0
 11 12  1  0  0  0
 11 93  1  0  0  0
 12 13  2  0  0  0
 12 94  1  0  0  0
 13 14  1  0  0  0
 13 31  1  0  0  0
 14 15  2  0  0  0
 14 95  1  0  0  0
 15 96  1  0  0  0
 16 17  2  0  0  0
 16 21  1  0  0  0
 16 31  1  0  0  0
 17 18  1  0  0  0
 17 97  1  0  0  0
 18 19  2  0  0  0
 18 98  1  0  0  0
 19 20  1  0  0  0
 19 24  1  0  0  0
 20 21  2  0  0  0
 20 99  1  0  0  0
 21 23  1  0  0  0
 22 28  1  0  0  0
 22 32  2  0  0  0
 26 27  1  0  0  0
 28100  1  0  0  0
 28101  1  0  0  0
 29102  1  0  0  0
 29103  1  0  0  0
 33 34  1  0  0  0
 33 66  1  0  0  0
 33 70  2  0  0  0
 34 36  1  0  0  0
 34 59  1  0  0  0
 34104  1  0  0  0
 35 44  2  0  0  0
 35 45  1  0  0  0
 35 68  1  0  0  0
 36 56  1  0  0  0
 36105  1  0  0  0
 37 39  1  0  0  0
 37 47  1  0  0  0
 37 66  1  0  0  0
 37106  1  0  0  0
 38 43  2  0  0  0
 38 46  1  0  0  0
 38 47  1  0  0  0
 39 64  1  0  0  0
 39 67  2  0  0  0
 40 52  1  0  0  0
 40 53  2  0  0  0
 40 58  1  0  0  0
 41107  1  0  0  0
 41108  1  0  0  0
 41109  1  0  0  0
 41 48  1  0  0  0
 42 43  1  0  0  0
 42 66  1  0  0  0
 42110  1  0  0  0
 42111  1  0  0  0
 43 44  1  0  0  0
 44112  1  0  0  0
 45 46  2  0  0  0
 45113  1  0  0  0
 46114  1  0  0  0
 47115  1  0  0  0
 47116  1  0  0  0
 48 56  1  0  0  0
 48 65  1  0  0  0
 48117  1  0  0  0
 49 50  1  0  0  0
 49 53  1  0  0  0
 49 64  1  0  0  0
 49118  1  0  0  0
 50 51  1  0  0  0
 50119  1  0  0  0
 50120  1  0  0  0
 51 52  1  0  0  0
 51121  1  0  0  0
 51122  1  0  0  0
 52123  1  0  0  0
 52124  1  0  0  0
 53 54  1  0  0  0
 54 55  2  0  0  0
 54125  1  0  0  0
 55 57  1  0  0  0
 55126  1  0  0  0
 56 69  2  0  0  0
 57 58  2  0  0  0
 57127  1  0  0  0
 58128  1  0  0  0
 59 60  1  0  0  0
 59 61  1  0  0  0
 59 62  1  0  0  0
 60129  1  0  0  0
 60130  1  0  0  0
 60131  1  0  0  0
 61132  1  0  0  0
 61133  1  0  0  0
 61134  1  0  0  0
 62135  1  0  0  0
 62136  1  0  0  0
 62137  1  0  0  0
 63 65  1  0  0  0
 63138  1  0  0  0
 63139  1  0  0  0
 63140  1  0  0  0
 64141  1  0  0  0
 65142  1  0  0  0
 68 80  1  0  0  0
 71 72  2  0  0  0
 71 82  1  0  0  0
 71143  1  0  0  0
 72 83  1  0  0  0
 73 74  1  0  0  0
 73 82  1  0  0  0
 73 83  2  0  0  0
 74144  1  0  0  0
 74145  1  0  0  0
 74146  1  0  0  0
 75147  1  0  0  0
 75148  1  0  0  0
 75149  1  0  0  0
 75 81  1  0  0  0
 76 81  1  0  0  0
 76150  1  0  0  0
 76151  1  0  0  0
 76152  1  0  0  0
 77 79  1  0  0  0
 77 81  1  0  0  0
 77153  1  0  0  0
 77154  1  0  0  0
 78 80  1  0  0  0
 78 81  1  0  0  0
 78155  1  0  0  0
 78156  1  0  0  0
 79 82  1  0  0  0
 79157  1  0  0  0
 79158  1  0  0  0
 80159  1  0  0  0
 80160  1  0  0  0
 83161  1  0  0  0
M  CHG  1  83   1
M  ISO  4   1 100  68 101  72 100  80 101
M  END
> <chiral flag>
0

> <version>
0

> <s_m_source_file>
/data/baiqing/PycharmProjects/Reinvent-master-3.2/result/LINK_invent/BTK/process_docking_weight1_custom_sum_contain_oxygen_bond_distance_aromatic_linkinvent_7_9_3/rearranged_h_0075.sdf

> <i_m_source_file_index>
60

> <r_mmod_Potential_Energy-OPLS-2005>
176.595184326172

> <r_mmod_Stretch_Energy-OPLS-2005>
109.330368041992

> <r_mmod_Bend_Energy-OPLS-2005>
188.275955200195

> <r_mmod_Torsional_Energy-OPLS-2005>
284.618072509766

> <r_mmod_Improper_Torsional_Energy-OPLS-2005>
10.2500085830688

> <r_mmod_Van_der_Waal_Energy-OPLS-2005>
113.044319152832

> <r_mmod_Electrostatic_Energy-OPLS-2005>
-189.76806640625

> <r_mmod_Solvation_Energy-OPLS-2005>
-405.737274169922

> <b_mmod_Minimization_Converged-OPLS-2005>
0

> <r_mmod_RMS_Derivative-OPLS-2005>
4.72342109680176

$$$$
61
                    3D
 Structure written by MMmdl.
152160  0  0  1  0            999 V2000
  -30.5854  -14.9578   20.3863 C   0  0  0  0  0  0
  -30.4403  -12.5844   19.5087 C   0  0  0  0  0  0
  -29.5283  -12.5015   18.2639 C   0  0  0  0  0  0
  -28.0549  -12.3097   18.6684 C   0  0  0  0  0  0
  -27.6267  -13.2492   19.8266 C   0  0  2  0  0  0
  -28.6706  -13.3162   20.9577 C   0  0  0  0  0  0
  -25.2458  -13.8202   20.5739 C   0  0  0  0  0  0
  -24.1756  -13.0410   20.9162 C   0  0  0  0  0  0
  -24.6388  -11.6901   20.8686 C   0  0  0  0  0  0
  -23.9070  -10.4270   21.0353 C   0  0  0  0  0  0
  -24.3627   -9.4205   21.9142 C   0  0  0  0  0  0
  -23.6312   -8.2242   22.0729 C   0  0  0  0  0  0
  -22.4287   -8.0257   21.3534 C   0  0  0  0  0  0
  -21.9905   -9.0229   20.4640 C   0  0  0  0  0  0
  -22.7228  -10.2112   20.3037 C   0  0  0  0  0  0
  -21.6867   -6.0710   22.5266 C   0  0  0  0  0  0
  -21.4012   -6.5615   23.8192 C   0  0  0  0  0  0
  -21.3673   -5.6777   24.9165 C   0  0  0  0  0  0
  -21.6076   -4.3047   24.7232 C   0  0  0  0  0  0
  -21.8832   -3.8131   23.4351 C   0  0  0  0  0  0
  -21.9209   -4.6939   22.3400 C   0  0  0  0  0  0
  -22.7786  -13.5189   21.1848 C   0  0  0  0  0  0
  -22.1675   -4.2122   21.0980 F   0  0  0  0  0  0
  -21.5643   -3.4538   25.7750 F   0  0  0  0  0  0
  -29.9521  -13.7111   20.3580 N   0  0  0  0  0  0
  -26.2888  -12.9444   20.3242 N   0  0  0  0  0  0
  -25.9339  -11.6564   20.5715 N   0  0  0  0  0  0
  -22.0467  -12.8186   22.0429 N   0  0  0  0  0  0
  -25.4117  -15.1954   20.4360 N   0  0  0  0  0  0
  -31.8065  -14.9428   20.2033 O   0  0  0  0  0  0
  -21.6656   -6.8851   21.4233 O   0  0  0  0  0  0
  -22.3468  -14.5487   20.6694 O   0  0  0  0  0  0
  -24.6454  -31.8422   23.1834 C   0  0  0  0  0  0
  -25.9223  -32.4669   23.8225 C   0  0  1  0  0  0
  -27.2147  -27.1241   20.1469 C   0  0  0  0  0  0
  -25.5957  -33.8477   24.2137 N   0  0  0  0  0  0
  -23.4490  -30.4589   21.5306 C   0  0  2  0  0  0
  -24.8951  -28.8821   20.1057 C   0  0  0  0  0  0
  -22.7570  -29.4541   22.4852 C   0  0  0  0  0  0
  -18.0305  -28.1385   22.8489 C   0  0  0  0  0  0
  -24.1495  -36.7255   23.2635 C   0  0  0  0  0  0
  -26.0051  -30.7098   21.3857 C   0  0  0  0  0  0
  -26.0741  -29.3214   20.7230 C   0  0  0  0  0  0
  -27.2351  -28.4590   20.7244 C   0  0  0  0  0  0
  -26.0100  -26.7890   19.4896 C   0  0  0  0  0  0
  -24.8759  -27.6290   19.4749 C   0  0  0  0  0  0
  -23.6717  -29.7829   20.1515 C   0  0  0  0  0  0
  -25.4127  -36.3016   24.0301 C   0  0  1  0  0  0
  -20.5911  -28.3717   23.1221 C   0  0  2  0  0  0
  -20.6781  -26.9428   22.5390 C   0  0  0  0  0  0
  -19.5752  -26.6377   21.5199 C   0  0  0  0  0  0
  -18.1937  -26.7920   22.1636 C   0  0  0  0  0  0
  -19.1559  -28.8876   23.2843 C   0  0  0  0  0  0
  -18.9479  -30.1478   23.8862 C   0  0  0  0  0  0
  -17.6468  -30.6577   24.0568 C   0  0  0  0  0  0
  -25.9095  -34.9391   23.5039 C   0  0  0  0  0  0
  -16.5360  -29.9059   23.6361 C   0  0  0  0  0  0
  -16.7290  -28.6485   23.0376 C   0  0  0  0  0  0
  -26.4517  -31.6542   25.0688 C   0  0  0  0  0  0
  -25.3674  -31.3748   26.1365 C   0  0  0  0  0  0
  -27.0383  -30.2920   24.6306 C   0  0  0  0  0  0
  -27.6031  -32.4337   25.7461 C   0  0  0  0  0  0
  -27.5587  -37.1768   24.8456 C   0  0  0  0  0  0
  -21.4263  -29.3039   22.3603 N   0  0  0  0  0  0
  -26.4285  -37.3742   23.9416 N   0  0  0  0  0  0
  -24.7193  -31.0248   22.0869 N   0  0  0  0  0  0
  -23.4210  -28.8119   23.3029 O   0  0  0  0  0  0
  -28.2634  -26.1331   20.2320 O   0  0  0  0  0  0
  -26.5703  -34.8902   22.4628 O   0  0  0  0  0  0
  -23.5577  -32.1318   23.7049 O   0  0  0  0  0  0
  -30.4015  -17.6843   20.7802 C   0  0  0  0  0  0
  -29.8862  -16.4134   20.4098 C   0  0  0  0  0  0
  -28.4541  -18.1038   19.8447 C   0  0  0  0  0  0
  -27.2241  -18.7433   19.2905 C   0  0  0  0  0  0
  -28.7053  -21.6376   20.1209 C   0  0  0  0  0  0
  -28.9719  -23.2852   20.4639 C   0  0  0  0  0  0
  -29.6444  -20.3419   20.6840 C   0  0  0  0  0  0
  -28.0033  -24.6036   20.0230 C   0  0  0  0  0  0
  -29.4991  -18.7460   20.4282 N   0  0  0  0  0  0
  -28.7005  -16.7584   19.8023 N   0  3  0  0  0  0
  -31.4733  -12.7189   19.1881 H   0  0  0  0  0  0
  -30.4308  -11.6445   20.0631 H   0  0  0  0  0  0
  -29.8436  -11.6746   17.6265 H   0  0  0  0  0  0
  -29.6399  -13.4088   17.6692 H   0  0  0  0  0  0
  -27.9342  -11.2684   18.9727 H   0  0  0  0  0  0
  -27.4045  -12.4519   17.8042 H   0  0  0  0  0  0
  -27.5746  -14.2405   19.3801 H   0  0  0  0  0  0
  -28.7590  -12.3519   21.4614 H   0  0  0  0  0  0
  -28.3709  -14.0342   21.7196 H   0  0  0  0  0  0
  -25.2768   -9.5703   22.4711 H   0  0  0  0  0  0
  -24.0043   -7.4635   22.7440 H   0  0  0  0  0  0
  -21.0843   -8.8743   19.8939 H   0  0  0  0  0  0
  -22.3660  -10.9653   19.6157 H   0  0  0  0  0  0
  -21.1961   -7.6118   23.9692 H   0  0  0  0  0  0
  -21.1498   -6.0496   25.9071 H   0  0  0  0  0  0
  -22.0600   -2.7584   23.2858 H   0  0  0  0  0  0
  -22.4104  -11.9863   22.4853 H   0  0  0  0  0  0
  -21.1071  -13.1172   22.2615 H   0  0  0  0  0  0
  -24.6488  -15.8355   20.6240 H   0  0  0  0  0  0
  -26.3050  -15.6562   20.4053 H   0  0  0  0  0  0
  -26.7284  -32.5244   23.0953 H   0  0  0  0  0  0
  -25.0013  -33.9548   25.0221 H   0  0  0  0  0  0
  -22.7539  -31.2878   21.3737 H   0  0  0  0  0  0
  -23.3760  -35.9583   23.3259 H   0  0  0  0  0  0
  -24.3599  -36.8951   22.2064 H   0  0  0  0  0  0
  -23.7239  -37.6424   23.6718 H   0  0  0  0  0  0
  -26.1708  -31.4687   20.6203 H   0  0  0  0  0  0
  -26.8698  -30.7492   22.0359 H   0  0  0  0  0  0
  -28.1334  -28.7875   21.2281 H   0  0  0  0  0  0
  -25.9085  -25.8284   19.0039 H   0  0  0  0  0  0
  -23.9747  -27.2865   18.9842 H   0  0  0  0  0  0
  -23.8019  -30.5533   19.3885 H   0  0  0  0  0  0
  -22.7859  -29.2194   19.8513 H   0  0  0  0  0  0
  -25.1322  -36.1824   25.0792 H   0  0  0  0  0  0
  -21.0003  -28.3301   24.1338 H   0  0  0  0  0  0
  -20.5654  -26.2346   23.3621 H   0  0  0  0  0  0
  -21.6647  -26.7420   22.1209 H   0  0  0  0  0  0
  -19.6911  -25.6274   21.1275 H   0  0  0  0  0  0
  -19.6661  -27.3147   20.6699 H   0  0  0  0  0  0
  -17.4207  -26.6662   21.4051 H   0  0  0  0  0  0
  -18.0360  -26.0042   22.9027 H   0  0  0  0  0  0
  -19.7944  -30.7326   24.2182 H   0  0  0  0  0  0
  -17.5009  -31.6251   24.5175 H   0  0  0  0  0  0
  -15.5356  -30.2952   23.7669 H   0  0  0  0  0  0
  -15.8703  -28.0784   22.7095 H   0  0  0  0  0  0
  -24.5802  -30.7187   25.7644 H   0  0  0  0  0  0
  -24.8922  -32.2944   26.4785 H   0  0  0  0  0  0
  -25.7903  -30.8872   27.0153 H   0  0  0  0  0  0
  -26.2998  -29.6616   24.1333 H   0  0  0  0  0  0
  -27.3981  -29.7264   25.4906 H   0  0  0  0  0  0
  -27.8933  -30.4135   23.9650 H   0  0  0  0  0  0
  -27.2582  -33.3622   26.2024 H   0  0  0  0  0  0
  -28.3812  -32.6932   25.0272 H   0  0  0  0  0  0
  -28.0738  -31.8496   26.5375 H   0  0  0  0  0  0
  -28.2567  -38.0101   24.7567 H   0  0  0  0  0  0
  -28.1129  -36.2639   24.6207 H   0  0  0  0  0  0
  -27.2342  -37.1337   25.8867 H   0  0  0  0  0  0
  -20.9462  -29.8768   21.6800 H   0  0  0  0  0  0
  -26.0150  -38.2820   24.1393 H   0  0  0  0  0  0
  -31.3489  -17.8967   21.2553 H   0  0  0  0  0  0
  -26.7202  -19.2893   20.0857 H   0  0  0  0  0  0
  -26.5587  -17.9716   18.9062 H   0  0  0  0  0  0
  -27.5091  -19.4141   18.4818 H   0  0  0  0  0  0
  -28.6926  -21.5519   19.0346 H   0  0  0  0  0  0
  -27.6803  -21.4349   20.4263 H   0  0  0  0  0  0
  -29.9725  -23.5150   20.0932 H   0  0  0  0  0  0
  -29.0646  -23.3467   21.5490 H   0  0  0  0  0  0
  -29.6522  -20.4306   21.7701 H   0  0  0  0  0  0
  -30.6704  -20.5642   20.3904 H   0  0  0  0  0  0
  -27.0365  -24.4082   20.4876 H   0  0  0  0  0  0
  -27.8285  -24.4879   18.9526 H   0  0  0  0  0  0
  -28.1349  -16.0979   19.2900 H   0  0  0  0  0  0
  1 25  1  0  0  0
  1 30  2  0  0  0
  1 72  1  0  0  0
  2  3  1  0  0  0
  2 25  1  0  0  0
  2 81  1  0  0  0
  2 82  1  0  0  0
  3  4  1  0  0  0
  3 83  1  0  0  0
  3 84  1  0  0  0
  4  5  1  0  0  0
  4 85  1  0  0  0
  4 86  1  0  0  0
  5  6  1  0  0  0
  5 26  1  0  0  0
  5 87  1  0  0  0
  6 25  1  0  0  0
  6 88  1  0  0  0
  6 89  1  0  0  0
  7  8  2  0  0  0
  7 26  1  0  0  0
  7 29  1  0  0  0
  8  9  1  0  0  0
  8 22  1  0  0  0
  9 10  1  0  0  0
  9 27  2  0  0  0
 10 11  2  0  0  0
 10 15  1  0  0  0
 11 12  1  0  0  0
 11 90  1  0  0  0
 12 13  2  0  0  0
 12 91  1  0  0  0
 13 14  1  0  0  0
 13 31  1  0  0  0
 14 15  2  0  0  0
 14 92  1  0  0  0
 15 93  1  0  0  0
 16 17  2  0  0  0
 16 21  1  0  0  0
 16 31  1  0  0  0
 17 18  1  0  0  0
 17 94  1  0  0  0
 18 19  2  0  0  0
 18 95  1  0  0  0
 19 20  1  0  0  0
 19 24  1  0  0  0
 20 21  2  0  0  0
 20 96  1  0  0  0
 21 23  1  0  0  0
 22 28  1  0  0  0
 22 32  2  0  0  0
 26 27  1  0  0  0
 28 97  1  0  0  0
 28 98  1  0  0  0
 29 99  1  0  0  0
 29100  1  0  0  0
 33 34  1  0  0  0
 33 66  1  0  0  0
 33 70  2  0  0  0
 34 36  1  0  0  0
 34 59  1  0  0  0
 34101  1  0  0  0
 35 44  2  0  0  0
 35 45  1  0  0  0
 35 68  1  0  0  0
 36 56  1  0  0  0
 36102  1  0  0  0
 37 39  1  0  0  0
 37 47  1  0  0  0
 37 66  1  0  0  0
 37103  1  0  0  0
 38 43  2  0  0  0
 38 46  1  0  0  0
 38 47  1  0  0  0
 39 64  1  0  0  0
 39 67  2  0  0  0
 40 52  1  0  0  0
 40 53  2  0  0  0
 40 58  1  0  0  0
 41104  1  0  0  0
 41105  1  0  0  0
 41106  1  0  0  0
 41 48  1  0  0  0
 42 43  1  0  0  0
 42 66  1  0  0  0
 42107  1  0  0  0
 42108  1  0  0  0
 43 44  1  0  0  0
 44109  1  0  0  0
 45 46  2  0  0  0
 45110  1  0  0  0
 46111  1  0  0  0
 47112  1  0  0  0
 47113  1  0  0  0
 48 56  1  0  0  0
 48 65  1  0  0  0
 48114  1  0  0  0
 49 50  1  0  0  0
 49 53  1  0  0  0
 49 64  1  0  0  0
 49115  1  0  0  0
 50 51  1  0  0  0
 50116  1  0  0  0
 50117  1  0  0  0
 51 52  1  0  0  0
 51118  1  0  0  0
 51119  1  0  0  0
 52120  1  0  0  0
 52121  1  0  0  0
 53 54  1  0  0  0
 54 55  2  0  0  0
 54122  1  0  0  0
 55 57  1  0  0  0
 55123  1  0  0  0
 56 69  2  0  0  0
 57 58  2  0  0  0
 57124  1  0  0  0
 58125  1  0  0  0
 59 60  1  0  0  0
 59 61  1  0  0  0
 59 62  1  0  0  0
 60126  1  0  0  0
 60127  1  0  0  0
 60128  1  0  0  0
 61129  1  0  0  0
 61130  1  0  0  0
 61131  1  0  0  0
 62132  1  0  0  0
 62133  1  0  0  0
 62134  1  0  0  0
 63 65  1  0  0  0
 63135  1  0  0  0
 63136  1  0  0  0
 63137  1  0  0  0
 64138  1  0  0  0
 65139  1  0  0  0
 68 78  1  0  0  0
 71 72  2  0  0  0
 71 79  1  0  0  0
 71140  1  0  0  0
 72 80  1  0  0  0
 73 74  1  0  0  0
 73 79  1  0  0  0
 73 80  2  0  0  0
 74141  1  0  0  0
 74142  1  0  0  0
 74143  1  0  0  0
 75 76  1  0  0  0
 75 77  1  0  0  0
 75144  1  0  0  0
 75145  1  0  0  0
 76 78  1  0  0  0
 76146  1  0  0  0
 76147  1  0  0  0
 77 79  1  0  0  0
 77148  1  0  0  0
 77149  1  0  0  0
 78150  1  0  0  0
 78151  1  0  0  0
 80152  1  0  0  0
M  CHG  1  80   1
M  ISO  4   1 100  68 101  72 100  78 101
M  END
> <chiral flag>
0

> <version>
0

> <s_m_source_file>
/data/baiqing/PycharmProjects/Reinvent-master-3.2/result/LINK_invent/BTK/process_docking_weight1_custom_sum_contain_oxygen_bond_distance_aromatic_linkinvent_7_9_3/rearranged_h_0075.sdf

> <i_m_source_file_index>
61

> <r_mmod_Potential_Energy-OPLS-2005>
477.441741943359

> <r_mmod_Stretch_Energy-OPLS-2005>
271.368835449219

> <r_mmod_Bend_Energy-OPLS-2005>
273.448822021484

> <r_mmod_Torsional_Energy-OPLS-2005>
221.901794433594

> <r_mmod_Improper_Torsional_Energy-OPLS-2005>
6.17626285552979

> <r_mmod_Van_der_Waal_Energy-OPLS-2005>
103.615188598633

> <r_mmod_Electrostatic_Energy-OPLS-2005>
-181.843551635742

> <r_mmod_Solvation_Energy-OPLS-2005>
-419.917327880859

> <b_mmod_Minimization_Converged-OPLS-2005>
0

> <r_mmod_RMS_Derivative-OPLS-2005>
3.42219567298889

$$$$
62
                    3D
 Structure written by MMmdl.
168176  0  0  1  0            999 V2000
  -30.6969  -14.7469   20.3953 C   0  0  0  0  0  0
  -30.4120  -12.4480   19.4840 C   0  0  0  0  0  0
  -29.4985  -12.4683   18.2410 C   0  0  0  0  0  0
  -28.0339  -12.2556   18.6640 C   0  0  0  0  0  0
  -27.6174  -13.1913   19.8238 C   0  0  2  0  0  0
  -28.6729  -13.2573   20.9549 C   0  0  0  0  0  0
  -25.2458  -13.8057   20.5706 C   0  0  0  0  0  0
  -24.1744  -13.0354   20.9263 C   0  0  0  0  0  0
  -24.6310  -11.6831   20.8816 C   0  0  0  0  0  0
  -23.8994  -10.4242   21.0462 C   0  0  0  0  0  0
  -24.3567   -9.4161   21.9220 C   0  0  0  0  0  0
  -23.6254   -8.2197   22.0768 C   0  0  0  0  0  0
  -22.4241   -8.0246   21.3547 C   0  0  0  0  0  0
  -21.9869   -9.0219   20.4653 C   0  0  0  0  0  0
  -22.7188  -10.2101   20.3082 C   0  0  0  0  0  0
  -21.6840   -6.0712   22.5284 C   0  0  0  0  0  0
  -21.4002   -6.5628   23.8212 C   0  0  0  0  0  0
  -21.3650   -5.6787   24.9180 C   0  0  0  0  0  0
  -21.6039   -4.3051   24.7232 C   0  0  0  0  0  0
  -21.8820   -3.8133   23.4360 C   0  0  0  0  0  0
  -21.9191   -4.6944   22.3410 C   0  0  0  0  0  0
  -22.7783  -13.5188   21.1903 C   0  0  0  0  0  0
  -22.1666   -4.2130   21.0988 F   0  0  0  0  0  0
  -21.5628   -3.4539   25.7748 F   0  0  0  0  0  0
  -29.9829  -13.5628   20.3645 N   0  0  0  0  0  0
  -26.2815  -12.9165   20.3249 N   0  0  0  0  0  0
  -25.9216  -11.6368   20.5810 N   0  0  0  0  0  0
  -22.0414  -12.8193   22.0458 N   0  0  0  0  0  0
  -25.4103  -15.1775   20.4056 N   0  0  0  0  0  0
  -31.9179  -14.6518   20.2433 O   0  0  0  0  0  0
  -21.6614   -6.8846   21.4240 O   0  0  0  0  0  0
  -22.3498  -14.5502   20.6744 O   0  0  0  0  0  0
  -24.6261  -31.8599   23.2034 C   0  0  0  0  0  0
  -25.9110  -32.4780   23.8360 C   0  0  1  0  0  0
  -27.2175  -27.3017   20.1246 C   0  0  0  0  0  0
  -25.5917  -33.8580   24.2289 N   0  0  0  0  0  0
  -23.4207  -30.4854   21.5453 C   0  0  2  0  0  0
  -24.8685  -28.9443   20.1076 C   0  0  0  0  0  0
  -22.7473  -29.4631   22.4919 C   0  0  0  0  0  0
  -18.0288  -28.1393   22.8487 C   0  0  0  0  0  0
  -24.1489  -36.7296   23.2637 C   0  0  0  0  0  0
  -25.9647  -30.7851   21.3803 C   0  0  0  0  0  0
  -26.0375  -29.4127   20.7203 C   0  0  0  0  0  0
  -27.2142  -28.6022   20.7220 C   0  0  0  0  0  0
  -26.0304  -26.9059   19.4620 C   0  0  0  0  0  0
  -24.8685  -27.6976   19.4670 C   0  0  0  0  0  0
  -23.6371  -29.8251   20.1592 C   0  0  0  0  0  0
  -25.4115  -36.3084   24.0331 C   0  0  1  0  0  0
  -20.5891  -28.3706   23.1272 C   0  0  2  0  0  0
  -20.6781  -26.9428   22.5407 C   0  0  0  0  0  0
  -19.5760  -26.6389   21.5209 C   0  0  0  0  0  0
  -18.1937  -26.7936   22.1623 C   0  0  0  0  0  0
  -19.1542  -28.8862   23.2875 C   0  0  0  0  0  0
  -18.9465  -30.1462   23.8901 C   0  0  0  0  0  0
  -17.6464  -30.6596   24.0559 C   0  0  0  0  0  0
  -25.9048  -34.9452   23.5113 C   0  0  0  0  0  0
  -16.5355  -29.9097   23.6324 C   0  0  0  0  0  0
  -16.7274  -28.6513   23.0348 C   0  0  0  0  0  0
  -26.4491  -31.6581   25.0726 C   0  0  0  0  0  0
  -25.3719  -31.3713   26.1447 C   0  0  0  0  0  0
  -27.0342  -30.3002   24.6196 C   0  0  0  0  0  0
  -27.6054  -32.4318   25.7496 C   0  0  0  0  0  0
  -27.5583  -37.1799   24.8465 C   0  0  0  0  0  0
  -21.4187  -29.3056   22.3658 N   0  0  0  0  0  0
  -26.4297  -37.3779   23.9411 N   0  0  0  0  0  0
  -24.6890  -31.0598   22.0996 N   0  0  0  0  0  0
  -23.4190  -28.8163   23.2996 O   0  0  0  0  0  0
  -28.3130  -26.4181   20.2151 O   0  0  0  0  0  0
  -26.5624  -34.8921   22.4683 O   0  0  0  0  0  0
  -23.5422  -32.1409   23.7353 O   0  0  0  0  0  0
  -30.0449  -18.5962   23.0718 C   0  0  0  0  0  0
  -30.1893  -17.1453   21.5418 C   0  0  0  0  0  0
  -29.7247  -19.7856   23.9145 C   0  0  0  0  0  0
  -31.0258  -16.9481   19.1801 C   0  0  0  0  0  0
  -28.6933  -16.3371   19.6957 C   0  0  0  0  0  0
  -29.2285  -22.0808   18.7378 C   0  0  0  0  0  0
  -27.1974  -21.9941   20.1986 C   0  0  0  0  0  0
  -29.4265  -21.1496   21.1036 C   0  0  0  0  0  0
  -28.9750  -23.8050   20.6127 C   0  0  0  0  0  0
  -29.2144  -19.5642   20.8291 C   0  0  0  0  0  0
  -28.0668  -24.9669   19.9780 C   0  0  0  0  0  0
  -30.1195  -16.2760   20.2494 C   0  0  0  0  0  0
  -28.7177  -22.2635   20.1796 C   0  0  0  0  0  0
  -30.5524  -17.5072   23.6479 N   0  0  0  0  0  0
  -30.6408  -16.5747   22.6676 N   0  0  0  0  0  0
  -29.8269  -18.4941   21.7303 N   0  0  0  0  0  0
  -31.4552  -12.5235   19.1725 H   0  0  0  0  0  0
  -30.3296  -11.4953   20.0097 H   0  0  0  0  0  0
  -29.7996  -11.6903   17.5384 H   0  0  0  0  0  0
  -29.6032  -13.4175   17.7127 H   0  0  0  0  0  0
  -27.9279  -11.2156   18.9751 H   0  0  0  0  0  0
  -27.3680  -12.3871   17.8099 H   0  0  0  0  0  0
  -27.5308  -14.1469   19.3375 H   0  0  0  0  0  0
  -28.7177  -12.3102   21.4946 H   0  0  0  0  0  0
  -28.4030  -14.0157   21.6909 H   0  0  0  0  0  0
  -25.2713   -9.5643   22.4793 H   0  0  0  0  0  0
  -23.9965   -7.4576   22.7474 H   0  0  0  0  0  0
  -21.0809   -8.8731   19.8945 H   0  0  0  0  0  0
  -22.3654  -10.9645   19.6195 H   0  0  0  0  0  0
  -21.1995   -7.6137   23.9710 H   0  0  0  0  0  0
  -21.1472   -6.0524   25.9082 H   0  0  0  0  0  0
  -22.0609   -2.7596   23.2871 H   0  0  0  0  0  0
  -22.4016  -11.9849   22.4846 H   0  0  0  0  0  0
  -21.1037  -13.1235   22.2665 H   0  0  0  0  0  0
  -24.6355  -15.8238   20.5111 H   0  0  0  0  0  0
  -26.2471  -15.6172   20.0472 H   0  0  0  0  0  0
  -26.7168  -32.5455   23.1098 H   0  0  0  0  0  0
  -25.0016  -33.9727   25.0400 H   0  0  0  0  0  0
  -22.7143  -31.3064   21.4039 H   0  0  0  0  0  0
  -23.3753  -35.9624   23.3298 H   0  0  0  0  0  0
  -24.3568  -36.8923   22.2050 H   0  0  0  0  0  0
  -23.7251  -37.6500   23.6664 H   0  0  0  0  0  0
  -26.1004  -31.5488   20.6134 H   0  0  0  0  0  0
  -26.8434  -30.8312   22.0117 H   0  0  0  0  0  0
  -28.1065  -28.9499   21.2233 H   0  0  0  0  0  0
  -25.9639  -25.9612   18.9432 H   0  0  0  0  0  0
  -23.9767  -27.3392   18.9720 H   0  0  0  0  0  0
  -23.7586  -30.6050   19.4065 H   0  0  0  0  0  0
  -22.7561  -29.2575   19.8538 H   0  0  0  0  0  0
  -25.1295  -36.1926   25.0825 H   0  0  0  0  0  0
  -20.9991  -28.3297   24.1390 H   0  0  0  0  0  0
  -20.5683  -26.2318   23.3610 H   0  0  0  0  0  0
  -21.6651  -26.7461   22.1201 H   0  0  0  0  0  0
  -19.6923  -25.6297   21.1248 H   0  0  0  0  0  0
  -19.6702  -27.3190   20.6732 H   0  0  0  0  0  0
  -17.4205  -26.6670   21.4027 H   0  0  0  0  0  0
  -18.0351  -26.0082   22.9029 H   0  0  0  0  0  0
  -19.7940  -30.7273   24.2280 H   0  0  0  0  0  0
  -17.5024  -31.6277   24.5168 H   0  0  0  0  0  0
  -15.5361  -30.3001   23.7662 H   0  0  0  0  0  0
  -15.8669  -28.0837   22.7068 H   0  0  0  0  0  0
  -24.5912  -30.7042   25.7768 H   0  0  0  0  0  0
  -24.8880  -32.2870   26.4854 H   0  0  0  0  0  0
  -25.8040  -30.8902   27.0229 H   0  0  0  0  0  0
  -26.2924  -29.6736   24.1231 H   0  0  0  0  0  0
  -27.4040  -29.7275   25.4709 H   0  0  0  0  0  0
  -27.8790  -30.4278   23.9428 H   0  0  0  0  0  0
  -27.2675  -33.3626   26.2064 H   0  0  0  0  0  0
  -28.3870  -32.6864   25.0325 H   0  0  0  0  0  0
  -28.0711  -31.8442   26.5416 H   0  0  0  0  0  0
  -28.2596  -38.0098   24.7519 H   0  0  0  0  0  0
  -28.1085  -36.2633   24.6289 H   0  0  0  0  0  0
  -27.2292  -37.1445   25.8863 H   0  0  0  0  0  0
  -20.9357  -29.8767   21.6865 H   0  0  0  0  0  0
  -26.0174  -38.2852   24.1412 H   0  0  0  0  0  0
  -29.8402  -19.5406   24.9708 H   0  0  0  0  0  0
  -28.6880  -20.0880   23.7701 H   0  0  0  0  0  0
  -30.4048  -20.6074   23.6924 H   0  0  0  0  0  0
  -30.6464  -17.9024   18.8296 H   0  0  0  0  0  0
  -31.1272  -16.3234   18.2913 H   0  0  0  0  0  0
  -32.0290  -17.1315   19.5675 H   0  0  0  0  0  0
  -28.3911  -17.3557   19.4633 H   0  0  0  0  0  0
  -27.9825  -15.9694   20.4305 H   0  0  0  0  0  0
  -28.6199  -15.7923   18.7561 H   0  0  0  0  0  0
  -28.9980  -21.0890   18.3489 H   0  0  0  0  0  0
  -30.3093  -22.2134   18.6782 H   0  0  0  0  0  0
  -28.7746  -22.7969   18.0530 H   0  0  0  0  0  0
  -26.9546  -20.9783   19.8898 H   0  0  0  0  0  0
  -26.6587  -22.6480   19.5128 H   0  0  0  0  0  0
  -26.7790  -22.1432   21.1946 H   0  0  0  0  0  0
  -30.4989  -21.3497   21.1253 H   0  0  0  0  0  0
  -29.0651  -21.3925   22.0961 H   0  0  0  0  0  0
  -28.8611  -23.8737   21.6952 H   0  0  0  0  0  0
  -30.0214  -24.0469   20.4252 H   0  0  0  0  0  0
  -29.5394  -19.3736   19.8132 H   0  0  0  0  0  0
  -28.1447  -19.3606   20.8286 H   0  0  0  0  0  0
  -27.0657  -24.7408   20.3440 H   0  0  0  0  0  0
  -28.0393  -24.8312   18.8971 H   0  0  0  0  0  0
  1 25  1  0  0  0
  1 30  2  0  0  0
  1 82  1  0  0  0
  2  3  1  0  0  0
  2 25  1  0  0  0
  2 87  1  0  0  0
  2 88  1  0  0  0
  3  4  1  0  0  0
  3 89  1  0  0  0
  3 90  1  0  0  0
  4  5  1  0  0  0
  4 91  1  0  0  0
  4 92  1  0  0  0
  5  6  1  0  0  0
  5 26  1  0  0  0
  5 93  1  0  0  0
  6 25  1  0  0  0
  6 94  1  0  0  0
  6 95  1  0  0  0
  7  8  2  0  0  0
  7 26  1  0  0  0
  7 29  1  0  0  0
  8  9  1  0  0  0
  8 22  1  0  0  0
  9 10  1  0  0  0
  9 27  2  0  0  0
 10 11  2  0  0  0
 10 15  1  0  0  0
 11 12  1  0  0  0
 11 96  1  0  0  0
 12 13  2  0  0  0
 12 97  1  0  0  0
 13 14  1  0  0  0
 13 31  1  0  0  0
 14 15  2  0  0  0
 14 98  1  0  0  0
 15 99  1  0  0  0
 16 17  2  0  0  0
 16 21  1  0  0  0
 16 31  1  0  0  0
 17 18  1  0  0  0
 17100  1  0  0  0
 18 19  2  0  0  0
 18101  1  0  0  0
 19 20  1  0  0  0
 19 24  1  0  0  0
 20 21  2  0  0  0
 20102  1  0  0  0
 21 23  1  0  0  0
 22 28  1  0  0  0
 22 32  2  0  0  0
 26 27  1  0  0  0
 28103  1  0  0  0
 28104  1  0  0  0
 29105  1  0  0  0
 29106  1  0  0  0
 33 34  1  0  0  0
 33 66  1  0  0  0
 33 70  2  0  0  0
 34 36  1  0  0  0
 34 59  1  0  0  0
 34107  1  0  0  0
 35 44  2  0  0  0
 35 45  1  0  0  0
 35 68  1  0  0  0
 36 56  1  0  0  0
 36108  1  0  0  0
 37 39  1  0  0  0
 37 47  1  0  0  0
 37 66  1  0  0  0
 37109  1  0  0  0
 38 43  2  0  0  0
 38 46  1  0  0  0
 38 47  1  0  0  0
 39 64  1  0  0  0
 39 67  2  0  0  0
 40 52  1  0  0  0
 40 53  2  0  0  0
 40 58  1  0  0  0
 41110  1  0  0  0
 41111  1  0  0  0
 41112  1  0  0  0
 41 48  1  0  0  0
 42 43  1  0  0  0
 42 66  1  0  0  0
 42113  1  0  0  0
 42114  1  0  0  0
 43 44  1  0  0  0
 44115  1  0  0  0
 45 46  2  0  0  0
 45116  1  0  0  0
 46117  1  0  0  0
 47118  1  0  0  0
 47119  1  0  0  0
 48 56  1  0  0  0
 48 65  1  0  0  0
 48120  1  0  0  0
 49 50  1  0  0  0
 49 53  1  0  0  0
 49 64  1  0  0  0
 49121  1  0  0  0
 50 51  1  0  0  0
 50122  1  0  0  0
 50123  1  0  0  0
 51 52  1  0  0  0
 51124  1  0  0  0
 51125  1  0  0  0
 52126  1  0  0  0
 52127  1  0  0  0
 53 54  1  0  0  0
 54 55  2  0  0  0
 54128  1  0  0  0
 55 57  1  0  0  0
 55129  1  0  0  0
 56 69  2  0  0  0
 57 58  2  0  0  0
 57130  1  0  0  0
 58131  1  0  0  0
 59 60  1  0  0  0
 59 61  1  0  0  0
 59 62  1  0  0  0
 60132  1  0  0  0
 60133  1  0  0  0
 60134  1  0  0  0
 61135  1  0  0  0
 61136  1  0  0  0
 61137  1  0  0  0
 62138  1  0  0  0
 62139  1  0  0  0
 62140  1  0  0  0
 63 65  1  0  0  0
 63141  1  0  0  0
 63142  1  0  0  0
 63143  1  0  0  0
 64144  1  0  0  0
 65145  1  0  0  0
 68 81  1  0  0  0
 71 73  1  0  0  0
 71 84  2  0  0  0
 71 86  1  0  0  0
 72 82  1  0  0  0
 72 85  2  0  0  0
 72 86  1  0  0  0
 73146  1  0  0  0
 73147  1  0  0  0
 73148  1  0  0  0
 74149  1  0  0  0
 74150  1  0  0  0
 74151  1  0  0  0
 74 82  1  0  0  0
 75 82  1  0  0  0
 75152  1  0  0  0
 75153  1  0  0  0
 75154  1  0  0  0
 76155  1  0  0  0
 76156  1  0  0  0
 76157  1  0  0  0
 76 83  1  0  0  0
 77 83  1  0  0  0
 77158  1  0  0  0
 77159  1  0  0  0
 77160  1  0  0  0
 78 80  1  0  0  0
 78 83  1  0  0  0
 78161  1  0  0  0
 78162  1  0  0  0
 79 81  1  0  0  0
 79 83  1  0  0  0
 79163  1  0  0  0
 79164  1  0  0  0
 80 86  1  0  0  0
 80165  1  0  0  0
 80166  1  0  0  0
 81167  1  0  0  0
 81168  1  0  0  0
 84 85  1  0  0  0
M  ISO  4   1 100  68 101  81 101  82 100
M  END
> <chiral flag>
0

> <version>
0

> <s_m_source_file>
/data/baiqing/PycharmProjects/Reinvent-master-3.2/result/LINK_invent/BTK/process_docking_weight1_custom_sum_contain_oxygen_bond_distance_aromatic_linkinvent_7_9_3/rearranged_h_0075.sdf

> <i_m_source_file_index>
62

> <r_mmod_Potential_Energy-OPLS-2005>
313.546661376953

> <r_mmod_Stretch_Energy-OPLS-2005>
129.6044921875

> <r_mmod_Bend_Energy-OPLS-2005>
207.770751953125

> <r_mmod_Torsional_Energy-OPLS-2005>
233.447555541992

> <r_mmod_Improper_Torsional_Energy-OPLS-2005>
8.86165046691895

> <r_mmod_Van_der_Waal_Energy-OPLS-2005>
146.955535888672

> <r_mmod_Electrostatic_Energy-OPLS-2005>
-288.091369628906

> <r_mmod_Solvation_Energy-OPLS-2005>
-217.577392578125

> <b_mmod_Minimization_Converged-OPLS-2005>
0

> <r_mmod_RMS_Derivative-OPLS-2005>
1.04136395454407

$$$$
63
                    3D
 Structure written by MMmdl.
173181  0  0  1  0            999 V2000
  -30.7260  -14.5581   20.5767 C   0  0  0  0  0  0
  -30.4121  -12.3672   19.4497 C   0  0  0  0  0  0
  -29.4964  -12.5148   18.2166 C   0  0  0  0  0  0
  -28.0182  -12.3503   18.6170 C   0  0  0  0  0  0
  -27.6462  -13.2085   19.8535 C   0  0  2  0  0  0
  -28.6883  -13.0255   20.9775 C   0  0  0  0  0  0
  -25.2532  -13.8159   20.5643 C   0  0  0  0  0  0
  -24.1814  -13.0427   20.9200 C   0  0  0  0  0  0
  -24.6385  -11.6905   20.8754 C   0  0  0  0  0  0
  -23.9079  -10.4291   21.0417 C   0  0  0  0  0  0
  -24.3648   -9.4220   21.9197 C   0  0  0  0  0  0
  -23.6332   -8.2254   22.0774 C   0  0  0  0  0  0
  -22.4297   -8.0300   21.3580 C   0  0  0  0  0  0
  -21.9941   -9.0258   20.4662 C   0  0  0  0  0  0
  -22.7264  -10.2140   20.3060 C   0  0  0  0  0  0
  -21.6855   -6.0766   22.5303 C   0  0  0  0  0  0
  -21.4009   -6.5666   23.8237 C   0  0  0  0  0  0
  -21.3660   -5.6810   24.9196 C   0  0  0  0  0  0
  -21.6042   -4.3074   24.7226 C   0  0  0  0  0  0
  -21.8818   -3.8177   23.4342 C   0  0  0  0  0  0
  -21.9194   -4.6999   22.3409 C   0  0  0  0  0  0
  -22.7836  -13.5241   21.1830 C   0  0  0  0  0  0
  -22.1655   -4.2187   21.0979 F   0  0  0  0  0  0
  -21.5628   -3.4562   25.7743 F   0  0  0  0  0  0
  -30.0052  -13.3934   20.4422 N   0  0  0  0  0  0
  -26.2938  -12.9320   20.3257 N   0  0  0  0  0  0
  -25.9293  -11.6487   20.5731 N   0  0  0  0  0  0
  -22.0449  -12.8258   22.0386 N   0  0  0  0  0  0
  -25.4187  -15.1876   20.4033 N   0  0  0  0  0  0
  -31.8864  -14.5513   20.1527 O   0  0  0  0  0  0
  -21.6648   -6.8909   21.4271 O   0  0  0  0  0  0
  -22.3531  -14.5540   20.6649 O   0  0  0  0  0  0
  -24.6187  -31.8650   23.2101 C   0  0  0  0  0  0
  -25.9064  -32.4809   23.8408 C   0  0  1  0  0  0
  -27.2234  -27.3870   20.1038 C   0  0  0  0  0  0
  -25.5915  -33.8616   24.2333 N   0  0  0  0  0  0
  -23.4087  -30.4914   21.5505 C   0  0  2  0  0  0
  -24.8507  -28.9529   20.1172 C   0  0  0  0  0  0
  -22.7439  -29.4644   22.4963 C   0  0  0  0  0  0
  -18.0277  -28.1376   22.8487 C   0  0  0  0  0  0
  -24.1483  -36.7306   23.2641 C   0  0  0  0  0  0
  -25.9426  -30.8179   21.3696 C   0  0  0  0  0  0
  -26.0143  -29.4501   20.7128 C   0  0  0  0  0  0
  -27.2021  -28.6767   20.6967 C   0  0  0  0  0  0
  -26.0269  -26.9088   19.5162 C   0  0  0  0  0  0
  -24.8535  -27.6842   19.5166 C   0  0  0  0  0  0
  -23.6207  -29.8311   20.1626 C   0  0  0  0  0  0
  -25.4105  -36.3103   24.0337 C   0  0  1  0  0  0
  -20.5869  -28.3664   23.1296 C   0  0  2  0  0  0
  -20.6763  -26.9396   22.5400 C   0  0  0  0  0  0
  -19.5736  -26.6381   21.5205 C   0  0  0  0  0  0
  -18.1919  -26.7923   22.1625 C   0  0  0  0  0  0
  -19.1527  -28.8837   23.2894 C   0  0  0  0  0  0
  -18.9455  -30.1439   23.8906 C   0  0  0  0  0  0
  -17.6459  -30.6583   24.0559 C   0  0  0  0  0  0
  -25.9034  -34.9469   23.5130 C   0  0  0  0  0  0
  -16.5347  -29.9086   23.6329 C   0  0  0  0  0  0
  -16.7264  -28.6498   23.0350 C   0  0  0  0  0  0
  -26.4481  -31.6609   25.0759 C   0  0  0  0  0  0
  -25.3757  -31.3721   26.1520 C   0  0  0  0  0  0
  -27.0313  -30.3048   24.6162 C   0  0  0  0  0  0
  -27.6056  -32.4336   25.7520 C   0  0  0  0  0  0
  -27.5575  -37.1811   24.8466 C   0  0  0  0  0  0
  -21.4157  -29.3043   22.3715 N   0  0  0  0  0  0
  -26.4284  -37.3789   23.9417 N   0  0  0  0  0  0
  -24.6752  -31.0726   22.1017 N   0  0  0  0  0  0
  -23.4195  -28.8166   23.3004 O   0  0  0  0  0  0
  -28.4016  -26.6523   20.1282 O   0  0  0  0  0  0
  -26.5582  -34.8918   22.4687 O   0  0  0  0  0  0
  -23.5370  -32.1420   23.7472 O   0  0  0  0  0  0
  -30.6665  -18.8701   18.6328 C   0  0  0  0  0  0
  -31.3488  -17.8572   18.0284 C   0  0  0  0  0  0
  -30.4581  -17.0717   19.9504 C   0  0  0  0  0  0
  -32.1418  -17.8004   16.7649 C   0  0  0  0  0  0
  -31.1672  -16.3728   22.2565 C   0  0  0  0  0  0
  -28.7971  -16.0961   21.6298 C   0  0  0  0  0  0
  -27.7341  -20.8068   18.7381 C   0  0  0  0  0  0
  -29.5838  -22.4761   18.5901 C   0  0  0  0  0  0
  -28.2661  -24.1797   20.7399 C   0  0  0  0  0  0
  -27.7372  -22.7728   20.2815 C   0  0  0  0  0  0
  -29.5328  -20.8535   20.5933 C   0  0  0  0  0  0
  -29.3715  -19.2801   20.7545 C   0  0  0  0  0  0
  -28.4540  -25.2843   19.6480 C   0  0  0  0  0  0
  -30.2355  -16.0079   21.0770 C   0  0  0  0  0  0
  -28.6680  -21.7128   19.5730 C   0  0  0  0  0  0
  -30.1449  -18.4046   19.8169 N   0  0  0  0  0  0
  -31.2100  -16.7982   18.8703 N   0  3  0  0  0  0
  -31.4562  -12.4394   19.1433 H   0  0  0  0  0  0
  -30.3186  -11.3659   19.8717 H   0  0  0  0  0  0
  -29.7607  -11.7766   17.4583 H   0  0  0  0  0  0
  -29.6472  -13.4927   17.7558 H   0  0  0  0  0  0
  -27.8489  -11.2950   18.8319 H   0  0  0  0  0  0
  -27.3703  -12.5933   17.7739 H   0  0  0  0  0  0
  -27.6706  -14.2396   19.5108 H   0  0  0  0  0  0
  -28.7028  -11.9781   21.2854 H   0  0  0  0  0  0
  -28.4136  -13.5441   21.8867 H   0  0  0  0  0  0
  -25.2772   -9.5710   22.4792 H   0  0  0  0  0  0
  -24.0052   -7.4640   22.7486 H   0  0  0  0  0  0
  -21.0879   -8.8762   19.8952 H   0  0  0  0  0  0
  -22.3709  -10.9691   19.6179 H   0  0  0  0  0  0
  -21.1986   -7.6168   23.9764 H   0  0  0  0  0  0
  -21.1484   -6.0526   25.9111 H   0  0  0  0  0  0
  -22.0588   -2.7639   23.2823 H   0  0  0  0  0  0
  -22.4052  -11.9970   22.4860 H   0  0  0  0  0  0
  -21.1051  -13.1298   22.2490 H   0  0  0  0  0  0
  -24.6494  -15.8366   20.5290 H   0  0  0  0  0  0
  -26.2594  -15.6372   20.0661 H   0  0  0  0  0  0
  -26.7138  -32.5499   23.1170 H   0  0  0  0  0  0
  -25.0100  -33.9781   25.0502 H   0  0  0  0  0  0
  -22.6993  -31.3101   21.4129 H   0  0  0  0  0  0
  -23.3741  -35.9641   23.3304 H   0  0  0  0  0  0
  -24.3572  -36.8922   22.2053 H   0  0  0  0  0  0
  -23.7233  -37.6514   23.6654 H   0  0  0  0  0  0
  -26.0666  -31.5844   20.6039 H   0  0  0  0  0  0
  -26.8262  -30.8645   21.9948 H   0  0  0  0  0  0
  -28.1041  -29.0601   21.1545 H   0  0  0  0  0  0
  -25.9553  -25.9351   19.0602 H   0  0  0  0  0  0
  -23.9540  -27.2936   19.0621 H   0  0  0  0  0  0
  -23.7500  -30.6128   19.4122 H   0  0  0  0  0  0
  -22.7400  -29.2662   19.8517 H   0  0  0  0  0  0
  -25.1279  -36.1967   25.0824 H   0  0  0  0  0  0
  -20.9960  -28.3221   24.1416 H   0  0  0  0  0  0
  -20.5660  -26.2271   23.3588 H   0  0  0  0  0  0
  -21.6633  -26.7423   22.1196 H   0  0  0  0  0  0
  -19.6891  -25.6292   21.1237 H   0  0  0  0  0  0
  -19.6671  -27.3190   20.6733 H   0  0  0  0  0  0
  -17.4179  -26.6654   21.4040 H   0  0  0  0  0  0
  -18.0331  -26.0067   22.9025 H   0  0  0  0  0  0
  -19.7932  -30.7256   24.2286 H   0  0  0  0  0  0
  -17.5011  -31.6268   24.5155 H   0  0  0  0  0  0
  -15.5350  -30.2991   23.7643 H   0  0  0  0  0  0
  -15.8664  -28.0824   22.7065 H   0  0  0  0  0  0
  -24.5911  -30.7081   25.7874 H   0  0  0  0  0  0
  -24.8973  -32.2877   26.5009 H   0  0  0  0  0  0
  -25.8124  -30.8872   27.0262 H   0  0  0  0  0  0
  -26.2863  -29.6818   24.1198 H   0  0  0  0  0  0
  -27.4049  -29.7281   25.4634 H   0  0  0  0  0  0
  -27.8719  -30.4360   23.9345 H   0  0  0  0  0  0
  -27.2677  -33.3633   26.2113 H   0  0  0  0  0  0
  -28.3860  -32.6902   25.0345 H   0  0  0  0  0  0
  -28.0735  -31.8459   26.5431 H   0  0  0  0  0  0
  -28.2593  -38.0107   24.7506 H   0  0  0  0  0  0
  -28.1067  -36.2636   24.6295 H   0  0  0  0  0  0
  -27.2293  -37.1469   25.8869 H   0  0  0  0  0  0
  -20.9316  -29.8806   21.6975 H   0  0  0  0  0  0
  -26.0169  -38.2864   24.1429 H   0  0  0  0  0  0
  -30.5496  -19.8842   18.3065 H   0  0  0  0  0  0
  -31.8840  -18.6367   16.1157 H   0  0  0  0  0  0
  -31.9415  -16.8738   16.2272 H   0  0  0  0  0  0
  -33.2081  -17.8527   16.9882 H   0  0  0  0  0  0
  -30.9016  -17.3247   22.7128 H   0  0  0  0  0  0
  -32.2094  -16.4514   21.9427 H   0  0  0  0  0  0
  -31.1184  -15.6189   23.0439 H   0  0  0  0  0  0
  -28.5741  -17.0876   22.0135 H   0  0  0  0  0  0
  -28.6438  -15.4623   22.4997 H   0  0  0  0  0  0
  -28.0475  -15.8843   20.8752 H   0  0  0  0  0  0
  -27.1640  -21.3881   18.0108 H   0  0  0  0  0  0
  -27.0071  -20.2923   19.3658 H   0  0  0  0  0  0
  -28.2716  -20.0532   18.1665 H   0  0  0  0  0  0
  -29.0061  -23.1536   17.9606 H   0  0  0  0  0  0
  -30.1257  -21.8371   17.9001 H   0  0  0  0  0  0
  -30.3287  -23.0669   19.1231 H   0  0  0  0  0  0
  -29.1797  -24.0686   21.3241 H   0  0  0  0  0  0
  -27.5267  -24.5636   21.4427 H   0  0  0  0  0  0
  -26.8787  -22.9772   19.6402 H   0  0  0  0  0  0
  -27.2933  -22.2846   21.1503 H   0  0  0  0  0  0
  -30.5918  -21.0705   20.4431 H   0  0  0  0  0  0
  -29.3414  -21.2680   21.5831 H   0  0  0  0  0  0
  -28.3253  -18.9819   20.7224 H   0  0  0  0  0  0
  -29.7279  -19.0319   21.7529 H   0  0  0  0  0  0
  -27.8072  -25.1084   18.7913 H   0  0  0  0  0  0
  -29.4565  -25.1764   19.2365 H   0  0  0  0  0  0
  -31.6791  -15.9006   18.7590 H   0  0  0  0  0  0
  1 25  1  0  0  0
  1 30  2  0  0  0
  1 84  1  0  0  0
  2  3  1  0  0  0
  2 25  1  0  0  0
  2 88  1  0  0  0
  2 89  1  0  0  0
  3  4  1  0  0  0
  3 90  1  0  0  0
  3 91  1  0  0  0
  4  5  1  0  0  0
  4 92  1  0  0  0
  4 93  1  0  0  0
  5  6  1  0  0  0
  5 26  1  0  0  0
  5 94  1  0  0  0
  6 25  1  0  0  0
  6 95  1  0  0  0
  6 96  1  0  0  0
  7  8  2  0  0  0
  7 26  1  0  0  0
  7 29  1  0  0  0
  8  9  1  0  0  0
  8 22  1  0  0  0
  9 10  1  0  0  0
  9 27  2  0  0  0
 10 11  2  0  0  0
 10 15  1  0  0  0
 11 12  1  0  0  0
 11 97  1  0  0  0
 12 13  2  0  0  0
 12 98  1  0  0  0
 13 14  1  0  0  0
 13 31  1  0  0  0
 14 15  2  0  0  0
 14 99  1  0  0  0
 15100  1  0  0  0
 16 17  2  0  0  0
 16 21  1  0  0  0
 16 31  1  0  0  0
 17 18  1  0  0  0
 17101  1  0  0  0
 18 19  2  0  0  0
 18102  1  0  0  0
 19 20  1  0  0  0
 19 24  1  0  0  0
 20 21  2  0  0  0
 20103  1  0  0  0
 21 23  1  0  0  0
 22 28  1  0  0  0
 22 32  2  0  0  0
 26 27  1  0  0  0
 28104  1  0  0  0
 28105  1  0  0  0
 29106  1  0  0  0
 29107  1  0  0  0
 33 34  1  0  0  0
 33 66  1  0  0  0
 33 70  2  0  0  0
 34 36  1  0  0  0
 34 59  1  0  0  0
 34108  1  0  0  0
 35 44  2  0  0  0
 35 45  1  0  0  0
 35 68  1  0  0  0
 36 56  1  0  0  0
 36109  1  0  0  0
 37 39  1  0  0  0
 37 47  1  0  0  0
 37 66  1  0  0  0
 37110  1  0  0  0
 38 43  2  0  0  0
 38 46  1  0  0  0
 38 47  1  0  0  0
 39 64  1  0  0  0
 39 67  2  0  0  0
 40 52  1  0  0  0
 40 53  2  0  0  0
 40 58  1  0  0  0
 41111  1  0  0  0
 41112  1  0  0  0
 41113  1  0  0  0
 41 48  1  0  0  0
 42 43  1  0  0  0
 42 66  1  0  0  0
 42114  1  0  0  0
 42115  1  0  0  0
 43 44  1  0  0  0
 44116  1  0  0  0
 45 46  2  0  0  0
 45117  1  0  0  0
 46118  1  0  0  0
 47119  1  0  0  0
 47120  1  0  0  0
 48 56  1  0  0  0
 48 65  1  0  0  0
 48121  1  0  0  0
 49 50  1  0  0  0
 49 53  1  0  0  0
 49 64  1  0  0  0
 49122  1  0  0  0
 50 51  1  0  0  0
 50123  1  0  0  0
 50124  1  0  0  0
 51 52  1  0  0  0
 51125  1  0  0  0
 51126  1  0  0  0
 52127  1  0  0  0
 52128  1  0  0  0
 53 54  1  0  0  0
 54 55  2  0  0  0
 54129  1  0  0  0
 55 57  1  0  0  0
 55130  1  0  0  0
 56 69  2  0  0  0
 57 58  2  0  0  0
 57131  1  0  0  0
 58132  1  0  0  0
 59 60  1  0  0  0
 59 61  1  0  0  0
 59 62  1  0  0  0
 60133  1  0  0  0
 60134  1  0  0  0
 60135  1  0  0  0
 61136  1  0  0  0
 61137  1  0  0  0
 61138  1  0  0  0
 62139  1  0  0  0
 62140  1  0  0  0
 62141  1  0  0  0
 63 65  1  0  0  0
 63142  1  0  0  0
 63143  1  0  0  0
 63144  1  0  0  0
 64145  1  0  0  0
 65146  1  0  0  0
 68 83  1  0  0  0
 71 72  2  0  0  0
 71 86  1  0  0  0
 71147  1  0  0  0
 72 74  1  0  0  0
 72 87  1  0  0  0
 73 84  1  0  0  0
 73 86  1  0  0  0
 73 87  2  0  0  0
 74148  1  0  0  0
 74149  1  0  0  0
 74150  1  0  0  0
 75151  1  0  0  0
 75152  1  0  0  0
 75153  1  0  0  0
 75 84  1  0  0  0
 76 84  1  0  0  0
 76154  1  0  0  0
 76155  1  0  0  0
 76156  1  0  0  0
 77157  1  0  0  0
 77158  1  0  0  0
 77159  1  0  0  0
 77 85  1  0  0  0
 78 85  1  0  0  0
 78160  1  0  0  0
 78161  1  0  0  0
 78162  1  0  0  0
 79 80  1  0  0  0
 79 83  1  0  0  0
 79163  1  0  0  0
 79164  1  0  0  0
 80 85  1  0  0  0
 80165  1  0  0  0
 80166  1  0  0  0
 81 82  1  0  0  0
 81 85  1  0  0  0
 81167  1  0  0  0
 81168  1  0  0  0
 82 86  1  0  0  0
 82169  1  0  0  0
 82170  1  0  0  0
 83171  1  0  0  0
 83172  1  0  0  0
 87173  1  0  0  0
M  CHG  1  87   1
M  ISO  4   1 100  68 101  83 101  84 100
M  END
> <chiral flag>
0

> <version>
0

> <s_m_source_file>
/data/baiqing/PycharmProjects/Reinvent-master-3.2/result/LINK_invent/BTK/process_docking_weight1_custom_sum_contain_oxygen_bond_distance_aromatic_linkinvent_7_9_3/rearranged_h_0075.sdf

> <i_m_source_file_index>
63

> <r_mmod_Potential_Energy-OPLS-2005>
158.07731628418

> <r_mmod_Stretch_Energy-OPLS-2005>
75.620979309082

> <r_mmod_Bend_Energy-OPLS-2005>
193.240615844727

> <r_mmod_Torsional_Energy-OPLS-2005>
243.949676513672

> <r_mmod_Improper_Torsional_Energy-OPLS-2005>
3.29070377349854

> <r_mmod_Van_der_Waal_Energy-OPLS-2005>
157.628952026367

> <r_mmod_Electrostatic_Energy-OPLS-2005>
-188.526992797852

> <r_mmod_Solvation_Energy-OPLS-2005>
-353.965698242188

> <b_mmod_Minimization_Converged-OPLS-2005>
0

> <r_mmod_RMS_Derivative-OPLS-2005>
2.56957387924194

$$$$
64
                    3D
 Structure written by MMmdl.
150158  0  0  1  0            999 V2000
  -30.4316  -15.2725   20.3390 C   0  0  0  0  0  0
  -30.4408  -12.8038   19.5246 C   0  0  0  0  0  0
  -29.5362  -12.5729   18.2847 C   0  0  0  0  0  0
  -28.0769  -12.3173   18.7012 C   0  0  0  0  0  0
  -27.6103  -13.2807   19.8180 C   0  0  2  0  0  0
  -28.6447  -13.4554   20.9465 C   0  0  0  0  0  0
  -25.2382  -13.8244   20.5708 C   0  0  0  0  0  0
  -24.1738  -13.0433   20.9234 C   0  0  0  0  0  0
  -24.6400  -11.6937   20.8767 C   0  0  0  0  0  0
  -23.9080  -10.4321   21.0427 C   0  0  0  0  0  0
  -24.3628   -9.4244   21.9195 C   0  0  0  0  0  0
  -23.6321   -8.2260   22.0751 C   0  0  0  0  0  0
  -22.4299   -8.0293   21.3550 C   0  0  0  0  0  0
  -21.9942   -9.0262   20.4644 C   0  0  0  0  0  0
  -22.7256  -10.2151   20.3069 C   0  0  0  0  0  0
  -21.6866   -6.0739   22.5277 C   0  0  0  0  0  0
  -21.4003   -6.5637   23.8205 C   0  0  0  0  0  0
  -21.3671   -5.6790   24.9169 C   0  0  0  0  0  0
  -21.6058   -4.3058   24.7228 C   0  0  0  0  0  0
  -21.8819   -3.8151   23.4349 C   0  0  0  0  0  0
  -21.9207   -4.6966   22.3404 C   0  0  0  0  0  0
  -22.7761  -13.5196   21.1890 C   0  0  0  0  0  0
  -22.1663   -4.2154   21.0980 F   0  0  0  0  0  0
  -21.5666   -3.4532   25.7739 F   0  0  0  0  0  0
  -29.8819  -13.9559   20.3235 N   0  0  0  0  0  0
  -26.2815  -12.9550   20.3181 N   0  0  0  0  0  0
  -25.9347  -11.6650   20.5717 N   0  0  0  0  0  0
  -22.0421  -12.8177   22.0442 N   0  0  0  0  0  0
  -25.4001  -15.1975   20.4158 N   0  0  0  0  0  0
  -31.6661  -15.2458   20.2127 O   0  0  0  0  0  0
  -21.6662   -6.8884   21.4244 O   0  0  0  0  0  0
  -22.3437  -14.5500   20.6735 O   0  0  0  0  0  0
  -24.6650  -31.8225   23.1675 C   0  0  0  0  0  0
  -25.9333  -32.4579   23.8148 C   0  0  1  0  0  0
  -27.2108  -26.9024   20.1941 C   0  0  0  0  0  0
  -25.5995  -33.8393   24.2078 N   0  0  0  0  0  0
  -23.4804  -30.4301   21.5194 C   0  0  2  0  0  0
  -24.9311  -28.8077   20.1186 C   0  0  0  0  0  0
  -22.7683  -29.4424   22.4810 C   0  0  0  0  0  0
  -18.0325  -28.1380   22.8490 C   0  0  0  0  0  0
  -24.1474  -36.7168   23.2648 C   0  0  0  0  0  0
  -26.0505  -30.6183   21.4019 C   0  0  0  0  0  0
  -26.1166  -29.2050   20.7494 C   0  0  0  0  0  0
  -27.2545  -28.2752   20.7563 C   0  0  0  0  0  0
  -25.9953  -26.6625   19.5145 C   0  0  0  0  0  0
  -24.8957  -27.5585   19.4809 C   0  0  0  0  0  0
  -23.7199  -29.7376   20.1494 C   0  0  0  0  0  0
  -25.4118  -36.2967   24.0311 C   0  0  1  0  0  0
  -20.5955  -28.3728   23.1188 C   0  0  2  0  0  0
  -20.6810  -26.9396   22.5427 C   0  0  0  0  0  0
  -19.5773  -26.6303   21.5256 C   0  0  0  0  0  0
  -18.1964  -26.7888   22.1671 C   0  0  0  0  0  0
  -19.1592  -28.8888   23.2806 C   0  0  0  0  0  0
  -18.9495  -30.1493   23.8809 C   0  0  0  0  0  0
  -17.6485  -30.6604   24.0516 C   0  0  0  0  0  0
  -25.9103  -34.9349   23.5029 C   0  0  0  0  0  0
  -16.5382  -29.9069   23.6343 C   0  0  0  0  0  0
  -16.7303  -28.6475   23.0391 C   0  0  0  0  0  0
  -26.4589  -31.6524   25.0675 C   0  0  0  0  0  0
  -25.3718  -31.3767   26.1321 C   0  0  0  0  0  0
  -27.0469  -30.2877   24.6429 C   0  0  0  0  0  0
  -27.6102  -32.4324   25.7476 C   0  0  0  0  0  0
  -27.5564  -37.1731   24.8480 C   0  0  0  0  0  0
  -21.4348  -29.3006   22.3528 N   0  0  0  0  0  0
  -26.4267  -37.3702   23.9428 N   0  0  0  0  0  0
  -24.7540  -30.9860   22.0824 N   0  0  0  0  0  0
  -23.4205  -28.8002   23.3071 O   0  0  0  0  0  0
  -28.2181  -25.7928   20.2221 O   0  0  0  0  0  0
  -26.5711  -34.8878   22.4618 O   0  0  0  0  0  0
  -23.5716  -32.1218   23.6747 O   0  0  0  0  0  0
  -28.5399  -17.1741   19.4838 C   0  0  0  0  0  0
  -29.6435  -16.7915   20.2323 C   0  0  0  0  0  0
  -29.1316  -19.3001   20.2062 C   0  0  0  0  0  0
  -26.3129  -23.4214   22.3026 C   0  0  0  0  0  0
  -28.9359  -20.9612   20.7318 C   0  0  0  0  0  0
  -27.6747  -24.0593   21.9790 C   0  0  0  0  0  0
  -28.7718  -22.6050   19.9802 C   0  0  0  0  0  0
  -27.9714  -24.1664   20.4670 C   0  0  2  0  0  0
  -28.2500  -18.5849   19.4834 N   0  0  0  0  0  0
  -30.0006  -18.2080   20.6894 O   0  0  0  0  0  0
  -31.4625  -13.0036   19.1999 H   0  0  0  0  0  0
  -30.5017  -11.8986   20.1313 H   0  0  0  0  0  0
  -29.9039  -11.7346   17.6909 H   0  0  0  0  0  0
  -29.5818  -13.4480   17.6371 H   0  0  0  0  0  0
  -28.0087  -11.2868   19.0485 H   0  0  0  0  0  0
  -27.4123  -12.3955   17.8399 H   0  0  0  0  0  0
  -27.5246  -14.2500   19.3268 H   0  0  0  0  0  0
  -28.8103  -12.5200   21.4848 H   0  0  0  0  0  0
  -28.2920  -14.1786   21.6854 H   0  0  0  0  0  0
  -25.2762   -9.5729   22.4787 H   0  0  0  0  0  0
  -24.0059   -7.4638   22.7441 H   0  0  0  0  0  0
  -21.0889   -8.8759   19.8926 H   0  0  0  0  0  0
  -22.3701  -10.9690   19.6187 H   0  0  0  0  0  0
  -21.1945   -7.6132   23.9697 H   0  0  0  0  0  0
  -21.1502   -6.0519   25.9064 H   0  0  0  0  0  0
  -22.0591   -2.7611   23.2828 H   0  0  0  0  0  0
  -22.4072  -11.9874   22.4857 H   0  0  0  0  0  0
  -21.1022  -13.1172   22.2618 H   0  0  0  0  0  0
  -24.6279  -15.8430   20.5418 H   0  0  0  0  0  0
  -26.2474  -15.6529   20.1043 H   0  0  0  0  0  0
  -26.7384  -32.5116   23.0843 H   0  0  0  0  0  0
  -25.0098  -33.9449   25.0205 H   0  0  0  0  0  0
  -22.7964  -31.2622   21.3439 H   0  0  0  0  0  0
  -23.3782  -35.9456   23.3294 H   0  0  0  0  0  0
  -24.3550  -36.8843   22.2072 H   0  0  0  0  0  0
  -23.7179  -37.6326   23.6706 H   0  0  0  0  0  0
  -26.2325  -31.3554   20.6193 H   0  0  0  0  0  0
  -26.9112  -30.6780   22.0564 H   0  0  0  0  0  0
  -28.1565  -28.5759   21.2695 H   0  0  0  0  0  0
  -25.8673  -25.7145   19.0142 H   0  0  0  0  0  0
  -23.9934  -27.2511   18.9704 H   0  0  0  0  0  0
  -23.8684  -30.5009   19.3850 H   0  0  0  0  0  0
  -22.8301  -29.1872   19.8417 H   0  0  0  0  0  0
  -25.1307  -36.1767   25.0802 H   0  0  0  0  0  0
  -21.0037  -28.3356   24.1314 H   0  0  0  0  0  0
  -20.5720  -26.2332   23.3669 H   0  0  0  0  0  0
  -21.6667  -26.7397   22.1213 H   0  0  0  0  0  0
  -19.6937  -25.6183   21.1351 H   0  0  0  0  0  0
  -19.6701  -27.3057   20.6759 H   0  0  0  0  0  0
  -17.4242  -26.6651   21.4070 H   0  0  0  0  0  0
  -18.0345  -26.0056   22.9091 H   0  0  0  0  0  0
  -19.7974  -30.7351   24.2114 H   0  0  0  0  0  0
  -17.5039  -31.6282   24.5102 H   0  0  0  0  0  0
  -15.5381  -30.2948   23.7706 H   0  0  0  0  0  0
  -15.8691  -28.0754   22.7173 H   0  0  0  0  0  0
  -24.5972  -30.7030   25.7627 H   0  0  0  0  0  0
  -24.8801  -32.2944   26.4557 H   0  0  0  0  0  0
  -25.7944  -30.9087   27.0219 H   0  0  0  0  0  0
  -26.3128  -29.6573   24.1388 H   0  0  0  0  0  0
  -27.3929  -29.7228   25.5098 H   0  0  0  0  0  0
  -27.9114  -30.4046   23.9889 H   0  0  0  0  0  0
  -27.2722  -33.3719   26.1854 H   0  0  0  0  0  0
  -28.4003  -32.6726   25.0355 H   0  0  0  0  0  0
  -28.0647  -31.8572   26.5554 H   0  0  0  0  0  0
  -28.2559  -38.0045   24.7538 H   0  0  0  0  0  0
  -28.1075  -36.2576   24.6292 H   0  0  0  0  0  0
  -27.2278  -37.1353   25.8879 H   0  0  0  0  0  0
  -20.9615  -29.8632   21.6611 H   0  0  0  0  0  0
  -26.0132  -38.2761   24.1456 H   0  0  0  0  0  0
  -27.9282  -16.5211   18.8793 H   0  0  0  0  0  0
  -26.1876  -23.2808   23.3765 H   0  0  0  0  0  0
  -26.1961  -22.4448   21.8311 H   0  0  0  0  0  0
  -25.4926  -24.0501   21.9526 H   0  0  0  0  0  0
  -29.7303  -21.0876   21.4662 H   0  0  0  0  0  0
  -28.0405  -20.8873   21.3481 H   0  0  0  0  0  0
  -28.4697  -23.4872   22.4570 H   0  0  0  0  0  0
  -27.7091  -25.0432   22.4485 H   0  0  0  0  0  0
  -28.3290  -22.3971   19.0061 H   0  0  0  0  0  0
  -29.7959  -22.8788   19.7258 H   0  0  0  0  0  0
  -27.0065  -24.0550   19.9730 H   0  0  0  0  0  0
  1 25  1  0  0  0
  1 30  2  0  0  0
  1 72  1  0  0  0
  2  3  1  0  0  0
  2 25  1  0  0  0
  2 81  1  0  0  0
  2 82  1  0  0  0
  3  4  1  0  0  0
  3 83  1  0  0  0
  3 84  1  0  0  0
  4  5  1  0  0  0
  4 85  1  0  0  0
  4 86  1  0  0  0
  5  6  1  0  0  0
  5 26  1  0  0  0
  5 87  1  0  0  0
  6 25  1  0  0  0
  6 88  1  0  0  0
  6 89  1  0  0  0
  7  8  2  0  0  0
  7 26  1  0  0  0
  7 29  1  0  0  0
  8  9  1  0  0  0
  8 22  1  0  0  0
  9 10  1  0  0  0
  9 27  2  0  0  0
 10 11  2  0  0  0
 10 15  1  0  0  0
 11 12  1  0  0  0
 11 90  1  0  0  0
 12 13  2  0  0  0
 12 91  1  0  0  0
 13 14  1  0  0  0
 13 31  1  0  0  0
 14 15  2  0  0  0
 14 92  1  0  0  0
 15 93  1  0  0  0
 16 17  2  0  0  0
 16 21  1  0  0  0
 16 31  1  0  0  0
 17 18  1  0  0  0
 17 94  1  0  0  0
 18 19  2  0  0  0
 18 95  1  0  0  0
 19 20  1  0  0  0
 19 24  1  0  0  0
 20 21  2  0  0  0
 20 96  1  0  0  0
 21 23  1  0  0  0
 22 28  1  0  0  0
 22 32  2  0  0  0
 26 27  1  0  0  0
 28 97  1  0  0  0
 28 98  1  0  0  0
 29 99  1  0  0  0
 29100  1  0  0  0
 33 34  1  0  0  0
 33 66  1  0  0  0
 33 70  2  0  0  0
 34 36  1  0  0  0
 34 59  1  0  0  0
 34101  1  0  0  0
 35 44  2  0  0  0
 35 45  1  0  0  0
 35 68  1  0  0  0
 36 56  1  0  0  0
 36102  1  0  0  0
 37 39  1  0  0  0
 37 47  1  0  0  0
 37 66  1  0  0  0
 37103  1  0  0  0
 38 43  2  0  0  0
 38 46  1  0  0  0
 38 47  1  0  0  0
 39 64  1  0  0  0
 39 67  2  0  0  0
 40 52  1  0  0  0
 40 53  2  0  0  0
 40 58  1  0  0  0
 41104  1  0  0  0
 41105  1  0  0  0
 41106  1  0  0  0
 41 48  1  0  0  0
 42 43  1  0  0  0
 42 66  1  0  0  0
 42107  1  0  0  0
 42108  1  0  0  0
 43 44  1  0  0  0
 44109  1  0  0  0
 45 46  2  0  0  0
 45110  1  0  0  0
 46111  1  0  0  0
 47112  1  0  0  0
 47113  1  0  0  0
 48 56  1  0  0  0
 48 65  1  0  0  0
 48114  1  0  0  0
 49 50  1  0  0  0
 49 53  1  0  0  0
 49 64  1  0  0  0
 49115  1  0  0  0
 50 51  1  0  0  0
 50116  1  0  0  0
 50117  1  0  0  0
 51 52  1  0  0  0
 51118  1  0  0  0
 51119  1  0  0  0
 52120  1  0  0  0
 52121  1  0  0  0
 53 54  1  0  0  0
 54 55  2  0  0  0
 54122  1  0  0  0
 55 57  1  0  0  0
 55123  1  0  0  0
 56 69  2  0  0  0
 57 58  2  0  0  0
 57124  1  0  0  0
 58125  1  0  0  0
 59 60  1  0  0  0
 59 61  1  0  0  0
 59 62  1  0  0  0
 60126  1  0  0  0
 60127  1  0  0  0
 60128  1  0  0  0
 61129  1  0  0  0
 61130  1  0  0  0
 61131  1  0  0  0
 62132  1  0  0  0
 62133  1  0  0  0
 62134  1  0  0  0
 63 65  1  0  0  0
 63135  1  0  0  0
 63136  1  0  0  0
 63137  1  0  0  0
 64138  1  0  0  0
 65139  1  0  0  0
 68 78  1  0  0  0
 71 72  2  0  0  0
 71 79  1  0  0  0
 71140  1  0  0  0
 72 80  1  0  0  0
 73 75  1  0  0  0
 73 79  2  0  0  0
 73 80  1  0  0  0
 74 76  1  0  0  0
 74141  1  0  0  0
 74142  1  0  0  0
 74143  1  0  0  0
 75 77  1  0  0  0
 75144  1  0  0  0
 75145  1  0  0  0
 76146  1  0  0  0
 76147  1  0  0  0
 76 78  1  0  0  0
 77 78  1  0  0  0
 77148  1  0  0  0
 77149  1  0  0  0
 78150  1  0  0  0
M  ISO  4   1 100  68 101  72 100  78 101
M  END
> <chiral flag>
0

> <version>
0

> <s_m_source_file>
/data/baiqing/PycharmProjects/Reinvent-master-3.2/result/LINK_invent/BTK/process_docking_weight1_custom_sum_contain_oxygen_bond_distance_aromatic_linkinvent_7_9_3/rearranged_h_0075.sdf

> <i_m_source_file_index>
64

> <r_mmod_Potential_Energy-OPLS-2005>
1399.46618652344

> <r_mmod_Stretch_Energy-OPLS-2005>
635.184997558594

> <r_mmod_Bend_Energy-OPLS-2005>
457.965911865234

> <r_mmod_Torsional_Energy-OPLS-2005>
243.861846923828

> <r_mmod_Improper_Torsional_Energy-OPLS-2005>
8.95379638671875

> <r_mmod_Van_der_Waal_Energy-OPLS-2005>
101.49488067627

> <r_mmod_Electrostatic_Energy-OPLS-2005>
-314.923034667969

> <r_mmod_Solvation_Energy-OPLS-2005>
-206.525604248047

> <b_mmod_Minimization_Converged-OPLS-2005>
0

> <r_mmod_RMS_Derivative-OPLS-2005>
3.35754680633545

$$$$
65
                    3D
 Structure written by MMmdl.
160168  0  0  1  0            999 V2000
  -30.5752  -14.7458   20.4632 C   0  0  0  0  0  0
  -30.4399  -12.4635   19.4559 C   0  0  0  0  0  0
  -29.5104  -12.5104   18.2243 C   0  0  0  0  0  0
  -28.0323  -12.3397   18.6328 C   0  0  0  0  0  0
  -27.6387  -13.2274   19.8426 C   0  0  2  0  0  0
  -28.6832  -13.1468   20.9750 C   0  0  0  0  0  0
  -25.2508  -13.8191   20.5707 C   0  0  0  0  0  0
  -24.1810  -13.0446   20.9200 C   0  0  0  0  0  0
  -24.6394  -11.6908   20.8719 C   0  0  0  0  0  0
  -23.9064  -10.4292   21.0379 C   0  0  0  0  0  0
  -24.3615   -9.4206   21.9170 C   0  0  0  0  0  0
  -23.6292   -8.2234   22.0749 C   0  0  0  0  0  0
  -22.4275   -8.0269   21.3540 C   0  0  0  0  0  0
  -21.9905   -9.0240   20.4647 C   0  0  0  0  0  0
  -22.7223  -10.2121   20.3047 C   0  0  0  0  0  0
  -21.6862   -6.0735   22.5283 C   0  0  0  0  0  0
  -21.4009   -6.5651   23.8212 C   0  0  0  0  0  0
  -21.3647   -5.6801   24.9184 C   0  0  0  0  0  0
  -21.6044   -4.3062   24.7250 C   0  0  0  0  0  0
  -21.8818   -3.8147   23.4367 C   0  0  0  0  0  0
  -21.9194   -4.6955   22.3412 C   0  0  0  0  0  0
  -22.7833  -13.5213   21.1882 C   0  0  0  0  0  0
  -22.1675   -4.2128   21.0993 F   0  0  0  0  0  0
  -21.5617   -3.4549   25.7768 F   0  0  0  0  0  0
  -29.9803  -13.5095   20.3934 N   0  0  0  0  0  0
  -26.2906  -12.9376   20.3217 N   0  0  0  0  0  0
  -25.9307  -11.6520   20.5684 N   0  0  0  0  0  0
  -22.0508  -12.8171   22.0423 N   0  0  0  0  0  0
  -25.4218  -15.1932   20.4214 N   0  0  0  0  0  0
  -31.7682  -14.8830   20.1815 O   0  0  0  0  0  0
  -21.6657   -6.8863   21.4236 O   0  0  0  0  0  0
  -22.3497  -14.5518   20.6730 O   0  0  0  0  0  0
  -24.6331  -31.8550   23.2047 C   0  0  0  0  0  0
  -25.9144  -32.4721   23.8391 C   0  0  1  0  0  0
  -27.2101  -27.2601   20.0996 C   0  0  0  0  0  0
  -25.5931  -33.8531   24.2321 N   0  0  0  0  0  0
  -23.4301  -30.4787   21.5501 C   0  0  2  0  0  0
  -24.8732  -28.9346   20.1079 C   0  0  0  0  0  0
  -22.7530  -29.4553   22.4935 C   0  0  0  0  0  0
  -18.0292  -28.1357   22.8415 C   0  0  0  0  0  0
  -24.1482  -36.7302   23.2630 C   0  0  0  0  0  0
  -25.9808  -30.7594   21.3952 C   0  0  0  0  0  0
  -26.0464  -29.3861   20.7252 C   0  0  0  0  0  0
  -27.2167  -28.5600   20.7119 C   0  0  0  0  0  0
  -26.0144  -26.8856   19.4461 C   0  0  0  0  0  0
  -24.8638  -27.6921   19.4569 C   0  0  0  0  0  0
  -23.6480  -29.8277   20.1633 C   0  0  0  0  0  0
  -25.4100  -36.3041   24.0315 C   0  0  1  0  0  0
  -20.5884  -28.3671   23.1239 C   0  0  2  0  0  0
  -20.6771  -26.9378   22.5397 C   0  0  0  0  0  0
  -19.5770  -26.6350   21.5165 C   0  0  0  0  0  0
  -18.1947  -26.7896   22.1552 C   0  0  0  0  0  0
  -19.1534  -28.8838   23.2819 C   0  0  0  0  0  0
  -18.9444  -30.1437   23.8835 C   0  0  0  0  0  0
  -17.6444  -30.6557   24.0515 C   0  0  0  0  0  0
  -25.9043  -34.9404   23.5121 C   0  0  0  0  0  0
  -16.5336  -29.9049   23.6288 C   0  0  0  0  0  0
  -16.7284  -28.6472   23.0295 C   0  0  0  0  0  0
  -26.4512  -31.6531   25.0785 C   0  0  0  0  0  0
  -25.3726  -31.3633   26.1501 C   0  0  0  0  0  0
  -27.0391  -30.2926   24.6346 C   0  0  0  0  0  0
  -27.6105  -32.4277   25.7541 C   0  0  0  0  0  0
  -27.5601  -37.1778   24.8442 C   0  0  0  0  0  0
  -21.4239  -29.3013   22.3670 N   0  0  0  0  0  0
  -26.4280  -37.3747   23.9412 N   0  0  0  0  0  0
  -24.7015  -31.0496   22.1038 N   0  0  0  0  0  0
  -23.4224  -28.8081   23.3036 O   0  0  0  0  0  0
  -28.2986  -26.3547   20.1497 O   0  0  0  0  0  0
  -26.5629  -34.8862   22.4692 O   0  0  0  0  0  0
  -23.5467  -32.1409   23.7277 O   0  0  0  0  0  0
  -27.8364  -21.5610   21.9499 C   0  0  0  0  0  0
  -27.4899  -20.4739   22.6973 C   0  0  0  0  0  0
  -28.7485  -19.7488   20.9625 C   0  0  0  0  0  0
  -26.6342  -20.3607   23.9253 C   0  0  0  0  0  0
  -30.2076  -18.9670   18.9339 C   0  0  0  0  0  0
  -29.1299  -23.7596   20.2606 C   0  0  0  0  0  0
  -28.9794  -22.1879   19.8211 C   0  0  0  0  0  0
  -30.0543  -17.3208   20.9262 C   0  0  0  0  0  0
  -28.0665  -24.8982   19.8431 C   0  0  0  0  0  0
  -29.3203  -18.5352   20.1120 C   0  0  1  0  0  0
  -28.5862  -21.1426   20.8721 N   0  0  0  0  0  0
  -28.0516  -19.4041   22.0594 N   0  3  0  0  0  0
  -29.7481  -15.8427   20.6632 N   0  0  0  0  0  0
  -31.4725  -12.6226   19.1408 H   0  0  0  0  0  0
  -30.4156  -11.4830   19.9309 H   0  0  0  0  0  0
  -29.7898  -11.7385   17.5067 H   0  0  0  0  0  0
  -29.6362  -13.4646   17.7096 H   0  0  0  0  0  0
  -27.8716  -11.2888   18.8750 H   0  0  0  0  0  0
  -27.3821  -12.5555   17.7839 H   0  0  0  0  0  0
  -27.6337  -14.2521   19.4677 H   0  0  0  0  0  0
  -28.7185  -12.1449   21.4031 H   0  0  0  0  0  0
  -28.4143  -13.8169   21.7924 H   0  0  0  0  0  0
  -25.2753   -9.5706   22.4752 H   0  0  0  0  0  0
  -24.0017   -7.4639   22.7467 H   0  0  0  0  0  0
  -21.0832   -8.8736   19.8964 H   0  0  0  0  0  0
  -22.3646  -10.9656   19.6169 H   0  0  0  0  0  0
  -21.1992   -7.6167   23.9702 H   0  0  0  0  0  0
  -21.1474   -6.0554   25.9083 H   0  0  0  0  0  0
  -22.0597   -2.7602   23.2892 H   0  0  0  0  0  0
  -22.4171  -11.9849   22.4800 H   0  0  0  0  0  0
  -21.1108  -13.1138   22.2652 H   0  0  0  0  0  0
  -24.6462  -15.8373   20.5278 H   0  0  0  0  0  0
  -26.2623  -15.6376   20.0786 H   0  0  0  0  0  0
  -26.7227  -32.5361   23.1147 H   0  0  0  0  0  0
  -24.9969  -33.9664   25.0394 H   0  0  0  0  0  0
  -22.7230  -31.2985   21.4132 H   0  0  0  0  0  0
  -23.3710  -35.9668   23.3245 H   0  0  0  0  0  0
  -24.3581  -36.9034   22.2063 H   0  0  0  0  0  0
  -23.7280  -37.6490   23.6720 H   0  0  0  0  0  0
  -26.1374  -31.5245   20.6321 H   0  0  0  0  0  0
  -26.8507  -30.7954   22.0400 H   0  0  0  0  0  0
  -28.1171  -28.8883   21.2109 H   0  0  0  0  0  0
  -25.9279  -25.9451   18.9238 H   0  0  0  0  0  0
  -23.9693  -27.3482   18.9548 H   0  0  0  0  0  0
  -23.7850  -30.6130   19.4207 H   0  0  0  0  0  0
  -22.7596  -29.2794   19.8425 H   0  0  0  0  0  0
  -25.1273  -36.1906   25.0811 H   0  0  0  0  0  0
  -20.9928  -28.3244   24.1383 H   0  0  0  0  0  0
  -20.5625  -26.2281   23.3609 H   0  0  0  0  0  0
  -21.6645  -26.7406   22.1219 H   0  0  0  0  0  0
  -19.6923  -25.6253   21.1230 H   0  0  0  0  0  0
  -19.6711  -27.3098   20.6650 H   0  0  0  0  0  0
  -17.4219  -26.6576   21.3973 H   0  0  0  0  0  0
  -18.0350  -26.0090   22.8992 H   0  0  0  0  0  0
  -19.7938  -30.7222   24.2216 H   0  0  0  0  0  0
  -17.5014  -31.6229   24.5139 H   0  0  0  0  0  0
  -15.5319  -30.2911   23.7702 H   0  0  0  0  0  0
  -15.8680  -28.0793   22.7023 H   0  0  0  0  0  0
  -24.6024  -30.6817   25.7846 H   0  0  0  0  0  0
  -24.8678  -32.2713   26.4810 H   0  0  0  0  0  0
  -25.8063  -30.8951   27.0362 H   0  0  0  0  0  0
  -26.3005  -29.6579   24.1419 H   0  0  0  0  0  0
  -27.4076  -29.7283   25.4928 H   0  0  0  0  0  0
  -27.8896  -30.4159   23.9642 H   0  0  0  0  0  0
  -27.2826  -33.3688   26.1965 H   0  0  0  0  0  0
  -28.3965  -32.6663   25.0363 H   0  0  0  0  0  0
  -28.0693  -31.8483   26.5542 H   0  0  0  0  0  0
  -28.2531  -38.0173   24.7572 H   0  0  0  0  0  0
  -28.1221  -36.2687   24.6165 H   0  0  0  0  0  0
  -27.2324  -37.1309   25.8855 H   0  0  0  0  0  0
  -20.9452  -29.8831   21.6925 H   0  0  0  0  0  0
  -26.0143  -38.2828   24.1425 H   0  0  0  0  0  0
  -27.5550  -22.5941   22.1037 H   0  0  0  0  0  0
  -25.6271  -20.0400   23.6586 H   0  0  0  0  0  0
  -26.5519  -21.3265   24.4225 H   0  0  0  0  0  0
  -27.0495  -19.6507   24.6403 H   0  0  0  0  0  0
  -29.6942  -19.6591   18.2662 H   0  0  0  0  0  0
  -30.4973  -18.1010   18.3352 H   0  0  0  0  0  0
  -31.1252  -19.4413   19.2860 H   0  0  0  0  0  0
  -30.0788  -24.0964   19.8375 H   0  0  0  0  0  0
  -29.3044  -23.8216   21.3336 H   0  0  0  0  0  0
  -29.9305  -21.8575   19.4047 H   0  0  0  0  0  0
  -28.2535  -22.1091   19.0081 H   0  0  0  0  0  0
  -29.8428  -17.4584   21.9863 H   0  0  0  0  0  0
  -31.1324  -17.4677   20.8698 H   0  0  0  0  0  0
  -27.1145  -24.5924   20.2825 H   0  0  0  0  0  0
  -27.9270  -24.8240   18.7619 H   0  0  0  0  0  0
  -28.4159  -18.1134   19.6713 H   0  0  0  0  0  0
  -27.9071  -18.4439   22.3471 H   0  0  0  0  0  0
  -28.7844  -15.5824   20.8136 H   0  0  0  0  0  0
  1 25  1  0  0  0
  1 30  2  0  0  0
  1 83  1  0  0  0
  2  3  1  0  0  0
  2 25  1  0  0  0
  2 84  1  0  0  0
  2 85  1  0  0  0
  3  4  1  0  0  0
  3 86  1  0  0  0
  3 87  1  0  0  0
  4  5  1  0  0  0
  4 88  1  0  0  0
  4 89  1  0  0  0
  5  6  1  0  0  0
  5 26  1  0  0  0
  5 90  1  0  0  0
  6 25  1  0  0  0
  6 91  1  0  0  0
  6 92  1  0  0  0
  7  8  2  0  0  0
  7 26  1  0  0  0
  7 29  1  0  0  0
  8  9  1  0  0  0
  8 22  1  0  0  0
  9 10  1  0  0  0
  9 27  2  0  0  0
 10 11  2  0  0  0
 10 15  1  0  0  0
 11 12  1  0  0  0
 11 93  1  0  0  0
 12 13  2  0  0  0
 12 94  1  0  0  0
 13 14  1  0  0  0
 13 31  1  0  0  0
 14 15  2  0  0  0
 14 95  1  0  0  0
 15 96  1  0  0  0
 16 17  2  0  0  0
 16 21  1  0  0  0
 16 31  1  0  0  0
 17 18  1  0  0  0
 17 97  1  0  0  0
 18 19  2  0  0  0
 18 98  1  0  0  0
 19 20  1  0  0  0
 19 24  1  0  0  0
 20 21  2  0  0  0
 20 99  1  0  0  0
 21 23  1  0  0  0
 22 28  1  0  0  0
 22 32  2  0  0  0
 26 27  1  0  0  0
 28100  1  0  0  0
 28101  1  0  0  0
 29102  1  0  0  0
 29103  1  0  0  0
 33 34  1  0  0  0
 33 66  1  0  0  0
 33 70  2  0  0  0
 34 36  1  0  0  0
 34 59  1  0  0  0
 34104  1  0  0  0
 35 44  2  0  0  0
 35 45  1  0  0  0
 35 68  1  0  0  0
 36 56  1  0  0  0
 36105  1  0  0  0
 37 39  1  0  0  0
 37 47  1  0  0  0
 37 66  1  0  0  0
 37106  1  0  0  0
 38 43  2  0  0  0
 38 46  1  0  0  0
 38 47  1  0  0  0
 39 64  1  0  0  0
 39 67  2  0  0  0
 40 52  1  0  0  0
 40 53  2  0  0  0
 40 58  1  0  0  0
 41107  1  0  0  0
 41108  1  0  0  0
 41109  1  0  0  0
 41 48  1  0  0  0
 42 43  1  0  0  0
 42 66  1  0  0  0
 42110  1  0  0  0
 42111  1  0  0  0
 43 44  1  0  0  0
 44112  1  0  0  0
 45 46  2  0  0  0
 45113  1  0  0  0
 46114  1  0  0  0
 47115  1  0  0  0
 47116  1  0  0  0
 48 56  1  0  0  0
 48 65  1  0  0  0
 48117  1  0  0  0
 49 50  1  0  0  0
 49 53  1  0  0  0
 49 64  1  0  0  0
 49118  1  0  0  0
 50 51  1  0  0  0
 50119  1  0  0  0
 50120  1  0  0  0
 51 52  1  0  0  0
 51121  1  0  0  0
 51122  1  0  0  0
 52123  1  0  0  0
 52124  1  0  0  0
 53 54  1  0  0  0
 54 55  2  0  0  0
 54125  1  0  0  0
 55 57  1  0  0  0
 55126  1  0  0  0
 56 69  2  0  0  0
 57 58  2  0  0  0
 57127  1  0  0  0
 58128  1  0  0  0
 59 60  1  0  0  0
 59 61  1  0  0  0
 59 62  1  0  0  0
 60129  1  0  0  0
 60130  1  0  0  0
 60131  1  0  0  0
 61132  1  0  0  0
 61133  1  0  0  0
 61134  1  0  0  0
 62135  1  0  0  0
 62136  1  0  0  0
 62137  1  0  0  0
 63 65  1  0  0  0
 63138  1  0  0  0
 63139  1  0  0  0
 63140  1  0  0  0
 64141  1  0  0  0
 65142  1  0  0  0
 68 79  1  0  0  0
 71 72  2  0  0  0
 71 81  1  0  0  0
 71143  1  0  0  0
 72 74  1  0  0  0
 72 82  1  0  0  0
 73 80  1  0  0  0
 73 81  1  0  0  0
 73 82  2  0  0  0
 74144  1  0  0  0
 74145  1  0  0  0
 74146  1  0  0  0
 75147  1  0  0  0
 75148  1  0  0  0
 75149  1  0  0  0
 75 80  1  0  0  0
 76 77  1  0  0  0
 76 79  1  0  0  0
 76150  1  0  0  0
 76151  1  0  0  0
 77 81  1  0  0  0
 77152  1  0  0  0
 77153  1  0  0  0
 78 80  1  0  0  0
 78 83  1  0  0  0
 78154  1  0  0  0
 78155  1  0  0  0
 79156  1  0  0  0
 79157  1  0  0  0
 80158  1  0  0  0
 82159  1  0  0  0
 83160  1  0  0  0
M  CHG  1  82   1
M  ISO  4   1 100  68 101  79 101  83 100
M  END
> <chiral flag>
0

> <version>
0

> <s_m_source_file>
/data/baiqing/PycharmProjects/Reinvent-master-3.2/result/LINK_invent/BTK/process_docking_weight1_custom_sum_contain_oxygen_bond_distance_aromatic_linkinvent_7_9_3/rearranged_h_0075.sdf

> <i_m_source_file_index>
65

> <r_mmod_Potential_Energy-OPLS-2005>
172.354156494141

> <r_mmod_Stretch_Energy-OPLS-2005>
135.303909301758

> <r_mmod_Bend_Energy-OPLS-2005>
201.338623046875

> <r_mmod_Torsional_Energy-OPLS-2005>
256.049041748047

> <r_mmod_Improper_Torsional_Energy-OPLS-2005>
5.39780282974243

> <r_mmod_Van_der_Waal_Energy-OPLS-2005>
115.215469360352

> <r_mmod_Electrostatic_Energy-OPLS-2005>
-197.116989135742

> <r_mmod_Solvation_Energy-OPLS-2005>
-433.613952636719

> <b_mmod_Minimization_Converged-OPLS-2005>
0

> <r_mmod_RMS_Derivative-OPLS-2005>
4.66722440719604

$$$$
66
                    3D
 Structure written by MMmdl.
164172  0  0  1  0            999 V2000
  -30.7046  -14.6279   20.5282 C   0  0  0  0  0  0
  -30.4228  -12.4135   19.4370 C   0  0  0  0  0  0
  -29.4946  -12.5337   18.2098 C   0  0  0  0  0  0
  -28.0158  -12.3874   18.6243 C   0  0  0  0  0  0
  -27.6474  -13.2398   19.8694 C   0  0  2  0  0  0
  -28.7062  -13.0363   20.9710 C   0  0  0  0  0  0
  -25.2377  -13.8211   20.5513 C   0  0  0  0  0  0
  -24.1738  -13.0448   20.9191 C   0  0  0  0  0  0
  -24.6394  -11.6948   20.8737 C   0  0  0  0  0  0
  -23.9078  -10.4302   21.0341 C   0  0  0  0  0  0
  -24.3646   -9.4225   21.9099 C   0  0  0  0  0  0
  -23.6319   -8.2265   22.0690 C   0  0  0  0  0  0
  -22.4284   -8.0287   21.3510 C   0  0  0  0  0  0
  -21.9925   -9.0250   20.4596 C   0  0  0  0  0  0
  -22.7263  -10.2119   20.2971 C   0  0  0  0  0  0
  -21.6876   -6.0724   22.5249 C   0  0  0  0  0  0
  -21.4060   -6.5625   23.8194 C   0  0  0  0  0  0
  -21.3652   -5.6753   24.9133 C   0  0  0  0  0  0
  -21.6029   -4.3014   24.7163 C   0  0  0  0  0  0
  -21.8842   -3.8118   23.4290 C   0  0  0  0  0  0
  -21.9225   -4.6953   22.3356 C   0  0  0  0  0  0
  -22.7728  -13.5162   21.1867 C   0  0  0  0  0  0
  -22.1677   -4.2153   21.0930 F   0  0  0  0  0  0
  -21.5572   -3.4495   25.7674 F   0  0  0  0  0  0
  -29.9999  -13.4433   20.4182 N   0  0  0  0  0  0
  -26.2934  -12.9494   20.3384 N   0  0  0  0  0  0
  -25.9363  -11.6621   20.5867 N   0  0  0  0  0  0
  -22.0429  -12.8127   22.0471 N   0  0  0  0  0  0
  -25.3753  -15.1906   20.3522 N   0  0  0  0  0  0
  -31.9066  -14.5883   20.2359 O   0  0  0  0  0  0
  -21.6666   -6.8865   21.4211 O   0  0  0  0  0  0
  -22.3373  -14.5452   20.6718 O   0  0  0  0  0  0
  -24.6281  -31.8571   23.1999 C   0  0  0  0  0  0
  -25.9110  -32.4745   23.8335 C   0  0  1  0  0  0
  -27.2376  -27.3501   20.1075 C   0  0  0  0  0  0
  -25.5933  -33.8550   24.2265 N   0  0  0  0  0  0
  -23.4211  -30.4828   21.5376 C   0  0  2  0  0  0
  -24.8670  -28.9279   20.1196 C   0  0  0  0  0  0
  -22.7459  -29.4643   22.4893 C   0  0  0  0  0  0
  -18.0289  -28.1402   22.8466 C   0  0  0  0  0  0
  -24.1488  -36.7297   23.2636 C   0  0  0  0  0  0
  -25.9584  -30.7995   21.3645 C   0  0  0  0  0  0
  -26.0350  -29.4250   20.7142 C   0  0  0  0  0  0
  -27.2251  -28.6487   20.6929 C   0  0  0  0  0  0
  -26.0480  -26.8862   19.5103 C   0  0  0  0  0  0
  -24.8735  -27.6622   19.5114 C   0  0  0  0  0  0
  -23.6361  -29.8074   20.1584 C   0  0  0  0  0  0
  -25.4114  -36.3051   24.0320 C   0  0  1  0  0  0
  -20.5893  -28.3705   23.1254 C   0  0  2  0  0  0
  -20.6772  -26.9429   22.5393 C   0  0  0  0  0  0
  -19.5753  -26.6391   21.5188 C   0  0  0  0  0  0
  -18.1929  -26.7944   22.1609 C   0  0  0  0  0  0
  -19.1543  -28.8869   23.2877 C   0  0  0  0  0  0
  -18.9464  -30.1474   23.8901 C   0  0  0  0  0  0
  -17.6462  -30.6601   24.0572 C   0  0  0  0  0  0
  -25.9060  -34.9425   23.5096 C   0  0  0  0  0  0
  -16.5353  -29.9110   23.6327 C   0  0  0  0  0  0
  -16.7280  -28.6536   23.0328 C   0  0  0  0  0  0
  -26.4504  -31.6553   25.0708 C   0  0  0  0  0  0
  -25.3760  -31.3713   26.1457 C   0  0  0  0  0  0
  -27.0327  -30.2959   24.6154 C   0  0  0  0  0  0
  -27.6050  -32.4288   25.7489 C   0  0  0  0  0  0
  -27.5578  -37.1802   24.8463 C   0  0  0  0  0  0
  -21.4166  -29.3064   22.3623 N   0  0  0  0  0  0
  -26.4269  -37.3756   23.9400 N   0  0  0  0  0  0
  -24.6868  -31.0645   22.0904 N   0  0  0  0  0  0
  -23.4172  -28.8175   23.2960 O   0  0  0  0  0  0
  -28.3884  -26.5689   20.0104 O   0  0  0  0  0  0
  -26.5621  -34.8893   22.4654 O   0  0  0  0  0  0
  -23.5447  -32.1316   23.7358 O   0  0  0  0  0  0
  -30.1365  -16.0928   20.6127 C   0  0  0  0  0  0
  -28.9836  -16.6353   21.2784 C   0  0  0  0  0  0
  -29.4114  -18.8570   20.5136 C   0  0  0  0  0  0
  -30.6904  -18.3757   20.0962 C   0  0  0  0  0  0
  -28.1550  -15.9337   22.3365 C   0  0  0  0  0  0
  -32.0980  -19.3304   18.2042 C   0  0  0  0  0  0
  -33.1600  -18.8755   20.4880 C   0  0  0  0  0  0
  -28.7413  -20.2792   20.2850 C   0  0  0  0  0  0
  -29.5281  -21.6442   20.0633 C   0  0  0  0  0  0
  -28.8065  -22.9301   19.4584 C   0  0  0  0  0  0
  -27.9371  -23.9320   20.3217 C   0  0  0  0  0  0
  -28.5111  -25.3367   20.7975 C   0  0  0  0  0  0
  -31.8775  -19.2640   19.7233 C   0  0  0  0  0  0
  -30.9672  -17.0363   20.0592 N   0  0  0  0  0  0
  -28.6002  -17.9494   21.1291 N   0  0  0  0  0  0
  -31.4630  -12.5169   19.1213 H   0  0  0  0  0  0
  -30.3539  -11.4144   19.8669 H   0  0  0  0  0  0
  -29.7496  -11.7803   17.4635 H   0  0  0  0  0  0
  -29.6528  -13.5036   17.7321 H   0  0  0  0  0  0
  -27.8393  -11.3323   18.8380 H   0  0  0  0  0  0
  -27.3664  -12.6464   17.7866 H   0  0  0  0  0  0
  -27.6815  -14.2902   19.5784 H   0  0  0  0  0  0
  -28.7301  -11.9768   21.2379 H   0  0  0  0  0  0
  -28.4906  -13.5086   21.9138 H   0  0  0  0  0  0
  -25.2816   -9.5741   22.4617 H   0  0  0  0  0  0
  -24.0042   -7.4650   22.7406 H   0  0  0  0  0  0
  -21.0852   -8.8772   19.8900 H   0  0  0  0  0  0
  -22.3725  -10.9622   19.6026 H   0  0  0  0  0  0
  -21.2102   -7.6134   23.9724 H   0  0  0  0  0  0
  -21.1427   -6.0442   25.9043 H   0  0  0  0  0  0
  -22.0643   -2.7591   23.2772 H   0  0  0  0  0  0
  -22.4207  -11.9946   22.4979 H   0  0  0  0  0  0
  -21.0957  -13.0919   22.2594 H   0  0  0  0  0  0
  -24.5765  -15.8096   20.4343 H   0  0  0  0  0  0
  -26.1907  -15.6525   19.9701 H   0  0  0  0  0  0
  -26.7197  -32.5399   23.1100 H   0  0  0  0  0  0
  -25.0061  -33.9669   25.0392 H   0  0  0  0  0  0
  -22.7190  -31.3048   21.3878 H   0  0  0  0  0  0
  -23.3720  -35.9664   23.3294 H   0  0  0  0  0  0
  -24.3573  -36.8924   22.2060 H   0  0  0  0  0  0
  -23.7295  -37.6512   23.6667 H   0  0  0  0  0  0
  -26.0908  -31.5628   20.5960 H   0  0  0  0  0  0
  -26.8381  -30.8447   21.9944 H   0  0  0  0  0  0
  -28.1313  -29.0435   21.1311 H   0  0  0  0  0  0
  -26.0276  -25.9233   19.0238 H   0  0  0  0  0  0
  -23.9792  -27.2763   19.0384 H   0  0  0  0  0  0
  -23.7566  -30.5740   19.3920 H   0  0  0  0  0  0
  -22.7567  -29.2342   19.8602 H   0  0  0  0  0  0
  -25.1306  -36.1869   25.0815 H   0  0  0  0  0  0
  -21.0034  -28.3289   24.1353 H   0  0  0  0  0  0
  -20.5635  -26.2323   23.3601 H   0  0  0  0  0  0
  -21.6641  -26.7409   22.1214 H   0  0  0  0  0  0
  -19.6900  -25.6291   21.1241 H   0  0  0  0  0  0
  -19.6710  -27.3172   20.6706 H   0  0  0  0  0  0
  -17.4203  -26.6669   21.4024 H   0  0  0  0  0  0
  -18.0362  -26.0091   22.9029 H   0  0  0  0  0  0
  -19.7941  -30.7293   24.2262 H   0  0  0  0  0  0
  -17.5018  -31.6271   24.5182 H   0  0  0  0  0  0
  -15.5359  -30.3022   23.7653 H   0  0  0  0  0  0
  -15.8670  -28.0878   22.7020 H   0  0  0  0  0  0
  -24.5911  -30.7071   25.7820 H   0  0  0  0  0  0
  -24.8995  -32.2906   26.4885 H   0  0  0  0  0  0
  -25.8125  -30.8903   27.0226 H   0  0  0  0  0  0
  -26.2896  -29.6711   24.1188 H   0  0  0  0  0  0
  -27.4022  -29.7211   25.4657 H   0  0  0  0  0  0
  -27.8767  -30.4212   23.9362 H   0  0  0  0  0  0
  -27.2630  -33.3578   26.2068 H   0  0  0  0  0  0
  -28.3882  -32.6871   25.0348 H   0  0  0  0  0  0
  -28.0694  -31.8422   26.5426 H   0  0  0  0  0  0
  -28.2591  -38.0099   24.7487 H   0  0  0  0  0  0
  -28.1077  -36.2632   24.6305 H   0  0  0  0  0  0
  -27.2296  -37.1484   25.8862 H   0  0  0  0  0  0
  -20.9325  -29.8822   21.6879 H   0  0  0  0  0  0
  -26.0144  -38.2814   24.1389 H   0  0  0  0  0  0
  -28.7857  -15.3497   23.0071 H   0  0  0  0  0  0
  -27.3793  -15.3171   21.8988 H   0  0  0  0  0  0
  -27.6383  -16.6610   22.9635 H   0  0  0  0  0  0
  -31.2099  -19.6997   17.6920 H   0  0  0  0  0  0
  -32.3387  -18.3479   17.7950 H   0  0  0  0  0  0
  -32.9174  -20.0074   17.9563 H   0  0  0  0  0  0
  -32.9927  -18.8886   21.5654 H   0  0  0  0  0  0
  -33.9725  -19.5741   20.2895 H   0  0  0  0  0  0
  -33.5113  -17.8761   20.2252 H   0  0  0  0  0  0
  -28.0639  -20.4398   21.1213 H   0  0  0  0  0  0
  -28.0891  -20.1428   19.4209 H   0  0  0  0  0  0
  -30.2562  -21.4372   19.2821 H   0  0  0  0  0  0
  -30.0948  -21.9072   20.9570 H   0  0  0  0  0  0
  -28.1793  -22.5705   18.6420 H   0  0  0  0  0  0
  -29.5654  -23.5294   18.9502 H   0  0  0  0  0  0
  -27.6221  -23.3866   21.2122 H   0  0  0  0  0  0
  -27.0125  -24.1178   19.7799 H   0  0  0  0  0  0
  -28.0816  -25.5621   21.7749 H   0  0  0  0  0  0
  -29.5777  -25.2046   20.9876 H   0  0  0  0  0  0
  -31.6853  -20.2608   20.1001 H   0  0  0  0  0  0
  1 25  1  0  0  0
  1 30  2  0  0  0
  1 71  1  0  0  0
  2  3  1  0  0  0
  2 25  1  0  0  0
  2 86  1  0  0  0
  2 87  1  0  0  0
  3  4  1  0  0  0
  3 88  1  0  0  0
  3 89  1  0  0  0
  4  5  1  0  0  0
  4 90  1  0  0  0
  4 91  1  0  0  0
  5  6  1  0  0  0
  5 26  1  0  0  0
  5 92  1  0  0  0
  6 25  1  0  0  0
  6 93  1  0  0  0
  6 94  1  0  0  0
  7  8  2  0  0  0
  7 26  1  0  0  0
  7 29  1  0  0  0
  8  9  1  0  0  0
  8 22  1  0  0  0
  9 10  1  0  0  0
  9 27  2  0  0  0
 10 11  2  0  0  0
 10 15  1  0  0  0
 11 12  1  0  0  0
 11 95  1  0  0  0
 12 13  2  0  0  0
 12 96  1  0  0  0
 13 14  1  0  0  0
 13 31  1  0  0  0
 14 15  2  0  0  0
 14 97  1  0  0  0
 15 98  1  0  0  0
 16 17  2  0  0  0
 16 21  1  0  0  0
 16 31  1  0  0  0
 17 18  1  0  0  0
 17 99  1  0  0  0
 18 19  2  0  0  0
 18100  1  0  0  0
 19 20  1  0  0  0
 19 24  1  0  0  0
 20 21  2  0  0  0
 20101  1  0  0  0
 21 23  1  0  0  0
 22 28  1  0  0  0
 22 32  2  0  0  0
 26 27  1  0  0  0
 28102  1  0  0  0
 28103  1  0  0  0
 29104  1  0  0  0
 29105  1  0  0  0
 33 34  1  0  0  0
 33 66  1  0  0  0
 33 70  2  0  0  0
 34 36  1  0  0  0
 34 59  1  0  0  0
 34106  1  0  0  0
 35 44  2  0  0  0
 35 45  1  0  0  0
 35 68  1  0  0  0
 36 56  1  0  0  0
 36107  1  0  0  0
 37 39  1  0  0  0
 37 47  1  0  0  0
 37 66  1  0  0  0
 37108  1  0  0  0
 38 43  2  0  0  0
 38 46  1  0  0  0
 38 47  1  0  0  0
 39 64  1  0  0  0
 39 67  2  0  0  0
 40 52  1  0  0  0
 40 53  2  0  0  0
 40 58  1  0  0  0
 41109  1  0  0  0
 41110  1  0  0  0
 41111  1  0  0  0
 41 48  1  0  0  0
 42 43  1  0  0  0
 42 66  1  0  0  0
 42112  1  0  0  0
 42113  1  0  0  0
 43 44  1  0  0  0
 44114  1  0  0  0
 45 46  2  0  0  0
 45115  1  0  0  0
 46116  1  0  0  0
 47117  1  0  0  0
 47118  1  0  0  0
 48 56  1  0  0  0
 48 65  1  0  0  0
 48119  1  0  0  0
 49 50  1  0  0  0
 49 53  1  0  0  0
 49 64  1  0  0  0
 49120  1  0  0  0
 50 51  1  0  0  0
 50121  1  0  0  0
 50122  1  0  0  0
 51 52  1  0  0  0
 51123  1  0  0  0
 51124  1  0  0  0
 52125  1  0  0  0
 52126  1  0  0  0
 53 54  1  0  0  0
 54 55  2  0  0  0
 54127  1  0  0  0
 55 57  1  0  0  0
 55128  1  0  0  0
 56 69  2  0  0  0
 57 58  2  0  0  0
 57129  1  0  0  0
 58130  1  0  0  0
 59 60  1  0  0  0
 59 61  1  0  0  0
 59 62  1  0  0  0
 60131  1  0  0  0
 60132  1  0  0  0
 60133  1  0  0  0
 61134  1  0  0  0
 61135  1  0  0  0
 61136  1  0  0  0
 62137  1  0  0  0
 62138  1  0  0  0
 62139  1  0  0  0
 63 65  1  0  0  0
 63140  1  0  0  0
 63141  1  0  0  0
 63142  1  0  0  0
 64143  1  0  0  0
 65144  1  0  0  0
 68 82  1  0  0  0
 71 72  2  0  0  0
 71 84  1  0  0  0
 72 75  1  0  0  0
 72 85  1  0  0  0
 73 74  1  0  0  0
 73 78  1  0  0  0
 73 85  2  0  0  0
 74 83  1  0  0  0
 74 84  2  0  0  0
 75145  1  0  0  0
 75146  1  0  0  0
 75147  1  0  0  0
 76148  1  0  0  0
 76149  1  0  0  0
 76150  1  0  0  0
 76 83  1  0  0  0
 77 83  1  0  0  0
 77151  1  0  0  0
 77152  1  0  0  0
 77153  1  0  0  0
 78 79  1  0  0  0
 78154  1  0  0  0
 78155  1  0  0  0
 79 80  1  0  0  0
 79156  1  0  0  0
 79157  1  0  0  0
 80 81  1  0  0  0
 80158  1  0  0  0
 80159  1  0  0  0
 81 82  1  0  0  0
 81160  1  0  0  0
 81161  1  0  0  0
 82162  1  0  0  0
 82163  1  0  0  0
 83164  1  0  0  0
M  ISO  4   1 100  68 101  71 100  82 101
M  END
> <chiral flag>
0

> <version>
0

> <s_m_source_file>
/data/baiqing/PycharmProjects/Reinvent-master-3.2/result/LINK_invent/BTK/process_docking_weight1_custom_sum_contain_oxygen_bond_distance_aromatic_linkinvent_7_9_3/rearranged_h_0075.sdf

> <i_m_source_file_index>
66

> <r_mmod_Potential_Energy-OPLS-2005>
411.698608398438

> <r_mmod_Stretch_Energy-OPLS-2005>
92.0136184692383

> <r_mmod_Bend_Energy-OPLS-2005>
247.105987548828

> <r_mmod_Torsional_Energy-OPLS-2005>
246.358978271484

> <r_mmod_Improper_Torsional_Energy-OPLS-2005>
10.7219219207764

> <r_mmod_Van_der_Waal_Energy-OPLS-2005>
153.683059692383

> <r_mmod_Electrostatic_Energy-OPLS-2005>
-183.005661010742

> <r_mmod_Solvation_Energy-OPLS-2005>
-196.664978027344

> <b_mmod_Minimization_Converged-OPLS-2005>
0

> <r_mmod_RMS_Derivative-OPLS-2005>
4.94803190231323

$$$$
67
                    3D
 Structure written by MMmdl.
159167  0  0  1  0            999 V2000
  -30.6284  -14.7082   20.5455 C   0  0  0  0  0  0
  -30.4451  -12.4569   19.4471 C   0  0  0  0  0  0
  -29.5023  -12.5258   18.2243 C   0  0  0  0  0  0
  -28.0294  -12.3310   18.6392 C   0  0  0  0  0  0
  -27.6517  -13.1964   19.8672 C   0  0  2  0  0  0
  -28.7108  -13.0330   20.9818 C   0  0  0  0  0  0
  -25.2535  -13.8086   20.5630 C   0  0  0  0  0  0
  -24.1813  -13.0382   20.9176 C   0  0  0  0  0  0
  -24.6392  -11.6857   20.8769 C   0  0  0  0  0  0
  -23.9070  -10.4254   21.0417 C   0  0  0  0  0  0
  -24.3621   -9.4180   21.9202 C   0  0  0  0  0  0
  -23.6293   -8.2216   22.0764 C   0  0  0  0  0  0
  -22.4272   -8.0273   21.3543 C   0  0  0  0  0  0
  -21.9909   -9.0248   20.4658 C   0  0  0  0  0  0
  -22.7248  -10.2119   20.3062 C   0  0  0  0  0  0
  -21.6849   -6.0744   22.5289 C   0  0  0  0  0  0
  -21.4024   -6.5665   23.8225 C   0  0  0  0  0  0
  -21.3644   -5.6812   24.9184 C   0  0  0  0  0  0
  -21.6024   -4.3076   24.7232 C   0  0  0  0  0  0
  -21.8806   -3.8170   23.4355 C   0  0  0  0  0  0
  -21.9187   -4.6980   22.3409 C   0  0  0  0  0  0
  -22.7833  -13.5181   21.1827 C   0  0  0  0  0  0
  -22.1661   -4.2171   21.0986 F   0  0  0  0  0  0
  -21.5608   -3.4558   25.7739 F   0  0  0  0  0  0
  -29.9961  -13.4800   20.4275 N   0  0  0  0  0  0
  -26.2983  -12.9247   20.3363 N   0  0  0  0  0  0
  -25.9318  -11.6422   20.5817 N   0  0  0  0  0  0
  -22.0476  -12.8189   22.0406 N   0  0  0  0  0  0
  -25.4158  -15.1786   20.3929 N   0  0  0  0  0  0
  -31.7944  -14.7649   20.1370 O   0  0  0  0  0  0
  -21.6620   -6.8879   21.4254 O   0  0  0  0  0  0
  -22.3516  -14.5484   20.6659 O   0  0  0  0  0  0
  -24.6271  -31.8576   23.2026 C   0  0  0  0  0  0
  -25.9116  -32.4763   23.8359 C   0  0  1  0  0  0
  -27.2312  -27.3082   20.1199 C   0  0  0  0  0  0
  -25.5936  -33.8567   24.2285 N   0  0  0  0  0  0
  -23.4223  -30.4809   21.5431 C   0  0  2  0  0  0
  -24.8711  -28.9343   20.1114 C   0  0  0  0  0  0
  -22.7479  -29.4618   22.4921 C   0  0  0  0  0  0
  -18.0287  -28.1380   22.8485 C   0  0  0  0  0  0
  -24.1494  -36.7294   23.2645 C   0  0  0  0  0  0
  -25.9645  -30.7840   21.3775 C   0  0  0  0  0  0
  -26.0384  -29.4099   20.7211 C   0  0  0  0  0  0
  -27.2179  -28.6064   20.7193 C   0  0  0  0  0  0
  -26.0427  -26.8954   19.4712 C   0  0  0  0  0  0
  -24.8749  -27.6814   19.4801 C   0  0  0  0  0  0
  -23.6392  -29.8143   20.1593 C   0  0  0  0  0  0
  -25.4118  -36.3072   24.0331 C   0  0  1  0  0  0
  -20.5891  -28.3692   23.1271 C   0  0  2  0  0  0
  -20.6781  -26.9412   22.5410 C   0  0  0  0  0  0
  -19.5756  -26.6381   21.5210 C   0  0  0  0  0  0
  -18.1932  -26.7925   22.1622 C   0  0  0  0  0  0
  -19.1543  -28.8851   23.2876 C   0  0  0  0  0  0
  -18.9467  -30.1449   23.8893 C   0  0  0  0  0  0
  -17.6469  -30.6584   24.0560 C   0  0  0  0  0  0
  -25.9052  -34.9439   23.5108 C   0  0  0  0  0  0
  -16.5359  -29.9084   23.6326 C   0  0  0  0  0  0
  -16.7275  -28.6500   23.0354 C   0  0  0  0  0  0
  -26.4510  -31.6578   25.0734 C   0  0  0  0  0  0
  -25.3763  -31.3712   26.1478 C   0  0  0  0  0  0
  -27.0371  -30.3005   24.6197 C   0  0  0  0  0  0
  -27.6050  -32.4333   25.7512 C   0  0  0  0  0  0
  -27.5574  -37.1811   24.8467 C   0  0  0  0  0  0
  -21.4196  -29.3041   22.3661 N   0  0  0  0  0  0
  -26.4291  -37.3766   23.9402 N   0  0  0  0  0  0
  -24.6897  -31.0575   22.0981 N   0  0  0  0  0  0
  -23.4192  -28.8148   23.3001 O   0  0  0  0  0  0
  -28.3529  -26.4592   20.1980 O   0  0  0  0  0  0
  -26.5616  -34.8906   22.4669 O   0  0  0  0  0  0
  -23.5435  -32.1376   23.7347 O   0  0  0  0  0  0
  -30.9098  -18.6096   18.2457 C   0  0  0  0  0  0
  -30.5867  -19.8379   18.8475 C   0  0  0  0  0  0
  -30.7643  -17.4159   18.9738 C   0  0  0  0  0  0
  -30.1237  -19.8650   20.1728 C   0  0  0  0  0  0
  -30.3247  -17.4480   20.3140 C   0  0  0  0  0  0
  -28.4608  -16.1664   21.2406 C   0  0  0  0  0  0
  -30.6010  -16.2382   22.5439 C   0  0  0  0  0  0
  -29.8596  -21.2577   20.8649 C   0  0  0  0  0  0
  -29.0846  -22.4170   20.0734 C   0  0  0  0  0  0
  -29.1912  -23.9412   20.5669 C   0  0  0  0  0  0
  -28.1991  -25.0085   19.9139 C   0  0  0  0  0  0
  -30.0027  -16.1073   21.1254 C   0  0  0  0  0  0
  -30.0104  -18.6831   20.8790 N   0  0  0  0  0  0
  -31.4766  -12.5983   19.1206 H   0  0  0  0  0  0
  -30.4233  -11.4625   19.8942 H   0  0  0  0  0  0
  -29.7843  -11.7736   17.4860 H   0  0  0  0  0  0
  -29.6157  -13.4950   17.7360 H   0  0  0  0  0  0
  -27.8838  -11.2756   18.8734 H   0  0  0  0  0  0
  -27.3675  -12.5509   17.8004 H   0  0  0  0  0  0
  -27.6656  -14.2179   19.5012 H   0  0  0  0  0  0
  -28.7715  -11.9805   21.2638 H   0  0  0  0  0  0
  -28.4629  -13.5080   21.9227 H   0  0  0  0  0  0
  -25.2771   -9.5676   22.4777 H   0  0  0  0  0  0
  -23.9986   -7.4603   22.7482 H   0  0  0  0  0  0
  -21.0840   -8.8781   19.8953 H   0  0  0  0  0  0
  -22.3721  -10.9673   19.6177 H   0  0  0  0  0  0
  -21.2051   -7.6176   23.9743 H   0  0  0  0  0  0
  -21.1474   -6.0540   25.9079 H   0  0  0  0  0  0
  -22.0597   -2.7637   23.2850 H   0  0  0  0  0  0
  -22.4081  -11.9840   22.4785 H   0  0  0  0  0  0
  -21.1106  -13.1231   22.2635 H   0  0  0  0  0  0
  -24.6465  -15.8316   20.4863 H   0  0  0  0  0  0
  -26.2752  -15.6216   20.0979 H   0  0  0  0  0  0
  -26.7185  -32.5424   23.1104 H   0  0  0  0  0  0
  -25.0087  -33.9710   25.0435 H   0  0  0  0  0  0
  -22.7178  -31.3020   21.3975 H   0  0  0  0  0  0
  -23.3739  -35.9643   23.3318 H   0  0  0  0  0  0
  -24.3581  -36.8904   22.2055 H   0  0  0  0  0  0
  -23.7267  -37.6511   23.6660 H   0  0  0  0  0  0
  -26.1015  -31.5455   20.6082 H   0  0  0  0  0  0
  -26.8429  -30.8306   22.0093 H   0  0  0  0  0  0
  -28.1102  -28.9628   21.2156 H   0  0  0  0  0  0
  -25.9854  -25.9480   18.9557 H   0  0  0  0  0  0
  -23.9818  -27.3121   18.9959 H   0  0  0  0  0  0
  -23.7614  -30.5890   19.4012 H   0  0  0  0  0  0
  -22.7588  -29.2445   19.8553 H   0  0  0  0  0  0
  -25.1300  -36.1929   25.0824 H   0  0  0  0  0  0
  -20.9988  -28.3276   24.1390 H   0  0  0  0  0  0
  -20.5678  -26.2304   23.3614 H   0  0  0  0  0  0
  -21.6650  -26.7435   22.1205 H   0  0  0  0  0  0
  -19.6922  -25.6291   21.1236 H   0  0  0  0  0  0
  -19.6695  -27.3189   20.6735 H   0  0  0  0  0  0
  -17.4210  -26.6664   21.4021 H   0  0  0  0  0  0
  -18.0339  -26.0060   22.9010 H   0  0  0  0  0  0
  -19.7945  -30.7260   24.2264 H   0  0  0  0  0  0
  -17.5028  -31.6261   24.5168 H   0  0  0  0  0  0
  -15.5363  -30.2992   23.7647 H   0  0  0  0  0  0
  -15.8673  -28.0814   22.7083 H   0  0  0  0  0  0
  -24.5909  -30.7089   25.7824 H   0  0  0  0  0  0
  -24.8997  -32.2882   26.4951 H   0  0  0  0  0  0
  -25.8109  -30.8859   27.0226 H   0  0  0  0  0  0
  -26.2955  -29.6741   24.1228 H   0  0  0  0  0  0
  -27.4082  -29.7269   25.4701 H   0  0  0  0  0  0
  -27.8814  -30.4295   23.9422 H   0  0  0  0  0  0
  -27.2621  -33.3605   26.2114 H   0  0  0  0  0  0
  -28.3847  -32.6948   25.0349 H   0  0  0  0  0  0
  -28.0740  -31.8464   26.5419 H   0  0  0  0  0  0
  -28.2610  -38.0090   24.7481 H   0  0  0  0  0  0
  -28.1054  -36.2619   24.6335 H   0  0  0  0  0  0
  -27.2290  -37.1510   25.8872 H   0  0  0  0  0  0
  -20.9375  -29.8766   21.6868 H   0  0  0  0  0  0
  -26.0175  -38.2848   24.1372 H   0  0  0  0  0  0
  -31.2618  -18.5775   17.2240 H   0  0  0  0  0  0
  -30.7185  -20.7540   18.2896 H   0  0  0  0  0  0
  -30.9836  -16.4821   18.4761 H   0  0  0  0  0  0
  -28.1498  -17.1055   21.6966 H   0  0  0  0  0  0
  -27.9968  -15.4300   21.8795 H   0  0  0  0  0  0
  -28.0013  -16.1648   20.2569 H   0  0  0  0  0  0
  -30.4080  -15.3450   23.1401 H   0  0  0  0  0  0
  -30.1700  -17.0807   23.0858 H   0  0  0  0  0  0
  -31.6809  -16.3895   22.5097 H   0  0  0  0  0  0
  -30.8426  -21.6398   21.1392 H   0  0  0  0  0  0
  -29.3533  -21.0817   21.8138 H   0  0  0  0  0  0
  -28.0335  -22.1335   20.0290 H   0  0  0  0  0  0
  -29.4254  -22.4106   19.0388 H   0  0  0  0  0  0
  -30.2148  -24.2808   20.4049 H   0  0  0  0  0  0
  -29.0448  -23.9649   21.6470 H   0  0  0  0  0  0
  -27.2035  -24.6837   20.2166 H   0  0  0  0  0  0
  -28.2400  -24.8935   18.8300 H   0  0  0  0  0  0
  1 25  1  0  0  0
  1 30  2  0  0  0
  1 82  1  0  0  0
  2  3  1  0  0  0
  2 25  1  0  0  0
  2 84  1  0  0  0
  2 85  1  0  0  0
  3  4  1  0  0  0
  3 86  1  0  0  0
  3 87  1  0  0  0
  4  5  1  0  0  0
  4 88  1  0  0  0
  4 89  1  0  0  0
  5  6  1  0  0  0
  5 26  1  0  0  0
  5 90  1  0  0  0
  6 25  1  0  0  0
  6 91  1  0  0  0
  6 92  1  0  0  0
  7  8  2  0  0  0
  7 26  1  0  0  0
  7 29  1  0  0  0
  8  9  1  0  0  0
  8 22  1  0  0  0
  9 10  1  0  0  0
  9 27  2  0  0  0
 10 11  2  0  0  0
 10 15  1  0  0  0
 11 12  1  0  0  0
 11 93  1  0  0  0
 12 13  2  0  0  0
 12 94  1  0  0  0
 13 14  1  0  0  0
 13 31  1  0  0  0
 14 15  2  0  0  0
 14 95  1  0  0  0
 15 96  1  0  0  0
 16 17  2  0  0  0
 16 21  1  0  0  0
 16 31  1  0  0  0
 17 18  1  0  0  0
 17 97  1  0  0  0
 18 19  2  0  0  0
 18 98  1  0  0  0
 19 20  1  0  0  0
 19 24  1  0  0  0
 20 21  2  0  0  0
 20 99  1  0  0  0
 21 23  1  0  0  0
 22 28  1  0  0  0
 22 32  2  0  0  0
 26 27  1  0  0  0
 28100  1  0  0  0
 28101  1  0  0  0
 29102  1  0  0  0
 29103  1  0  0  0
 33 34  1  0  0  0
 33 66  1  0  0  0
 33 70  2  0  0  0
 34 36  1  0  0  0
 34 59  1  0  0  0
 34104  1  0  0  0
 35 44  2  0  0  0
 35 45  1  0  0  0
 35 68  1  0  0  0
 36 56  1  0  0  0
 36105  1  0  0  0
 37 39  1  0  0  0
 37 47  1  0  0  0
 37 66  1  0  0  0
 37106  1  0  0  0
 38 43  2  0  0  0
 38 46  1  0  0  0
 38 47  1  0  0  0
 39 64  1  0  0  0
 39 67  2  0  0  0
 40 52  1  0  0  0
 40 53  2  0  0  0
 40 58  1  0  0  0
 41107  1  0  0  0
 41108  1  0  0  0
 41109  1  0  0  0
 41 48  1  0  0  0
 42 43  1  0  0  0
 42 66  1  0  0  0
 42110  1  0  0  0
 42111  1  0  0  0
 43 44  1  0  0  0
 44112  1  0  0  0
 45 46  2  0  0  0
 45113  1  0  0  0
 46114  1  0  0  0
 47115  1  0  0  0
 47116  1  0  0  0
 48 56  1  0  0  0
 48 65  1  0  0  0
 48117  1  0  0  0
 49 50  1  0  0  0
 49 53  1  0  0  0
 49 64  1  0  0  0
 49118  1  0  0  0
 50 51  1  0  0  0
 50119  1  0  0  0
 50120  1  0  0  0
 51 52  1  0  0  0
 51121  1  0  0  0
 51122  1  0  0  0
 52123  1  0  0  0
 52124  1  0  0  0
 53 54  1  0  0  0
 54 55  2  0  0  0
 54125  1  0  0  0
 55 57  1  0  0  0
 55126  1  0  0  0
 56 69  2  0  0  0
 57 58  2  0  0  0
 57127  1  0  0  0
 58128  1  0  0  0
 59 60  1  0  0  0
 59 61  1  0  0  0
 59 62  1  0  0  0
 60129  1  0  0  0
 60130  1  0  0  0
 60131  1  0  0  0
 61132  1  0  0  0
 61133  1  0  0  0
 61134  1  0  0  0
 62135  1  0  0  0
 62136  1  0  0  0
 62137  1  0  0  0
 63 65  1  0  0  0
 63138  1  0  0  0
 63139  1  0  0  0
 63140  1  0  0  0
 64141  1  0  0  0
 65142  1  0  0  0
 68 81  1  0  0  0
 71 72  2  0  0  0
 71 73  1  0  0  0
 71143  1  0  0  0
 72 74  1  0  0  0
 72144  1  0  0  0
 73 75  2  0  0  0
 73145  1  0  0  0
 74 78  1  0  0  0
 74 83  2  0  0  0
 75 82  1  0  0  0
 75 83  1  0  0  0
 76146  1  0  0  0
 76147  1  0  0  0
 76148  1  0  0  0
 76 82  1  0  0  0
 77 82  1  0  0  0
 77149  1  0  0  0
 77150  1  0  0  0
 77151  1  0  0  0
 78 79  1  0  0  0
 78152  1  0  0  0
 78153  1  0  0  0
 79 80  1  0  0  0
 79154  1  0  0  0
 79155  1  0  0  0
 80 81  1  0  0  0
 80156  1  0  0  0
 80157  1  0  0  0
 81158  1  0  0  0
 81159  1  0  0  0
M  ISO  4   1 100  68 101  81 101  82 100
M  END
> <chiral flag>
0

> <version>
0

> <s_m_source_file>
/data/baiqing/PycharmProjects/Reinvent-master-3.2/result/LINK_invent/BTK/process_docking_weight1_custom_sum_contain_oxygen_bond_distance_aromatic_linkinvent_7_9_3/rearranged_h_0075.sdf

> <i_m_source_file_index>
67

> <r_mmod_Potential_Energy-OPLS-2005>
90.1253509521484

> <r_mmod_Stretch_Energy-OPLS-2005>
113.456657409668

> <r_mmod_Bend_Energy-OPLS-2005>
177.9775390625

> <r_mmod_Torsional_Energy-OPLS-2005>
178.866943359375

> <r_mmod_Improper_Torsional_Energy-OPLS-2005>
2.59498071670532

> <r_mmod_Van_der_Waal_Energy-OPLS-2005>
160.755859375

> <r_mmod_Electrostatic_Energy-OPLS-2005>
-410.599426269531

> <r_mmod_Solvation_Energy-OPLS-2005>
-191.850769042969

> <b_mmod_Minimization_Converged-OPLS-2005>
0

> <r_mmod_RMS_Derivative-OPLS-2005>
2.06940126419067

$$$$
68
                    3D
 Structure written by MMmdl.
168176  0  0  1  0            999 V2000
  -30.7423  -14.5801   20.6044 C   0  0  0  0  0  0
  -30.4113  -12.3815   19.4684 C   0  0  0  0  0  0
  -29.4999  -12.5392   18.2336 C   0  0  0  0  0  0
  -28.0226  -12.3793   18.6346 C   0  0  0  0  0  0
  -27.6562  -13.2284   19.8804 C   0  0  2  0  0  0
  -28.7021  -13.0551   21.0080 C   0  0  0  0  0  0
  -25.2423  -13.8124   20.5512 C   0  0  0  0  0  0
  -24.1770  -13.0378   20.9154 C   0  0  0  0  0  0
  -24.6412  -11.6881   20.8772 C   0  0  0  0  0  0
  -23.9091  -10.4263   21.0428 C   0  0  0  0  0  0
  -24.3634   -9.4177   21.9206 C   0  0  0  0  0  0
  -23.6301   -8.2215   22.0766 C   0  0  0  0  0  0
  -22.4282   -8.0270   21.3549 C   0  0  0  0  0  0
  -21.9929   -9.0244   20.4648 C   0  0  0  0  0  0
  -22.7266  -10.2116   20.3070 C   0  0  0  0  0  0
  -21.6843   -6.0740   22.5282 C   0  0  0  0  0  0
  -21.4011   -6.5647   23.8213 C   0  0  0  0  0  0
  -21.3658   -5.6802   24.9175 C   0  0  0  0  0  0
  -21.6042   -4.3062   24.7225 C   0  0  0  0  0  0
  -21.8819   -3.8156   23.4343 C   0  0  0  0  0  0
  -21.9188   -4.6972   22.3402 C   0  0  0  0  0  0
  -22.7792  -13.5155   21.1828 C   0  0  0  0  0  0
  -22.1657   -4.2160   21.0979 F   0  0  0  0  0  0
  -21.5625   -3.4547   25.7738 F   0  0  0  0  0  0
  -30.0251  -13.4075   20.4723 N   0  0  0  0  0  0
  -26.2989  -12.9401   20.3398 N   0  0  0  0  0  0
  -25.9367  -11.6538   20.5865 N   0  0  0  0  0  0
  -22.0477  -12.8155   22.0422 N   0  0  0  0  0  0
  -25.3845  -15.1800   20.3558 N   0  0  0  0  0  0
  -31.7930  -14.6652   19.9608 O   0  0  0  0  0  0
  -21.6631   -6.8883   21.4246 O   0  0  0  0  0  0
  -22.3455  -14.5463   20.6691 O   0  0  0  0  0  0
  -24.6221  -31.8625   23.2045 C   0  0  0  0  0  0
  -25.9084  -32.4791   23.8365 C   0  0  1  0  0  0
  -27.2286  -27.3619   20.1203 C   0  0  0  0  0  0
  -25.5919  -33.8590   24.2304 N   0  0  0  0  0  0
  -23.4149  -30.4847   21.5460 C   0  0  2  0  0  0
  -24.8645  -28.9451   20.1101 C   0  0  0  0  0  0
  -22.7459  -29.4632   22.4954 C   0  0  0  0  0  0
  -18.0286  -28.1379   22.8491 C   0  0  0  0  0  0
  -24.1492  -36.7300   23.2638 C   0  0  0  0  0  0
  -25.9509  -30.8081   21.3682 C   0  0  0  0  0  0
  -26.0293  -29.4376   20.7137 C   0  0  0  0  0  0
  -27.2181  -28.6568   20.7098 C   0  0  0  0  0  0
  -26.0504  -26.9128   19.4865 C   0  0  0  0  0  0
  -24.8745  -27.6864   19.4866 C   0  0  0  0  0  0
  -23.6276  -29.8172   20.1613 C   0  0  0  0  0  0
  -25.4115  -36.3093   24.0335 C   0  0  1  0  0  0
  -20.5881  -28.3681   23.1297 C   0  0  2  0  0  0
  -20.6775  -26.9409   22.5414 C   0  0  0  0  0  0
  -19.5752  -26.6383   21.5212 C   0  0  0  0  0  0
  -18.1932  -26.7926   22.1621 C   0  0  0  0  0  0
  -19.1535  -28.8847   23.2888 C   0  0  0  0  0  0
  -18.9455  -30.1452   23.8898 C   0  0  0  0  0  0
  -17.6454  -30.6585   24.0559 C   0  0  0  0  0  0
  -25.9046  -34.9457   23.5119 C   0  0  0  0  0  0
  -16.5348  -29.9080   23.6326 C   0  0  0  0  0  0
  -16.7273  -28.6497   23.0353 C   0  0  0  0  0  0
  -26.4487  -31.6578   25.0709 C   0  0  0  0  0  0
  -25.3730  -31.3679   26.1434 C   0  0  0  0  0  0
  -27.0329  -30.3018   24.6113 C   0  0  0  0  0  0
  -27.6059  -32.4295   25.7480 C   0  0  0  0  0  0
  -27.5584  -37.1806   24.8466 C   0  0  0  0  0  0
  -21.4177  -29.3038   22.3696 N   0  0  0  0  0  0
  -26.4298  -37.3782   23.9408 N   0  0  0  0  0  0
  -24.6813  -31.0673   22.0973 N   0  0  0  0  0  0
  -23.4199  -28.8180   23.3027 O   0  0  0  0  0  0
  -28.3363  -26.5178   20.1571 O   0  0  0  0  0  0
  -26.5607  -34.8917   22.4680 O   0  0  0  0  0  0
  -23.5395  -32.1406   23.7396 O   0  0  0  0  0  0
  -28.9810  -19.0528   19.7005 C   0  0  0  0  0  0
  -28.7148  -20.4500   19.7133 C   0  0  0  0  0  0
  -28.8536  -21.1848   20.9227 C   0  0  0  0  0  0
  -29.3536  -18.3712   20.8829 C   0  0  0  0  0  0
  -29.3356  -20.4336   22.0354 C   0  0  0  0  0  0
  -28.1970  -21.1086   18.4478 C   0  0  0  0  0  0
  -29.5764  -21.0726   23.3904 C   0  0  0  0  0  0
  -27.8761  -16.5781   21.7498 C   0  0  0  0  0  0
  -30.2520  -15.4165   22.9955 C   0  0  0  0  0  0
  -31.7031  -16.7375   21.5514 C   0  0  0  0  0  0
  -28.2768  -22.6380   21.1083 C   0  0  0  0  0  0
  -28.8189  -23.9135   20.3487 C   0  0  0  0  0  0
  -28.1133  -25.2404   20.8461 C   0  0  0  0  0  0
  -29.2032  -16.8074   21.0017 C   0  0  2  0  0  0
  -30.4092  -15.8640   21.5141 C   0  0  0  0  0  0
  -29.5501  -19.0895   22.0162 N   0  0  0  0  0  0
  -31.4587  -12.4400   19.1693 H   0  0  0  0  0  0
  -30.3015  -11.3819   19.8916 H   0  0  0  0  0  0
  -29.7620  -11.8044   17.4710 H   0  0  0  0  0  0
  -29.6574  -13.5213   17.7848 H   0  0  0  0  0  0
  -27.8470  -11.3232   18.8421 H   0  0  0  0  0  0
  -27.3722  -12.6365   17.7977 H   0  0  0  0  0  0
  -27.6823  -14.2723   19.5681 H   0  0  0  0  0  0
  -28.7078  -12.0209   21.3537 H   0  0  0  0  0  0
  -28.4307  -13.6265   21.8831 H   0  0  0  0  0  0
  -25.2778   -9.5643   22.4787 H   0  0  0  0  0  0
  -24.0002   -7.4604   22.7487 H   0  0  0  0  0  0
  -21.0862   -8.8765   19.8951 H   0  0  0  0  0  0
  -22.3733  -10.9658   19.6181 H   0  0  0  0  0  0
  -21.2008   -7.6157   23.9717 H   0  0  0  0  0  0
  -21.1479   -6.0536   25.9078 H   0  0  0  0  0  0
  -22.0600   -2.7620   23.2837 H   0  0  0  0  0  0
  -22.4120  -11.9811   22.4779 H   0  0  0  0  0  0
  -21.1117  -13.1190   22.2698 H   0  0  0  0  0  0
  -24.6057  -15.8214   20.4557 H   0  0  0  0  0  0
  -26.2293  -15.6270   20.0266 H   0  0  0  0  0  0
  -26.7154  -32.5489   23.1123 H   0  0  0  0  0  0
  -25.0077  -33.9740   25.0456 H   0  0  0  0  0  0
  -22.7063  -31.3032   21.4030 H   0  0  0  0  0  0
  -23.3753  -35.9633   23.3298 H   0  0  0  0  0  0
  -24.3590  -36.8921   22.2053 H   0  0  0  0  0  0
  -23.7240  -37.6503   23.6656 H   0  0  0  0  0  0
  -26.0716  -31.5717   20.5987 H   0  0  0  0  0  0
  -26.8354  -30.8617   21.9911 H   0  0  0  0  0  0
  -28.1132  -29.0277   21.1897 H   0  0  0  0  0  0
  -26.0349  -25.9444   19.0063 H   0  0  0  0  0  0
  -23.9834  -27.3045   19.0078 H   0  0  0  0  0  0
  -23.7379  -30.5918   19.4015 H   0  0  0  0  0  0
  -22.7506  -29.2389   19.8645 H   0  0  0  0  0  0
  -25.1289  -36.1957   25.0827 H   0  0  0  0  0  0
  -20.9972  -28.3252   24.1416 H   0  0  0  0  0  0
  -20.5695  -26.2282   23.3605 H   0  0  0  0  0  0
  -21.6644  -26.7459   22.1195 H   0  0  0  0  0  0
  -19.6920  -25.6295   21.1236 H   0  0  0  0  0  0
  -19.6693  -27.3197   20.6746 H   0  0  0  0  0  0
  -17.4209  -26.6688   21.4014 H   0  0  0  0  0  0
  -18.0324  -26.0062   22.9010 H   0  0  0  0  0  0
  -19.7928  -30.7271   24.2268 H   0  0  0  0  0  0
  -17.5007  -31.6265   24.5159 H   0  0  0  0  0  0
  -15.5346  -30.2981   23.7646 H   0  0  0  0  0  0
  -15.8676  -28.0815   22.7064 H   0  0  0  0  0  0
  -24.5934  -30.6998   25.7755 H   0  0  0  0  0  0
  -24.8877  -32.2821   26.4860 H   0  0  0  0  0  0
  -25.8066  -30.8864   27.0207 H   0  0  0  0  0  0
  -26.2885  -29.6765   24.1169 H   0  0  0  0  0  0
  -27.4097  -29.7267   25.4582 H   0  0  0  0  0  0
  -27.8720  -30.4334   23.9276 H   0  0  0  0  0  0
  -27.2693  -33.3607   26.2050 H   0  0  0  0  0  0
  -28.3874  -32.6831   25.0303 H   0  0  0  0  0  0
  -28.0715  -31.8410   26.5397 H   0  0  0  0  0  0
  -28.2597  -38.0109   24.7522 H   0  0  0  0  0  0
  -28.1087  -36.2639   24.6285 H   0  0  0  0  0  0
  -27.2301  -37.1448   25.8869 H   0  0  0  0  0  0
  -20.9354  -29.8745   21.6896 H   0  0  0  0  0  0
  -26.0185  -38.2862   24.1396 H   0  0  0  0  0  0
  -28.7894  -18.4828   18.8012 H   0  0  0  0  0  0
  -27.9734  -20.3689   17.6781 H   0  0  0  0  0  0
  -28.9435  -21.7911   18.0425 H   0  0  0  0  0  0
  -27.2801  -21.6661   18.6395 H   0  0  0  0  0  0
  -30.1639  -21.9852   23.2853 H   0  0  0  0  0  0
  -30.1239  -20.4053   24.0568 H   0  0  0  0  0  0
  -28.6300  -21.3191   23.8713 H   0  0  0  0  0  0
  -27.0688  -17.1374   21.2764 H   0  0  0  0  0  0
  -27.9382  -16.9347   22.7783 H   0  0  0  0  0  0
  -27.5762  -15.5391   21.7818 H   0  0  0  0  0  0
  -30.2901  -16.2729   23.6691 H   0  0  0  0  0  0
  -31.0562  -14.7420   23.2929 H   0  0  0  0  0  0
  -29.3193  -14.9132   23.2255 H   0  0  0  0  0  0
  -31.9062  -17.1982   20.5832 H   0  0  0  0  0  0
  -32.5856  -16.1575   21.8280 H   0  0  0  0  0  0
  -31.6425  -17.5423   22.2830 H   0  0  0  0  0  0
  -28.2862  -22.8877   22.1675 H   0  0  0  0  0  0
  -27.2130  -22.5572   20.8812 H   0  0  0  0  0  0
  -28.6554  -23.8040   19.2776 H   0  0  0  0  0  0
  -29.8958  -24.0034   20.4936 H   0  0  0  0  0  0
  -28.4153  -25.4043   21.8812 H   0  0  0  0  0  0
  -27.0471  -25.0235   20.9138 H   0  0  0  0  0  0
  -29.0185  -16.4823   19.9766 H   0  0  0  0  0  0
  1 25  1  0  0  0
  1 30  2  0  0  0
  1 85  1  0  0  0
  2  3  1  0  0  0
  2 25  1  0  0  0
  2 87  1  0  0  0
  2 88  1  0  0  0
  3  4  1  0  0  0
  3 89  1  0  0  0
  3 90  1  0  0  0
  4  5  1  0  0  0
  4 91  1  0  0  0
  4 92  1  0  0  0
  5  6  1  0  0  0
  5 26  1  0  0  0
  5 93  1  0  0  0
  6 25  1  0  0  0
  6 94  1  0  0  0
  6 95  1  0  0  0
  7  8  2  0  0  0
  7 26  1  0  0  0
  7 29  1  0  0  0
  8  9  1  0  0  0
  8 22  1  0  0  0
  9 10  1  0  0  0
  9 27  2  0  0  0
 10 11  2  0  0  0
 10 15  1  0  0  0
 11 12  1  0  0  0
 11 96  1  0  0  0
 12 13  2  0  0  0
 12 97  1  0  0  0
 13 14  1  0  0  0
 13 31  1  0  0  0
 14 15  2  0  0  0
 14 98  1  0  0  0
 15 99  1  0  0  0
 16 17  2  0  0  0
 16 21  1  0  0  0
 16 31  1  0  0  0
 17 18  1  0  0  0
 17100  1  0  0  0
 18 19  2  0  0  0
 18101  1  0  0  0
 19 20  1  0  0  0
 19 24  1  0  0  0
 20 21  2  0  0  0
 20102  1  0  0  0
 21 23  1  0  0  0
 22 28  1  0  0  0
 22 32  2  0  0  0
 26 27  1  0  0  0
 28103  1  0  0  0
 28104  1  0  0  0
 29105  1  0  0  0
 29106  1  0  0  0
 33 34  1  0  0  0
 33 66  1  0  0  0
 33 70  2  0  0  0
 34 36  1  0  0  0
 34 59  1  0  0  0
 34107  1  0  0  0
 35 44  2  0  0  0
 35 45  1  0  0  0
 35 68  1  0  0  0
 36 56  1  0  0  0
 36108  1  0  0  0
 37 39  1  0  0  0
 37 47  1  0  0  0
 37 66  1  0  0  0
 37109  1  0  0  0
 38 43  2  0  0  0
 38 46  1  0  0  0
 38 47  1  0  0  0
 39 64  1  0  0  0
 39 67  2  0  0  0
 40 52  1  0  0  0
 40 53  2  0  0  0
 40 58  1  0  0  0
 41110  1  0  0  0
 41111  1  0  0  0
 41112  1  0  0  0
 41 48  1  0  0  0
 42 43  1  0  0  0
 42 66  1  0  0  0
 42113  1  0  0  0
 42114  1  0  0  0
 43 44  1  0  0  0
 44115  1  0  0  0
 45 46  2  0  0  0
 45116  1  0  0  0
 46117  1  0  0  0
 47118  1  0  0  0
 47119  1  0  0  0
 48 56  1  0  0  0
 48 65  1  0  0  0
 48120  1  0  0  0
 49 50  1  0  0  0
 49 53  1  0  0  0
 49 64  1  0  0  0
 49121  1  0  0  0
 50 51  1  0  0  0
 50122  1  0  0  0
 50123  1  0  0  0
 51 52  1  0  0  0
 51124  1  0  0  0
 51125  1  0  0  0
 52126  1  0  0  0
 52127  1  0  0  0
 53 54  1  0  0  0
 54 55  2  0  0  0
 54128  1  0  0  0
 55 57  1  0  0  0
 55129  1  0  0  0
 56 69  2  0  0  0
 57 58  2  0  0  0
 57130  1  0  0  0
 58131  1  0  0  0
 59 60  1  0  0  0
 59 61  1  0  0  0
 59 62  1  0  0  0
 60132  1  0  0  0
 60133  1  0  0  0
 60134  1  0  0  0
 61135  1  0  0  0
 61136  1  0  0  0
 61137  1  0  0  0
 62138  1  0  0  0
 62139  1  0  0  0
 62140  1  0  0  0
 63 65  1  0  0  0
 63141  1  0  0  0
 63142  1  0  0  0
 63143  1  0  0  0
 64144  1  0  0  0
 65145  1  0  0  0
 68 83  1  0  0  0
 71 72  2  0  0  0
 71 74  1  0  0  0
 71146  1  0  0  0
 72 73  1  0  0  0
 72 76  1  0  0  0
 73 75  2  0  0  0
 73 81  1  0  0  0
 74 84  1  0  0  0
 74 86  2  0  0  0
 75 77  1  0  0  0
 75 86  1  0  0  0
 76147  1  0  0  0
 76148  1  0  0  0
 76149  1  0  0  0
 77150  1  0  0  0
 77151  1  0  0  0
 77152  1  0  0  0
 78153  1  0  0  0
 78154  1  0  0  0
 78155  1  0  0  0
 78 84  1  0  0  0
 79156  1  0  0  0
 79157  1  0  0  0
 79158  1  0  0  0
 79 85  1  0  0  0
 80 85  1  0  0  0
 80159  1  0  0  0
 80160  1  0  0  0
 80161  1  0  0  0
 81 82  1  0  0  0
 81162  1  0  0  0
 81163  1  0  0  0
 82 83  1  0  0  0
 82164  1  0  0  0
 82165  1  0  0  0
 83166  1  0  0  0
 83167  1  0  0  0
 84 85  1  0  0  0
 84168  1  0  0  0
M  ISO  4   1 100  68 101  83 101  85 100
M  END
> <chiral flag>
0

> <version>
0

> <s_m_source_file>
/data/baiqing/PycharmProjects/Reinvent-master-3.2/result/LINK_invent/BTK/process_docking_weight1_custom_sum_contain_oxygen_bond_distance_aromatic_linkinvent_7_9_3/rearranged_h_0075.sdf

> <i_m_source_file_index>
68

> <r_mmod_Potential_Energy-OPLS-2005>
1.66831207275391

> <r_mmod_Stretch_Energy-OPLS-2005>
84.7351608276367

> <r_mmod_Bend_Energy-OPLS-2005>
172.606170654297

> <r_mmod_Torsional_Energy-OPLS-2005>
210.060150146484

> <r_mmod_Improper_Torsional_Energy-OPLS-2005>
5.67358207702637

> <r_mmod_Van_der_Waal_Energy-OPLS-2005>
168.308532714844

> <r_mmod_Electrostatic_Energy-OPLS-2005>
-483.558746337891

> <r_mmod_Solvation_Energy-OPLS-2005>
-189.253219604492

> <b_mmod_Minimization_Converged-OPLS-2005>
0

> <r_mmod_RMS_Derivative-OPLS-2005>
0.871323227882385

$$$$
69
                    3D
 Structure written by MMmdl.
160168  0  0  1  0            999 V2000
  -30.6325  -14.6855   20.4649 C   0  0  0  0  0  0
  -30.4394  -12.4098   19.4765 C   0  0  0  0  0  0
  -29.5248  -12.4771   18.2337 C   0  0  0  0  0  0
  -28.0415  -12.3347   18.6299 C   0  0  0  0  0  0
  -27.6515  -13.2222   19.8445 C   0  0  2  0  0  0
  -28.6904  -13.1290   20.9862 C   0  0  0  0  0  0
  -25.2610  -13.8184   20.5660 C   0  0  0  0  0  0
  -24.1855  -13.0453   20.9166 C   0  0  0  0  0  0
  -24.6408  -11.6916   20.8676 C   0  0  0  0  0  0
  -23.9039  -10.4306   21.0369 C   0  0  0  0  0  0
  -24.3599   -9.4251   21.9170 C   0  0  0  0  0  0
  -23.6299   -8.2273   22.0750 C   0  0  0  0  0  0
  -22.4288   -8.0279   21.3526 C   0  0  0  0  0  0
  -21.9903   -9.0249   20.4634 C   0  0  0  0  0  0
  -22.7211  -10.2150   20.3037 C   0  0  0  0  0  0
  -21.6870   -6.0733   22.5268 C   0  0  0  0  0  0
  -21.4021   -6.5631   23.8213 C   0  0  0  0  0  0
  -21.3655   -5.6787   24.9161 C   0  0  0  0  0  0
  -21.6056   -4.3038   24.7217 C   0  0  0  0  0  0
  -21.8810   -3.8140   23.4329 C   0  0  0  0  0  0
  -21.9211   -4.6954   22.3397 C   0  0  0  0  0  0
  -22.7881  -13.5254   21.1821 C   0  0  0  0  0  0
  -22.1678   -4.2147   21.0962 F   0  0  0  0  0  0
  -21.5634   -3.4522   25.7721 F   0  0  0  0  0  0
  -30.0041  -13.4634   20.4230 N   0  0  0  0  0  0
  -26.2980  -12.9365   20.3175 N   0  0  0  0  0  0
  -25.9321  -11.6510   20.5620 N   0  0  0  0  0  0
  -22.0472  -12.8286   22.0342 N   0  0  0  0  0  0
  -25.4358  -15.1928   20.4108 N   0  0  0  0  0  0
  -31.8000  -14.7977   20.0852 O   0  0  0  0  0  0
  -21.6651   -6.8877   21.4232 O   0  0  0  0  0  0
  -22.3569  -14.5546   20.6618 O   0  0  0  0  0  0
  -24.6300  -31.8549   23.2017 C   0  0  0  0  0  0
  -25.9127  -32.4755   23.8340 C   0  0  1  0  0  0
  -27.2217  -27.2872   20.1181 C   0  0  0  0  0  0
  -25.5928  -33.8546   24.2258 N   0  0  0  0  0  0
  -23.4268  -30.4847   21.5382 C   0  0  2  0  0  0
  -24.8755  -28.9403   20.1048 C   0  0  0  0  0  0
  -22.7499  -29.4622   22.4833 C   0  0  0  0  0  0
  -18.0285  -28.1454   22.8489 C   0  0  0  0  0  0
  -24.1483  -36.7256   23.2630 C   0  0  0  0  0  0
  -25.9740  -30.7759   21.3798 C   0  0  0  0  0  0
  -26.0468  -29.4007   20.7238 C   0  0  0  0  0  0
  -27.2206  -28.5847   20.7261 C   0  0  0  0  0  0
  -26.0322  -26.9069   19.4474 C   0  0  0  0  0  0
  -24.8713  -27.6984   19.4594 C   0  0  0  0  0  0
  -23.6470  -29.8252   20.1505 C   0  0  0  0  0  0
  -25.4106  -36.3018   24.0305 C   0  0  1  0  0  0
  -20.5911  -28.3722   23.1269 C   0  0  2  0  0  0
  -20.6804  -26.9432   22.5408 C   0  0  0  0  0  0
  -19.5762  -26.6426   21.5223 C   0  0  0  0  0  0
  -18.1934  -26.7993   22.1629 C   0  0  0  0  0  0
  -19.1555  -28.8897   23.2892 C   0  0  0  0  0  0
  -18.9474  -30.1525   23.8885 C   0  0  0  0  0  0
  -17.6476  -30.6641   24.0603 C   0  0  0  0  0  0
  -25.9050  -34.9411   23.5068 C   0  0  0  0  0  0
  -16.5359  -29.9142   23.6393 C   0  0  0  0  0  0
  -16.7277  -28.6582   23.0362 C   0  0  0  0  0  0
  -26.4536  -31.6567   25.0707 C   0  0  0  0  0  0
  -25.3784  -31.3750   26.1455 C   0  0  0  0  0  0
  -27.0374  -30.2960   24.6203 C   0  0  0  0  0  0
  -27.6078  -32.4309   25.7500 C   0  0  0  0  0  0
  -27.5567  -37.1782   24.8463 C   0  0  0  0  0  0
  -21.4193  -29.3066   22.3636 N   0  0  0  0  0  0
  -26.4266  -37.3728   23.9427 N   0  0  0  0  0  0
  -24.6946  -31.0592   22.0930 N   0  0  0  0  0  0
  -23.4210  -28.8138   23.2932 O   0  0  0  0  0  0
  -28.3122  -26.3909   20.1953 O   0  0  0  0  0  0
  -26.5621  -34.8868   22.4634 O   0  0  0  0  0  0
  -23.5446  -32.1336   23.7340 O   0  0  0  0  0  0
  -29.1336  -19.6619   20.1460 C   0  0  0  0  0  0
  -30.1922  -21.0328   21.7966 C   0  0  0  0  0  0
  -29.2543  -20.9707   20.7448 C   0  0  0  0  0  0
  -29.8949  -18.5340   20.6357 C   0  0  0  0  0  0
  -26.2163  -20.7366   20.8676 C   0  0  0  0  0  0
  -29.0028  -17.0326   18.7182 C   0  0  0  0  0  0
  -26.9400  -22.0952   20.9525 C   0  0  0  0  0  0
  -28.9217  -23.7280   20.5268 C   0  0  0  0  0  0
  -28.0443  -24.9415   19.9401 C   0  0  0  0  0  0
  -28.3634  -22.2156   20.3202 C   0  0  1  0  0  0
  -29.9734  -17.1193   19.9133 C   0  0  2  0  0  0
  -30.8992  -19.9479   22.2262 N   0  0  0  0  0  0
  -30.7544  -18.7321   21.6672 N   0  0  0  0  0  0
  -29.8592  -15.8072   20.6705 N   0  0  0  0  0  0
  -31.4804  -12.5337   19.1729 H   0  0  0  0  0  0
  -30.3862  -11.4283   19.9521 H   0  0  0  0  0  0
  -29.8022  -11.6862   17.5358 H   0  0  0  0  0  0
  -29.6840  -13.4201   17.7074 H   0  0  0  0  0  0
  -27.8600  -11.2844   18.8638 H   0  0  0  0  0  0
  -27.4045  -12.5657   17.7752 H   0  0  0  0  0  0
  -27.6586  -14.2481   19.4779 H   0  0  0  0  0  0
  -28.7037  -12.1255   21.4157 H   0  0  0  0  0  0
  -28.4265  -13.8083   21.7998 H   0  0  0  0  0  0
  -25.2762   -9.5766   22.4707 H   0  0  0  0  0  0
  -24.0044   -7.4678   22.7471 H   0  0  0  0  0  0
  -21.0850   -8.8737   19.8928 H   0  0  0  0  0  0
  -22.3669  -10.9657   19.6111 H   0  0  0  0  0  0
  -21.1991   -7.6146   23.9706 H   0  0  0  0  0  0
  -21.1493   -6.0508   25.9077 H   0  0  0  0  0  0
  -22.0597   -2.7596   23.2811 H   0  0  0  0  0  0
  -22.4088  -12.0001   22.4830 H   0  0  0  0  0  0
  -21.1043  -13.1282   22.2372 H   0  0  0  0  0  0
  -24.6771  -15.8509   20.5492 H   0  0  0  0  0  0
  -26.2709  -15.6209   20.0291 H   0  0  0  0  0  0
  -26.7199  -32.5413   23.1096 H   0  0  0  0  0  0
  -25.0126  -33.9699   25.0436 H   0  0  0  0  0  0
  -22.7219  -31.3066   21.3953 H   0  0  0  0  0  0
  -23.3716  -35.9616   23.3265 H   0  0  0  0  0  0
  -24.3583  -36.8889   22.2046 H   0  0  0  0  0  0
  -23.7266  -37.6448   23.6693 H   0  0  0  0  0  0
  -26.1205  -31.5331   20.6084 H   0  0  0  0  0  0
  -26.8513  -30.8208   22.0140 H   0  0  0  0  0  0
  -28.1123  -28.9293   21.2339 H   0  0  0  0  0  0
  -25.9646  -25.9763   18.9047 H   0  0  0  0  0  0
  -23.9802  -27.3474   18.9537 H   0  0  0  0  0  0
  -23.7777  -30.6041   19.3987 H   0  0  0  0  0  0
  -22.7675  -29.2594   19.8374 H   0  0  0  0  0  0
  -25.1295  -36.1814   25.0795 H   0  0  0  0  0  0
  -21.0089  -28.3312   24.1363 H   0  0  0  0  0  0
  -20.5756  -26.2311   23.3598 H   0  0  0  0  0  0
  -21.6672  -26.7488   22.1175 H   0  0  0  0  0  0
  -19.6875  -25.6333   21.1258 H   0  0  0  0  0  0
  -19.6719  -27.3261   20.6771 H   0  0  0  0  0  0
  -17.4229  -26.6788   21.4007 H   0  0  0  0  0  0
  -18.0307  -26.0150   22.9044 H   0  0  0  0  0  0
  -19.7920  -30.7413   24.2205 H   0  0  0  0  0  0
  -17.4992  -31.6286   24.5244 H   0  0  0  0  0  0
  -15.5362  -30.3050   23.7702 H   0  0  0  0  0  0
  -15.8679  -28.0927   22.7035 H   0  0  0  0  0  0
  -24.5947  -30.7092   25.7859 H   0  0  0  0  0  0
  -24.9007  -32.2933   26.4858 H   0  0  0  0  0  0
  -25.8119  -30.8977   27.0249 H   0  0  0  0  0  0
  -26.2939  -29.6696   24.1270 H   0  0  0  0  0  0
  -27.4080  -29.7239   25.4724 H   0  0  0  0  0  0
  -27.8827  -30.4208   23.9430 H   0  0  0  0  0  0
  -27.2685  -33.3639   26.2030 H   0  0  0  0  0  0
  -28.3957  -32.6817   25.0384 H   0  0  0  0  0  0
  -28.0697  -31.8457   26.5467 H   0  0  0  0  0  0
  -28.2572  -38.0096   24.7531 H   0  0  0  0  0  0
  -28.1065  -36.2621   24.6259 H   0  0  0  0  0  0
  -27.2308  -37.1409   25.8872 H   0  0  0  0  0  0
  -20.9348  -29.8787   21.6847 H   0  0  0  0  0  0
  -26.0077  -38.2755   24.1483 H   0  0  0  0  0  0
  -28.4579  -19.5353   19.3141 H   0  0  0  0  0  0
  -30.3822  -21.9597   22.3240 H   0  0  0  0  0  0
  -25.2401  -20.7984   21.3525 H   0  0  0  0  0  0
  -26.7619  -19.9409   21.3715 H   0  0  0  0  0  0
  -26.0396  -20.4404   19.8319 H   0  0  0  0  0  0
  -29.1853  -17.8160   17.9832 H   0  0  0  0  0  0
  -27.9661  -17.1073   19.0464 H   0  0  0  0  0  0
  -29.0993  -16.0906   18.1812 H   0  0  0  0  0  0
  -26.9972  -22.3694   22.0068 H   0  0  0  0  0  0
  -26.2649  -22.8177   20.4952 H   0  0  0  0  0  0
  -29.0627  -23.9132   21.5919 H   0  0  0  0  0  0
  -29.9170  -23.7975   20.0856 H   0  0  0  0  0  0
  -27.0426  -24.7556   20.3164 H   0  0  0  0  0  0
  -27.9986  -24.8109   18.8568 H   0  0  0  0  0  0
  -28.2455  -22.0883   19.2434 H   0  0  0  0  0  0
  -30.9729  -17.1231   19.4755 H   0  0  0  0  0  0
  -28.9559  -15.6400   21.0848 H   0  0  0  0  0  0
  1 25  1  0  0  0
  1 30  2  0  0  0
  1 84  1  0  0  0
  2  3  1  0  0  0
  2 25  1  0  0  0
  2 85  1  0  0  0
  2 86  1  0  0  0
  3  4  1  0  0  0
  3 87  1  0  0  0
  3 88  1  0  0  0
  4  5  1  0  0  0
  4 89  1  0  0  0
  4 90  1  0  0  0
  5  6  1  0  0  0
  5 26  1  0  0  0
  5 91  1  0  0  0
  6 25  1  0  0  0
  6 92  1  0  0  0
  6 93  1  0  0  0
  7  8  2  0  0  0
  7 26  1  0  0  0
  7 29  1  0  0  0
  8  9  1  0  0  0
  8 22  1  0  0  0
  9 10  1  0  0  0
  9 27  2  0  0  0
 10 11  2  0  0  0
 10 15  1  0  0  0
 11 12  1  0  0  0
 11 94  1  0  0  0
 12 13  2  0  0  0
 12 95  1  0  0  0
 13 14  1  0  0  0
 13 31  1  0  0  0
 14 15  2  0  0  0
 14 96  1  0  0  0
 15 97  1  0  0  0
 16 17  2  0  0  0
 16 21  1  0  0  0
 16 31  1  0  0  0
 17 18  1  0  0  0
 17 98  1  0  0  0
 18 19  2  0  0  0
 18 99  1  0  0  0
 19 20  1  0  0  0
 19 24  1  0  0  0
 20 21  2  0  0  0
 20100  1  0  0  0
 21 23  1  0  0  0
 22 28  1  0  0  0
 22 32  2  0  0  0
 26 27  1  0  0  0
 28101  1  0  0  0
 28102  1  0  0  0
 29103  1  0  0  0
 29104  1  0  0  0
 33 34  1  0  0  0
 33 66  1  0  0  0
 33 70  2  0  0  0
 34 36  1  0  0  0
 34 59  1  0  0  0
 34105  1  0  0  0
 35 44  2  0  0  0
 35 45  1  0  0  0
 35 68  1  0  0  0
 36 56  1  0  0  0
 36106  1  0  0  0
 37 39  1  0  0  0
 37 47  1  0  0  0
 37 66  1  0  0  0
 37107  1  0  0  0
 38 43  2  0  0  0
 38 46  1  0  0  0
 38 47  1  0  0  0
 39 64  1  0  0  0
 39 67  2  0  0  0
 40 52  1  0  0  0
 40 53  2  0  0  0
 40 58  1  0  0  0
 41108  1  0  0  0
 41109  1  0  0  0
 41110  1  0  0  0
 41 48  1  0  0  0
 42 43  1  0  0  0
 42 66  1  0  0  0
 42111  1  0  0  0
 42112  1  0  0  0
 43 44  1  0  0  0
 44113  1  0  0  0
 45 46  2  0  0  0
 45114  1  0  0  0
 46115  1  0  0  0
 47116  1  0  0  0
 47117  1  0  0  0
 48 56  1  0  0  0
 48 65  1  0  0  0
 48118  1  0  0  0
 49 50  1  0  0  0
 49 53  1  0  0  0
 49 64  1  0  0  0
 49119  1  0  0  0
 50 51  1  0  0  0
 50120  1  0  0  0
 50121  1  0  0  0
 51 52  1  0  0  0
 51122  1  0  0  0
 51123  1  0  0  0
 52124  1  0  0  0
 52125  1  0  0  0
 53 54  1  0  0  0
 54 55  2  0  0  0
 54126  1  0  0  0
 55 57  1  0  0  0
 55127  1  0  0  0
 56 69  2  0  0  0
 57 58  2  0  0  0
 57128  1  0  0  0
 58129  1  0  0  0
 59 60  1  0  0  0
 59 61  1  0  0  0
 59 62  1  0  0  0
 60130  1  0  0  0
 60131  1  0  0  0
 60132  1  0  0  0
 61133  1  0  0  0
 61134  1  0  0  0
 61135  1  0  0  0
 62136  1  0  0  0
 62137  1  0  0  0
 62138  1  0  0  0
 63 65  1  0  0  0
 63139  1  0  0  0
 63140  1  0  0  0
 63141  1  0  0  0
 64142  1  0  0  0
 65143  1  0  0  0
 68 79  1  0  0  0
 71 73  2  0  0  0
 71 74  1  0  0  0
 71144  1  0  0  0
 72 73  1  0  0  0
 72 82  2  0  0  0
 72145  1  0  0  0
 73 80  1  0  0  0
 74 81  1  0  0  0
 74 83  2  0  0  0
 75 77  1  0  0  0
 75146  1  0  0  0
 75147  1  0  0  0
 75148  1  0  0  0
 76149  1  0  0  0
 76150  1  0  0  0
 76151  1  0  0  0
 76 81  1  0  0  0
 77152  1  0  0  0
 77153  1  0  0  0
 77 80  1  0  0  0
 78 79  1  0  0  0
 78 80  1  0  0  0
 78154  1  0  0  0
 78155  1  0  0  0
 79156  1  0  0  0
 79157  1  0  0  0
 80158  1  0  0  0
 81 84  1  0  0  0
 81159  1  0  0  0
 82 83  1  0  0  0
 84160  1  0  0  0
M  ISO  4   1 100  68 101  79 101  84 100
M  END
> <chiral flag>
0

> <version>
0

> <s_m_source_file>
/data/baiqing/PycharmProjects/Reinvent-master-3.2/result/LINK_invent/BTK/process_docking_weight1_custom_sum_contain_oxygen_bond_distance_aromatic_linkinvent_7_9_3/rearranged_h_0075.sdf

> <i_m_source_file_index>
69

> <r_mmod_Potential_Energy-OPLS-2005>
123.478622436523

> <r_mmod_Stretch_Energy-OPLS-2005>
110.127044677734

> <r_mmod_Bend_Energy-OPLS-2005>
159.359649658203

> <r_mmod_Torsional_Energy-OPLS-2005>
221.603057861328

> <r_mmod_Improper_Torsional_Energy-OPLS-2005>
8.9155330657959

> <r_mmod_Van_der_Waal_Energy-OPLS-2005>
147.872589111328

> <r_mmod_Electrostatic_Energy-OPLS-2005>
-353.600616455078

> <r_mmod_Solvation_Energy-OPLS-2005>
-239.420379638672

> <b_mmod_Minimization_Converged-OPLS-2005>
0

> <r_mmod_RMS_Derivative-OPLS-2005>
5.30356884002686

$$$$
70
                    3D
 Structure written by MMmdl.
166174  0  0  1  0            999 V2000
  -30.7056  -14.4814   20.5676 C   0  0  0  0  0  0
  -30.4183  -12.3134   19.4199 C   0  0  0  0  0  0
  -29.4953  -12.5058   18.2007 C   0  0  0  0  0  0
  -28.0171  -12.3601   18.6110 C   0  0  0  0  0  0
  -27.6570  -13.2088   19.8606 C   0  0  2  0  0  0
  -28.6972  -13.0110   20.9858 C   0  0  0  0  0  0
  -25.2572  -13.8169   20.5604 C   0  0  0  0  0  0
  -24.1843  -13.0445   20.9149 C   0  0  0  0  0  0
  -24.6396  -11.6916   20.8703 C   0  0  0  0  0  0
  -23.9067  -10.4306   21.0395 C   0  0  0  0  0  0
  -24.3622   -9.4234   21.9183 C   0  0  0  0  0  0
  -23.6306   -8.2261   22.0757 C   0  0  0  0  0  0
  -22.4286   -8.0288   21.3552 C   0  0  0  0  0  0
  -21.9914   -9.0251   20.4645 C   0  0  0  0  0  0
  -22.7237  -10.2138   20.3049 C   0  0  0  0  0  0
  -21.6852   -6.0750   22.5291 C   0  0  0  0  0  0
  -21.4008   -6.5650   23.8227 C   0  0  0  0  0  0
  -21.3668   -5.6799   24.9192 C   0  0  0  0  0  0
  -21.6056   -4.3058   24.7243 C   0  0  0  0  0  0
  -21.8828   -3.8159   23.4358 C   0  0  0  0  0  0
  -21.9193   -4.6980   22.3418 C   0  0  0  0  0  0
  -22.7870  -13.5243   21.1842 C   0  0  0  0  0  0
  -22.1657   -4.2171   21.0991 F   0  0  0  0  0  0
  -21.5638   -3.4532   25.7745 F   0  0  0  0  0  0
  -30.0274  -13.3093   20.4308 N   0  0  0  0  0  0
  -26.2994  -12.9333   20.3256 N   0  0  0  0  0  0
  -25.9314  -11.6499   20.5706 N   0  0  0  0  0  0
  -22.0505  -12.8230   22.0391 N   0  0  0  0  0  0
  -25.4306  -15.1890   20.4018 N   0  0  0  0  0  0
  -31.8411  -14.6500   20.1167 O   0  0  0  0  0  0
  -21.6648   -6.8879   21.4248 O   0  0  0  0  0  0
  -22.3562  -14.5563   20.6719 O   0  0  0  0  0  0
  -24.6165  -31.8664   23.2094 C   0  0  0  0  0  0
  -25.9051  -32.4815   23.8390 C   0  0  1  0  0  0
  -27.2328  -27.4144   20.0952 C   0  0  0  0  0  0
  -25.5901  -33.8615   24.2319 N   0  0  0  0  0  0
  -23.4051  -30.4904   21.5506 C   0  0  2  0  0  0
  -24.8511  -28.9568   20.1116 C   0  0  0  0  0  0
  -22.7425  -29.4648   22.4984 C   0  0  0  0  0  0
  -18.0277  -28.1372   22.8506 C   0  0  0  0  0  0
  -24.1488  -36.7311   23.2640 C   0  0  0  0  0  0
  -25.9365  -30.8267   21.3653 C   0  0  0  0  0  0
  -26.0129  -29.4607   20.7090 C   0  0  0  0  0  0
  -27.2051  -28.6976   20.6956 C   0  0  0  0  0  0
  -26.0486  -26.9348   19.4850 C   0  0  0  0  0  0
  -24.8651  -27.6948   19.4958 C   0  0  0  0  0  0
  -23.6136  -29.8236   20.1649 C   0  0  0  0  0  0
  -25.4108  -36.3107   24.0337 C   0  0  1  0  0  0
  -20.5876  -28.3658   23.1318 C   0  0  2  0  0  0
  -20.6763  -26.9391   22.5421 C   0  0  0  0  0  0
  -19.5735  -26.6379   21.5222 C   0  0  0  0  0  0
  -18.1918  -26.7918   22.1636 C   0  0  0  0  0  0
  -19.1530  -28.8836   23.2911 C   0  0  0  0  0  0
  -18.9455  -30.1444   23.8912 C   0  0  0  0  0  0
  -17.6450  -30.6575   24.0564 C   0  0  0  0  0  0
  -25.9040  -34.9472   23.5128 C   0  0  0  0  0  0
  -16.5342  -29.9072   23.6328 C   0  0  0  0  0  0
  -16.7262  -28.6495   23.0346 C   0  0  0  0  0  0
  -26.4471  -31.6600   25.0725 C   0  0  0  0  0  0
  -25.3737  -31.3708   26.1476 C   0  0  0  0  0  0
  -27.0298  -30.3040   24.6105 C   0  0  0  0  0  0
  -27.6046  -32.4322   25.7484 C   0  0  0  0  0  0
  -27.5577  -37.1808   24.8463 C   0  0  0  0  0  0
  -21.4154  -29.3023   22.3729 N   0  0  0  0  0  0
  -26.4290  -37.3792   23.9408 N   0  0  0  0  0  0
  -24.6714  -31.0748   22.0999 N   0  0  0  0  0  0
  -23.4196  -28.8183   23.3025 O   0  0  0  0  0  0
  -28.4022  -26.6708   20.1327 O   0  0  0  0  0  0
  -26.5602  -34.8923   22.4688 O   0  0  0  0  0  0
  -23.5355  -32.1415   23.7481 O   0  0  0  0  0  0
  -29.8600  -21.9113   20.5254 C   0  0  0  0  0  0
  -29.7432  -23.0613   19.7134 C   0  0  0  0  0  0
  -30.2125  -20.6854   19.9052 C   0  0  0  0  0  0
  -30.2548  -21.7864   17.8809 C   0  0  0  0  0  0
  -30.4915  -21.7180   16.3871 C   0  0  0  0  0  0
  -32.1988  -19.4636   20.8111 C   0  0  0  0  0  0
  -28.5315  -18.0441   20.2892 C   0  0  0  0  0  0
  -30.5583  -17.5289   18.9251 C   0  0  0  0  0  0
  -29.5911  -24.4847   20.2712 C   0  0  0  0  0  0
  -30.5091  -16.8812   21.3597 C   0  0  0  0  0  0
  -28.3377  -25.2649   19.7974 C   0  0  0  0  0  0
  -30.6596  -19.4298   20.7229 C   0  0  2  0  0  0
  -30.0746  -17.9905   20.3232 C   0  0  0  0  0  0
  -29.9379  -22.9716   18.3853 N   0  0  0  0  0  0
  -30.4181  -20.6671   18.5717 N   0  0  0  0  0  0
  -30.0149  -15.5043   21.1111 N   0  0  0  0  0  0
  -30.2450  -19.6386   21.9767 F   0  0  0  0  0  0
  -31.4635  -12.4053   19.1215 H   0  0  0  0  0  0
  -30.3104  -11.3062   19.8254 H   0  0  0  0  0  0
  -29.7422  -11.7806   17.4250 H   0  0  0  0  0  0
  -29.6640  -13.4923   17.7658 H   0  0  0  0  0  0
  -27.8330  -11.3042   18.8132 H   0  0  0  0  0  0
  -27.3688  -12.6265   17.7752 H   0  0  0  0  0  0
  -27.6943  -14.2530   19.5494 H   0  0  0  0  0  0
  -28.6734  -11.9827   21.3470 H   0  0  0  0  0  0
  -28.4571  -13.6335   21.8480 H   0  0  0  0  0  0
  -25.2779   -9.5721   22.4734 H   0  0  0  0  0  0
  -24.0049   -7.4657   22.7466 H   0  0  0  0  0  0
  -21.0851   -8.8764   19.8944 H   0  0  0  0  0  0
  -22.3694  -10.9675   19.6152 H   0  0  0  0  0  0
  -21.1974   -7.6152   23.9739 H   0  0  0  0  0  0
  -21.1475   -6.0522   25.9101 H   0  0  0  0  0  0
  -22.0585   -2.7619   23.2853 H   0  0  0  0  0  0
  -22.4095  -11.9884   22.4777 H   0  0  0  0  0  0
  -21.1124  -13.1271   22.2587 H   0  0  0  0  0  0
  -24.6653  -15.8455   20.5135 H   0  0  0  0  0  0
  -26.2862  -15.6280   20.0860 H   0  0  0  0  0  0
  -26.7123  -32.5522   23.1155 H   0  0  0  0  0  0
  -25.0046  -33.9769   25.0460 H   0  0  0  0  0  0
  -22.6951  -31.3085   21.4110 H   0  0  0  0  0  0
  -23.3747  -35.9647   23.3309 H   0  0  0  0  0  0
  -24.3583  -36.8918   22.2054 H   0  0  0  0  0  0
  -23.7241  -37.6518   23.6650 H   0  0  0  0  0  0
  -26.0529  -31.5949   20.5995 H   0  0  0  0  0  0
  -26.8247  -30.8782   21.9839 H   0  0  0  0  0  0
  -28.1032  -29.0825   21.1603 H   0  0  0  0  0  0
  -26.0137  -25.9733   18.9944 H   0  0  0  0  0  0
  -23.9721  -27.3039   19.0274 H   0  0  0  0  0  0
  -23.7182  -30.5973   19.4035 H   0  0  0  0  0  0
  -22.7388  -29.2404   19.8719 H   0  0  0  0  0  0
  -25.1287  -36.1969   25.0829 H   0  0  0  0  0  0
  -20.9974  -28.3214   24.1436 H   0  0  0  0  0  0
  -20.5668  -26.2259   23.3607 H   0  0  0  0  0  0
  -21.6630  -26.7423   22.1201 H   0  0  0  0  0  0
  -19.6884  -25.6297   21.1228 H   0  0  0  0  0  0
  -19.6662  -27.3211   20.6771 H   0  0  0  0  0  0
  -17.4188  -26.6688   21.4035 H   0  0  0  0  0  0
  -18.0299  -26.0049   22.9016 H   0  0  0  0  0  0
  -19.7933  -30.7268   24.2275 H   0  0  0  0  0  0
  -17.5000  -31.6257   24.5158 H   0  0  0  0  0  0
  -15.5337  -30.2970   23.7641 H   0  0  0  0  0  0
  -15.8669  -28.0809   22.7037 H   0  0  0  0  0  0
  -24.5896  -30.7072   25.7810 H   0  0  0  0  0  0
  -24.8946  -32.2867   26.4950 H   0  0  0  0  0  0
  -25.8092  -30.8851   27.0220 H   0  0  0  0  0  0
  -26.2840  -29.6809   24.1155 H   0  0  0  0  0  0
  -27.4061  -29.7269   25.4563 H   0  0  0  0  0  0
  -27.8682  -30.4356   23.9260 H   0  0  0  0  0  0
  -27.2661  -33.3607   26.2097 H   0  0  0  0  0  0
  -28.3836  -32.6913   25.0298 H   0  0  0  0  0  0
  -28.0742  -31.8428   26.5371 H   0  0  0  0  0  0
  -28.2603  -38.0099   24.7511 H   0  0  0  0  0  0
  -28.1067  -36.2632   24.6291 H   0  0  0  0  0  0
  -27.2297  -37.1460   25.8867 H   0  0  0  0  0  0
  -20.9314  -29.8755   21.6960 H   0  0  0  0  0  0
  -26.0181  -38.2870   24.1409 H   0  0  0  0  0  0
  -29.7761  -21.9801   21.6021 H   0  0  0  0  0  0
  -30.9662  -22.6308   16.0272 H   0  0  0  0  0  0
  -29.5473  -21.5903   15.8584 H   0  0  0  0  0  0
  -31.1449  -20.8836   16.1315 H   0  0  0  0  0  0
  -32.6541  -19.3176   19.8320 H   0  0  0  0  0  0
  -32.6037  -18.7192   21.4913 H   0  0  0  0  0  0
  -32.5344  -20.4328   21.1821 H   0  0  0  0  0  0
  -28.0988  -17.0855   20.0015 H   0  0  0  0  0  0
  -28.1759  -18.7840   19.5721 H   0  0  0  0  0  0
  -28.1243  -18.3097   21.2651 H   0  0  0  0  0  0
  -30.1239  -16.5700   18.6432 H   0  0  0  0  0  0
  -31.6412  -17.4079   18.8960 H   0  0  0  0  0  0
  -30.2807  -18.2157   18.1300 H   0  0  0  0  0  0
  -30.4833  -25.0399   19.9834 H   0  0  0  0  0  0
  -29.6035  -24.4473   21.3601 H   0  0  0  0  0  0
  -30.1695  -17.1620   22.3578 H   0  0  0  0  0  0
  -31.5953  -16.8361   21.4334 H   0  0  0  0  0  0
  -27.4623  -24.7901   20.2427 H   0  0  0  0  0  0
  -28.2407  -25.1793   18.7143 H   0  0  0  0  0  0
  -29.0784  -15.2921   21.4201 H   0  0  0  0  0  0
  1 25  1  0  0  0
  1 30  2  0  0  0
  1 86  1  0  0  0
  2  3  1  0  0  0
  2 25  1  0  0  0
  2 88  1  0  0  0
  2 89  1  0  0  0
  3  4  1  0  0  0
  3 90  1  0  0  0
  3 91  1  0  0  0
  4  5  1  0  0  0
  4 92  1  0  0  0
  4 93  1  0  0  0
  5  6  1  0  0  0
  5 26  1  0  0  0
  5 94  1  0  0  0
  6 25  1  0  0  0
  6 95  1  0  0  0
  6 96  1  0  0  0
  7  8  2  0  0  0
  7 26  1  0  0  0
  7 29  1  0  0  0
  8  9  1  0  0  0
  8 22  1  0  0  0
  9 10  1  0  0  0
  9 27  2  0  0  0
 10 11  2  0  0  0
 10 15  1  0  0  0
 11 12  1  0  0  0
 11 97  1  0  0  0
 12 13  2  0  0  0
 12 98  1  0  0  0
 13 14  1  0  0  0
 13 31  1  0  0  0
 14 15  2  0  0  0
 14 99  1  0  0  0
 15100  1  0  0  0
 16 17  2  0  0  0
 16 21  1  0  0  0
 16 31  1  0  0  0
 17 18  1  0  0  0
 17101  1  0  0  0
 18 19  2  0  0  0
 18102  1  0  0  0
 19 20  1  0  0  0
 19 24  1  0  0  0
 20 21  2  0  0  0
 20103  1  0  0  0
 21 23  1  0  0  0
 22 28  1  0  0  0
 22 32  2  0  0  0
 26 27  1  0  0  0
 28104  1  0  0  0
 28105  1  0  0  0
 29106  1  0  0  0
 29107  1  0  0  0
 33 34  1  0  0  0
 33 66  1  0  0  0
 33 70  2  0  0  0
 34 36  1  0  0  0
 34 59  1  0  0  0
 34108  1  0  0  0
 35 44  2  0  0  0
 35 45  1  0  0  0
 35 68  1  0  0  0
 36 56  1  0  0  0
 36109  1  0  0  0
 37 39  1  0  0  0
 37 47  1  0  0  0
 37 66  1  0  0  0
 37110  1  0  0  0
 38 43  2  0  0  0
 38 46  1  0  0  0
 38 47  1  0  0  0
 39 64  1  0  0  0
 39 67  2  0  0  0
 40 52  1  0  0  0
 40 53  2  0  0  0
 40 58  1  0  0  0
 41111  1  0  0  0
 41112  1  0  0  0
 41113  1  0  0  0
 41 48  1  0  0  0
 42 43  1  0  0  0
 42 66  1  0  0  0
 42114  1  0  0  0
 42115  1  0  0  0
 43 44  1  0  0  0
 44116  1  0  0  0
 45 46  2  0  0  0
 45117  1  0  0  0
 46118  1  0  0  0
 47119  1  0  0  0
 47120  1  0  0  0
 48 56  1  0  0  0
 48 65  1  0  0  0
 48121  1  0  0  0
 49 50  1  0  0  0
 49 53  1  0  0  0
 49 64  1  0  0  0
 49122  1  0  0  0
 50 51  1  0  0  0
 50123  1  0  0  0
 50124  1  0  0  0
 51 52  1  0  0  0
 51125  1  0  0  0
 51126  1  0  0  0
 52127  1  0  0  0
 52128  1  0  0  0
 53 54  1  0  0  0
 54 55  2  0  0  0
 54129  1  0  0  0
 55 57  1  0  0  0
 55130  1  0  0  0
 56 69  2  0  0  0
 57 58  2  0  0  0
 57131  1  0  0  0
 58132  1  0  0  0
 59 60  1  0  0  0
 59 61  1  0  0  0
 59 62  1  0  0  0
 60133  1  0  0  0
 60134  1  0  0  0
 60135  1  0  0  0
 61136  1  0  0  0
 61137  1  0  0  0
 61138  1  0  0  0
 62139  1  0  0  0
 62140  1  0  0  0
 62141  1  0  0  0
 63 65  1  0  0  0
 63142  1  0  0  0
 63143  1  0  0  0
 63144  1  0  0  0
 64145  1  0  0  0
 65146  1  0  0  0
 68 81  1  0  0  0
 71 72  2  0  0  0
 71 73  1  0  0  0
 71147  1  0  0  0
 72 79  1  0  0  0
 72 84  1  0  0  0
 73 82  1  0  0  0
 73 85  2  0  0  0
 74 75  1  0  0  0
 74 84  2  0  0  0
 74 85  1  0  0  0
 75148  1  0  0  0
 75149  1  0  0  0
 75150  1  0  0  0
 76151  1  0  0  0
 76152  1  0  0  0
 76153  1  0  0  0
 76 82  1  0  0  0
 77154  1  0  0  0
 77155  1  0  0  0
 77156  1  0  0  0
 77 83  1  0  0  0
 78 83  1  0  0  0
 78157  1  0  0  0
 78158  1  0  0  0
 78159  1  0  0  0
 79 81  1  0  0  0
 79160  1  0  0  0
 79161  1  0  0  0
 80 83  1  0  0  0
 80 86  1  0  0  0
 80162  1  0  0  0
 80163  1  0  0  0
 81164  1  0  0  0
 81165  1  0  0  0
 82 83  1  0  0  0
 82 87  1  0  0  0
 86166  1  0  0  0
M  ISO  4   1 100  68 101  81 101  86 100
M  END
> <chiral flag>
0

> <version>
0

> <s_m_source_file>
/data/baiqing/PycharmProjects/Reinvent-master-3.2/result/LINK_invent/BTK/process_docking_weight1_custom_sum_contain_oxygen_bond_distance_aromatic_linkinvent_7_9_3/rearranged_h_0075.sdf

> <i_m_source_file_index>
70

> <r_mmod_Potential_Energy-OPLS-2005>
-419.129180908203

> <r_mmod_Stretch_Energy-OPLS-2005>
51.3046607971191

> <r_mmod_Bend_Energy-OPLS-2005>
117.73316192627

> <r_mmod_Torsional_Energy-OPLS-2005>
199.205978393555

> <r_mmod_Improper_Torsional_Energy-OPLS-2005>
5.18516206741333

> <r_mmod_Van_der_Waal_Energy-OPLS-2005>
168.72038269043

> <r_mmod_Electrostatic_Energy-OPLS-2005>
-761.6474609375

> <r_mmod_Solvation_Energy-OPLS-2005>
-215.40446472168

> <b_mmod_Minimization_Converged-OPLS-2005>
0

> <r_mmod_RMS_Derivative-OPLS-2005>
1.95064389705658

$$$$
71
                    3D
 Structure written by MMmdl.
168176  0  0  1  0            999 V2000
  -30.6844  -14.3971   20.5851 C   0  0  0  0  0  0
  -30.4186  -12.2744   19.3797 C   0  0  0  0  0  0
  -29.4756  -12.5167   18.1827 C   0  0  0  0  0  0
  -27.9950  -12.3869   18.5922 C   0  0  0  0  0  0
  -27.6617  -13.1911   19.8787 C   0  0  2  0  0  0
  -28.7070  -12.8946   20.9820 C   0  0  0  0  0  0
  -25.2579  -13.8152   20.5689 C   0  0  0  0  0  0
  -24.1834  -13.0444   20.9186 C   0  0  0  0  0  0
  -24.6344  -11.6906   20.8726 C   0  0  0  0  0  0
  -23.8997  -10.4296   21.0361 C   0  0  0  0  0  0
  -24.3578   -9.4226   21.9132 C   0  0  0  0  0  0
  -23.6293   -8.2251   22.0738 C   0  0  0  0  0  0
  -22.4260   -8.0271   21.3549 C   0  0  0  0  0  0
  -21.9864   -9.0222   20.4633 C   0  0  0  0  0  0
  -22.7164  -10.2107   20.3020 C   0  0  0  0  0  0
  -21.6878   -6.0721   22.5269 C   0  0  0  0  0  0
  -21.4009   -6.5620   23.8194 C   0  0  0  0  0  0
  -21.3672   -5.6777   24.9168 C   0  0  0  0  0  0
  -21.6058   -4.3044   24.7218 C   0  0  0  0  0  0
  -21.8831   -3.8135   23.4343 C   0  0  0  0  0  0
  -21.9201   -4.6950   22.3395 C   0  0  0  0  0  0
  -22.7849  -13.5237   21.1866 C   0  0  0  0  0  0
  -22.1664   -4.2128   21.0979 F   0  0  0  0  0  0
  -21.5631   -3.4532   25.7737 F   0  0  0  0  0  0
  -30.0391  -13.2132   20.4414 N   0  0  0  0  0  0
  -26.3003  -12.9281   20.3378 N   0  0  0  0  0  0
  -25.9255  -11.6462   20.5774 N   0  0  0  0  0  0
  -22.0506  -12.8224   22.0427 N   0  0  0  0  0  0
  -25.4345  -15.1888   20.4099 N   0  0  0  0  0  0
  -31.7832  -14.6483   20.0836 O   0  0  0  0  0  0
  -21.6666   -6.8852   21.4230 O   0  0  0  0  0  0
  -22.3515  -14.5518   20.6683 O   0  0  0  0  0  0
  -24.6174  -31.8692   23.2168 C   0  0  0  0  0  0
  -25.9075  -32.4818   23.8418 C   0  0  1  0  0  0
  -27.2097  -27.4318   20.0645 C   0  0  0  0  0  0
  -25.5957  -33.8623   24.2333 N   0  0  0  0  0  0
  -23.3977  -30.4962   21.5613 C   0  0  2  0  0  0
  -24.8318  -28.9671   20.1200 C   0  0  0  0  0  0
  -22.7377  -29.4665   22.5060 C   0  0  0  0  0  0
  -18.0252  -28.1376   22.8531 C   0  0  0  0  0  0
  -24.1469  -36.7276   23.2639 C   0  0  0  0  0  0
  -25.9297  -30.8293   21.3654 C   0  0  0  0  0  0
  -26.0000  -29.4672   20.7104 C   0  0  0  0  0  0
  -27.1938  -28.7070   20.6781 C   0  0  0  0  0  0
  -26.0153  -26.9520   19.4835 C   0  0  0  0  0  0
  -24.8318  -27.7055   19.5125 C   0  0  0  0  0  0
  -23.5984  -29.8359   20.1755 C   0  0  0  0  0  0
  -25.4099  -36.3087   24.0328 C   0  0  1  0  0  0
  -20.5843  -28.3637   23.1363 C   0  0  2  0  0  0
  -20.6754  -26.9390   22.5419 C   0  0  0  0  0  0
  -19.5713  -26.6388   21.5237 C   0  0  0  0  0  0
  -18.1895  -26.7924   22.1657 C   0  0  0  0  0  0
  -19.1505  -28.8834   23.2926 C   0  0  0  0  0  0
  -18.9438  -30.1459   23.8904 C   0  0  0  0  0  0
  -17.6437  -30.6593   24.0583 C   0  0  0  0  0  0
  -25.9056  -34.9463   23.5110 C   0  0  0  0  0  0
  -16.5335  -29.9080   23.6361 C   0  0  0  0  0  0
  -16.7242  -28.6504   23.0377 C   0  0  0  0  0  0
  -26.4511  -31.6626   25.0755 C   0  0  0  0  0  0
  -25.3798  -31.3737   26.1524 C   0  0  0  0  0  0
  -27.0344  -30.3079   24.6141 C   0  0  0  0  0  0
  -27.6094  -32.4363   25.7501 C   0  0  0  0  0  0
  -27.5552  -37.1780   24.8462 C   0  0  0  0  0  0
  -21.4111  -29.3036   22.3805 N   0  0  0  0  0  0
  -26.4273  -37.3783   23.9423 N   0  0  0  0  0  0
  -24.6674  -31.0771   22.1077 N   0  0  0  0  0  0
  -23.4156  -28.8171   23.3073 O   0  0  0  0  0  0
  -28.3886  -26.6970   20.0344 O   0  0  0  0  0  0
  -26.5571  -34.8925   22.4636 O   0  0  0  0  0  0
  -23.5377  -32.1457   23.7568 O   0  0  0  0  0  0
  -29.0916  -20.7937   18.4142 C   0  0  0  0  0  0
  -27.6908  -20.0538   16.9257 C   0  0  0  0  0  0
  -29.6056  -19.6609   17.8157 C   0  0  0  0  0  0
  -31.8191  -18.8263   16.9881 C   0  0  0  0  0  0
  -31.5839  -19.4683   19.3712 C   0  0  0  0  0  0
  -27.2071  -22.9941   19.3109 C   0  0  0  0  0  0
  -29.4315  -17.2981   19.7353 C   0  0  0  0  0  0
  -27.9371  -24.2311   18.7380 C   0  0  0  0  0  0
  -30.3969  -17.4003   18.5247 C   0  0  0  0  0  0
  -26.7922  -21.9477   18.2534 C   0  0  0  0  0  0
  -30.0943  -16.7774   21.0284 C   0  0  0  0  0  0
  -28.3768  -25.2536   19.8440 C   0  0  0  0  0  0
  -30.8357  -18.8482   18.1701 C   0  0  0  0  0  0
  -28.7233  -19.2283   16.8238 N   0  0  0  0  0  0
  -27.8245  -20.9951   17.8710 N   0  0  0  0  0  0
  -29.9367  -15.3370   21.1715 N   0  0  0  0  0  0
  -31.4561  -12.4060   19.0677 H   0  0  0  0  0  0
  -30.3377  -11.2480   19.7407 H   0  0  0  0  0  0
  -29.7003  -11.8161   17.3759 H   0  0  0  0  0  0
  -29.6509  -13.5156   17.7779 H   0  0  0  0  0  0
  -27.7774  -11.3292   18.7469 H   0  0  0  0  0  0
  -27.3521  -12.7109   17.7724 H   0  0  0  0  0  0
  -27.7210  -14.2484   19.6203 H   0  0  0  0  0  0
  -28.6777  -11.8332   21.2389 H   0  0  0  0  0  0
  -28.4795  -13.4195   21.9115 H   0  0  0  0  0  0
  -25.2719   -9.5743   22.4704 H   0  0  0  0  0  0
  -24.0035   -7.4655   22.7439 H   0  0  0  0  0  0
  -21.0808   -8.8692   19.8950 H   0  0  0  0  0  0
  -22.3572  -10.9639   19.6147 H   0  0  0  0  0  0
  -21.1976   -7.6121   23.9679 H   0  0  0  0  0  0
  -21.1496   -6.0516   25.9060 H   0  0  0  0  0  0
  -22.0602   -2.7600   23.2850 H   0  0  0  0  0  0
  -22.4135  -11.9895   22.4824 H   0  0  0  0  0  0
  -21.1111  -13.1226   22.2600 H   0  0  0  0  0  0
  -24.6780  -15.8540   20.5287 H   0  0  0  0  0  0
  -26.2923  -15.6236   20.0950 H   0  0  0  0  0  0
  -26.7111  -32.5498   23.1143 H   0  0  0  0  0  0
  -25.0231  -33.9820   25.0561 H   0  0  0  0  0  0
  -22.6910  -31.3181   21.4291 H   0  0  0  0  0  0
  -23.3749  -35.9587   23.3318 H   0  0  0  0  0  0
  -24.3559  -36.8888   22.2048 H   0  0  0  0  0  0
  -23.7184  -37.6476   23.6648 H   0  0  0  0  0  0
  -26.0406  -31.5939   20.5936 H   0  0  0  0  0  0
  -26.8176  -30.8818   21.9837 H   0  0  0  0  0  0
  -28.0977  -29.0904   21.1296 H   0  0  0  0  0  0
  -25.9625  -25.9940   18.9971 H   0  0  0  0  0  0
  -23.9295  -27.3089   19.0683 H   0  0  0  0  0  0
  -23.7019  -30.6124   19.4180 H   0  0  0  0  0  0
  -22.7194  -29.2571   19.8815 H   0  0  0  0  0  0
  -25.1251  -36.1961   25.0816 H   0  0  0  0  0  0
  -20.9925  -28.3187   24.1484 H   0  0  0  0  0  0
  -20.5735  -26.2221   23.3581 H   0  0  0  0  0  0
  -21.6609  -26.7487   22.1163 H   0  0  0  0  0  0
  -19.6873  -25.6303   21.1248 H   0  0  0  0  0  0
  -19.6650  -27.3231   20.6798 H   0  0  0  0  0  0
  -17.4165  -26.6709   21.4057 H   0  0  0  0  0  0
  -18.0302  -26.0034   22.9018 H   0  0  0  0  0  0
  -19.7913  -30.7294   24.2264 H   0  0  0  0  0  0
  -17.4988  -31.6288   24.5149 H   0  0  0  0  0  0
  -15.5337  -30.2981   23.7694 H   0  0  0  0  0  0
  -15.8643  -28.0826   22.7097 H   0  0  0  0  0  0
  -24.5939  -30.7113   25.7880 H   0  0  0  0  0  0
  -24.9029  -32.2901   26.5028 H   0  0  0  0  0  0
  -25.8170  -30.8872   27.0254 H   0  0  0  0  0  0
  -26.2873  -29.6829   24.1245 H   0  0  0  0  0  0
  -27.4167  -29.7353   25.4597 H   0  0  0  0  0  0
  -27.8681  -30.4392   23.9236 H   0  0  0  0  0  0
  -27.2728  -33.3686   26.2049 H   0  0  0  0  0  0
  -28.3921  -32.6907   25.0338 H   0  0  0  0  0  0
  -28.0734  -31.8504   26.5448 H   0  0  0  0  0  0
  -28.2584  -38.0073   24.7562 H   0  0  0  0  0  0
  -28.1038  -36.2612   24.6234 H   0  0  0  0  0  0
  -27.2284  -37.1380   25.8873 H   0  0  0  0  0  0
  -20.9267  -29.8740   21.7010 H   0  0  0  0  0  0
  -26.0154  -38.2849   24.1504 H   0  0  0  0  0  0
  -29.4937  -21.4011   19.2138 H   0  0  0  0  0  0
  -26.7942  -19.9425   16.3291 H   0  0  0  0  0  0
  -32.1317  -19.8375   16.7250 H   0  0  0  0  0  0
  -31.3806  -18.3708   16.1001 H   0  0  0  0  0  0
  -32.7179  -18.2608   17.2405 H   0  0  0  0  0  0
  -31.9266  -20.4798   19.1505 H   0  0  0  0  0  0
  -32.4593  -18.8737   19.6377 H   0  0  0  0  0  0
  -30.9565  -19.5292   20.2595 H   0  0  0  0  0  0
  -26.2932  -23.3350   19.7984 H   0  0  0  0  0  0
  -27.7920  -22.5285   20.1037 H   0  0  0  0  0  0
  -28.5664  -16.6859   19.4681 H   0  0  0  0  0  0
  -28.9984  -18.2755   19.9488 H   0  0  0  0  0  0
  -27.2617  -24.6580   17.9905 H   0  0  0  0  0  0
  -28.8081  -23.8898   18.1733 H   0  0  0  0  0  0
  -29.8982  -16.9644   17.6566 H   0  0  0  0  0  0
  -31.2692  -16.7667   18.6731 H   0  0  0  0  0  0
  -26.4155  -22.4292   17.3484 H   0  0  0  0  0  0
  -25.9619  -21.3643   18.6569 H   0  0  0  0  0  0
  -29.6074  -17.2401   21.8880 H   0  0  0  0  0  0
  -31.1476  -17.0547   21.0775 H   0  0  0  0  0  0
  -27.4718  -25.1427   20.4399 H   0  0  0  0  0  0
  -28.5546  -25.7978   18.9135 H   0  0  0  0  0  0
  -29.0801  -15.0128   21.5967 H   0  0  0  0  0  0
  1 25  1  0  0  0
  1 30  2  0  0  0
  1 86  1  0  0  0
  2  3  1  0  0  0
  2 25  1  0  0  0
  2 87  1  0  0  0
  2 88  1  0  0  0
  3  4  1  0  0  0
  3 89  1  0  0  0
  3 90  1  0  0  0
  4  5  1  0  0  0
  4 91  1  0  0  0
  4 92  1  0  0  0
  5  6  1  0  0  0
  5 26  1  0  0  0
  5 93  1  0  0  0
  6 25  1  0  0  0
  6 94  1  0  0  0
  6 95  1  0  0  0
  7  8  2  0  0  0
  7 26  1  0  0  0
  7 29  1  0  0  0
  8  9  1  0  0  0
  8 22  1  0  0  0
  9 10  1  0  0  0
  9 27  2  0  0  0
 10 11  2  0  0  0
 10 15  1  0  0  0
 11 12  1  0  0  0
 11 96  1  0  0  0
 12 13  2  0  0  0
 12 97  1  0  0  0
 13 14  1  0  0  0
 13 31  1  0  0  0
 14 15  2  0  0  0
 14 98  1  0  0  0
 15 99  1  0  0  0
 16 17  2  0  0  0
 16 21  1  0  0  0
 16 31  1  0  0  0
 17 18  1  0  0  0
 17100  1  0  0  0
 18 19  2  0  0  0
 18101  1  0  0  0
 19 20  1  0  0  0
 19 24  1  0  0  0
 20 21  2  0  0  0
 20102  1  0  0  0
 21 23  1  0  0  0
 22 28  1  0  0  0
 22 32  2  0  0  0
 26 27  1  0  0  0
 28103  1  0  0  0
 28104  1  0  0  0
 29105  1  0  0  0
 29106  1  0  0  0
 33 34  1  0  0  0
 33 66  1  0  0  0
 33 70  2  0  0  0
 34 36  1  0  0  0
 34 59  1  0  0  0
 34107  1  0  0  0
 35 44  2  0  0  0
 35 45  1  0  0  0
 35 68  1  0  0  0
 36 56  1  0  0  0
 36108  1  0  0  0
 37 39  1  0  0  0
 37 47  1  0  0  0
 37 66  1  0  0  0
 37109  1  0  0  0
 38 43  2  0  0  0
 38 46  1  0  0  0
 38 47  1  0  0  0
 39 64  1  0  0  0
 39 67  2  0  0  0
 40 52  1  0  0  0
 40 53  2  0  0  0
 40 58  1  0  0  0
 41110  1  0  0  0
 41111  1  0  0  0
 41112  1  0  0  0
 41 48  1  0  0  0
 42 43  1  0  0  0
 42 66  1  0  0  0
 42113  1  0  0  0
 42114  1  0  0  0
 43 44  1  0  0  0
 44115  1  0  0  0
 45 46  2  0  0  0
 45116  1  0  0  0
 46117  1  0  0  0
 47118  1  0  0  0
 47119  1  0  0  0
 48 56  1  0  0  0
 48 65  1  0  0  0
 48120  1  0  0  0
 49 50  1  0  0  0
 49 53  1  0  0  0
 49 64  1  0  0  0
 49121  1  0  0  0
 50 51  1  0  0  0
 50122  1  0  0  0
 50123  1  0  0  0
 51 52  1  0  0  0
 51124  1  0  0  0
 51125  1  0  0  0
 52126  1  0  0  0
 52127  1  0  0  0
 53 54  1  0  0  0
 54 55  2  0  0  0
 54128  1  0  0  0
 55 57  1  0  0  0
 55129  1  0  0  0
 56 69  2  0  0  0
 57 58  2  0  0  0
 57130  1  0  0  0
 58131  1  0  0  0
 59 60  1  0  0  0
 59 61  1  0  0  0
 59 62  1  0  0  0
 60132  1  0  0  0
 60133  1  0  0  0
 60134  1  0  0  0
 61135  1  0  0  0
 61136  1  0  0  0
 61137  1  0  0  0
 62138  1  0  0  0
 62139  1  0  0  0
 62140  1  0  0  0
 63 65  1  0  0  0
 63141  1  0  0  0
 63142  1  0  0  0
 63143  1  0  0  0
 64144  1  0  0  0
 65145  1  0  0  0
 68 82  1  0  0  0
 71 73  2  0  0  0
 71 85  1  0  0  0
 71146  1  0  0  0
 72 84  2  0  0  0
 72 85  1  0  0  0
 72147  1  0  0  0
 73 83  1  0  0  0
 73 84  1  0  0  0
 74148  1  0  0  0
 74149  1  0  0  0
 74150  1  0  0  0
 74 83  1  0  0  0
 75 83  1  0  0  0
 75151  1  0  0  0
 75152  1  0  0  0
 75153  1  0  0  0
 76 78  1  0  0  0
 76 80  1  0  0  0
 76154  1  0  0  0
 76155  1  0  0  0
 77 79  1  0  0  0
 77 81  1  0  0  0
 77156  1  0  0  0
 77157  1  0  0  0
 78 82  1  0  0  0
 78158  1  0  0  0
 78159  1  0  0  0
 79 83  1  0  0  0
 79160  1  0  0  0
 79161  1  0  0  0
 80 85  1  0  0  0
 80162  1  0  0  0
 80163  1  0  0  0
 81 86  1  0  0  0
 81164  1  0  0  0
 81165  1  0  0  0
 82166  1  0  0  0
 82167  1  0  0  0
 86168  1  0  0  0
M  ISO  4   1 100  68 101  82 101  86 100
M  END
> <chiral flag>
0

> <version>
0

> <s_m_source_file>
/data/baiqing/PycharmProjects/Reinvent-master-3.2/result/LINK_invent/BTK/process_docking_weight1_custom_sum_contain_oxygen_bond_distance_aromatic_linkinvent_7_9_3/rearranged_h_0075.sdf

> <i_m_source_file_index>
71

> <r_mmod_Potential_Energy-OPLS-2005>
149.626174926758

> <r_mmod_Stretch_Energy-OPLS-2005>
38.3572387695312

> <r_mmod_Bend_Energy-OPLS-2005>
345.525329589844

> <r_mmod_Torsional_Energy-OPLS-2005>
232.183959960938

> <r_mmod_Improper_Torsional_Energy-OPLS-2005>
4.96783542633057

> <r_mmod_Van_der_Waal_Energy-OPLS-2005>
154.192398071289

> <r_mmod_Electrostatic_Energy-OPLS-2005>
-418.657836914062

> <r_mmod_Solvation_Energy-OPLS-2005>
-218.034698486328

> <b_mmod_Minimization_Converged-OPLS-2005>
0

> <r_mmod_RMS_Derivative-OPLS-2005>
4.43837833404541

$$$$
72
                    3D
 Structure written by MMmdl.
150158  0  0  1  0            999 V2000
  -30.5357  -15.1225   20.3639 C   0  0  0  0  0  0
  -30.4229  -12.6993   19.5371 C   0  0  0  0  0  0
  -29.5293  -12.5443   18.2846 C   0  0  0  0  0  0
  -28.0688  -12.3036   18.7011 C   0  0  0  0  0  0
  -27.6113  -13.2750   19.8194 C   0  0  2  0  0  0
  -28.6411  -13.4239   20.9562 C   0  0  0  0  0  0
  -25.2400  -13.8270   20.5761 C   0  0  0  0  0  0
  -24.1734  -13.0455   20.9229 C   0  0  0  0  0  0
  -24.6383  -11.6948   20.8739 C   0  0  0  0  0  0
  -23.9083  -10.4303   21.0396 C   0  0  0  0  0  0
  -24.3634   -9.4216   21.9173 C   0  0  0  0  0  0
  -23.6307   -8.2250   22.0748 C   0  0  0  0  0  0
  -22.4287   -8.0284   21.3543 C   0  0  0  0  0  0
  -21.9923   -9.0257   20.4647 C   0  0  0  0  0  0
  -22.7252  -10.2134   20.3052 C   0  0  0  0  0  0
  -21.6856   -6.0736   22.5278 C   0  0  0  0  0  0
  -21.4021   -6.5638   23.8214 C   0  0  0  0  0  0
  -21.3664   -5.6788   24.9174 C   0  0  0  0  0  0
  -21.6049   -4.3053   24.7223 C   0  0  0  0  0  0
  -21.8817   -3.8145   23.4342 C   0  0  0  0  0  0
  -21.9191   -4.6963   22.3399 C   0  0  0  0  0  0
  -22.7757  -13.5210   21.1890 C   0  0  0  0  0  0
  -22.1659   -4.2151   21.0977 F   0  0  0  0  0  0
  -21.5626   -3.4538   25.7734 F   0  0  0  0  0  0
  -29.9043  -13.8580   20.3467 N   0  0  0  0  0  0
  -26.2812  -12.9541   20.3206 N   0  0  0  0  0  0
  -25.9319  -11.6644   20.5700 N   0  0  0  0  0  0
  -22.0418  -12.8194   22.0451 N   0  0  0  0  0  0
  -25.4102  -15.2007   20.4309 N   0  0  0  0  0  0
  -31.7549  -15.0386   20.1514 O   0  0  0  0  0  0
  -21.6644   -6.8883   21.4244 O   0  0  0  0  0  0
  -22.3435  -14.5511   20.6731 O   0  0  0  0  0  0
  -24.6547  -31.8329   23.1785 C   0  0  0  0  0  0
  -25.9270  -32.4637   23.8215 C   0  0  1  0  0  0
  -27.2092  -27.0185   20.1706 C   0  0  0  0  0  0
  -25.5974  -33.8445   24.2128 N   0  0  0  0  0  0
  -23.4644  -30.4499   21.5247 C   0  0  2  0  0  0
  -24.9146  -28.8557   20.1103 C   0  0  0  0  0  0
  -22.7626  -29.4500   22.4802 C   0  0  0  0  0  0
  -18.0324  -28.1400   22.8478 C   0  0  0  0  0  0
  -24.1495  -36.7226   23.2644 C   0  0  0  0  0  0
  -26.0288  -30.6701   21.3944 C   0  0  0  0  0  0
  -26.0969  -29.2697   20.7367 C   0  0  0  0  0  0
  -27.2441  -28.3709   20.7427 C   0  0  0  0  0  0
  -25.9992  -26.7351   19.4998 C   0  0  0  0  0  0
  -24.8862  -27.6069   19.4722 C   0  0  0  0  0  0
  -23.6981  -29.7730   20.1474 C   0  0  0  0  0  0
  -25.4133  -36.2996   24.0304 C   0  0  1  0  0  0
  -20.5942  -28.3742   23.1204 C   0  0  2  0  0  0
  -20.6804  -26.9433   22.5400 C   0  0  0  0  0  0
  -19.5775  -26.6382   21.5213 C   0  0  0  0  0  0
  -18.1958  -26.7938   22.1625 C   0  0  0  0  0  0
  -19.1581  -28.8891   23.2835 C   0  0  0  0  0  0
  -18.9490  -30.1482   23.8872 C   0  0  0  0  0  0
  -17.6484  -30.6597   24.0557 C   0  0  0  0  0  0
  -25.9090  -34.9376   23.5032 C   0  0  0  0  0  0
  -16.5376  -29.9087   23.6338 C   0  0  0  0  0  0
  -16.7306  -28.6499   23.0372 C   0  0  0  0  0  0
  -26.4548  -31.6549   25.0706 C   0  0  0  0  0  0
  -25.3696  -31.3771   26.1376 C   0  0  0  0  0  0
  -27.0431  -30.2931   24.6373 C   0  0  0  0  0  0
  -27.6057  -32.4342   25.7502 C   0  0  0  0  0  0
  -27.5575  -37.1772   24.8467 C   0  0  0  0  0  0
  -21.4305  -29.3049   22.3556 N   0  0  0  0  0  0
  -26.4288  -37.3721   23.9403 N   0  0  0  0  0  0
  -24.7364  -31.0089   22.0863 N   0  0  0  0  0  0
  -23.4218  -28.8060   23.3000 O   0  0  0  0  0  0
  -28.2231  -25.9575   20.2467 O   0  0  0  0  0  0
  -26.5688  -34.8893   22.4621 O   0  0  0  0  0  0
  -23.5640  -32.1251   23.6939 O   0  0  0  0  0  0
  -30.7530  -17.8176   20.0025 C   0  0  0  0  0  0
  -28.2813  -18.5008   20.7111 C   0  0  0  0  0  0
  -30.3455  -19.2305   19.9617 C   0  0  0  0  0  0
  -29.0332  -19.6947   20.3307 C   0  0  0  0  0  0
  -29.9349  -16.6784   20.3842 C   0  0  0  0  0  0
  -31.3448  -20.2601   19.4734 C   0  0  0  0  0  0
  -28.3377  -21.2596   20.1885 C   0  0  0  0  0  0
  -28.8627  -22.9198   20.3468 C   0  0  0  0  0  0
  -27.9149  -24.3821   20.1175 C   0  0  0  0  0  0
  -28.6737  -17.1381   20.7406 N   0  0  0  0  0  0
  -31.4580  -12.8370   19.2230 H   0  0  0  0  0  0
  -30.4210  -11.7828   20.1299 H   0  0  0  0  0  0
  -29.8851  -11.7197   17.6654 H   0  0  0  0  0  0
  -29.5963  -13.4435   17.6699 H   0  0  0  0  0  0
  -27.9987  -11.2755   19.0590 H   0  0  0  0  0  0
  -27.4064  -12.3716   17.8373 H   0  0  0  0  0  0
  -27.5394  -14.2510   19.3374 H   0  0  0  0  0  0
  -28.7617  -12.4925   21.5118 H   0  0  0  0  0  0
  -28.3044  -14.1739   21.6738 H   0  0  0  0  0  0
  -25.2774   -9.5699   22.4749 H   0  0  0  0  0  0
  -24.0015   -7.4648   22.7473 H   0  0  0  0  0  0
  -21.0846   -8.8784   19.8960 H   0  0  0  0  0  0
  -22.3705  -10.9674   19.6167 H   0  0  0  0  0  0
  -21.2021   -7.6148   23.9722 H   0  0  0  0  0  0
  -21.1488   -6.0514   25.9076 H   0  0  0  0  0  0
  -22.0593   -2.7608   23.2837 H   0  0  0  0  0  0
  -22.4048  -11.9870   22.4850 H   0  0  0  0  0  0
  -21.1033  -13.1210   22.2662 H   0  0  0  0  0  0
  -24.6573  -15.8618   20.5886 H   0  0  0  0  0  0
  -26.2945  -15.6501   20.2206 H   0  0  0  0  0  0
  -26.7335  -32.5203   23.0932 H   0  0  0  0  0  0
  -25.0090  -33.9534   25.0255 H   0  0  0  0  0  0
  -22.7736  -31.2800   21.3619 H   0  0  0  0  0  0
  -23.3765  -35.9549   23.3290 H   0  0  0  0  0  0
  -24.3576  -36.8882   22.2062 H   0  0  0  0  0  0
  -23.7244  -37.6411   23.6700 H   0  0  0  0  0  0
  -26.2028  -31.4190   20.6204 H   0  0  0  0  0  0
  -26.8916  -30.7209   22.0468 H   0  0  0  0  0  0
  -28.1432  -28.6852   21.2539 H   0  0  0  0  0  0
  -25.8779  -25.7808   19.0101 H   0  0  0  0  0  0
  -23.9855  -27.2874   18.9661 H   0  0  0  0  0  0
  -23.8471  -30.5439   19.3901 H   0  0  0  0  0  0
  -22.8093  -29.2226   19.8332 H   0  0  0  0  0  0
  -25.1330  -36.1807   25.0796 H   0  0  0  0  0  0
  -21.0045  -28.3343   24.1320 H   0  0  0  0  0  0
  -20.5693  -26.2357   23.3630 H   0  0  0  0  0  0
  -21.6667  -26.7424   22.1198 H   0  0  0  0  0  0
  -19.6930  -25.6282   21.1271 H   0  0  0  0  0  0
  -19.6709  -27.3167   20.6721 H   0  0  0  0  0  0
  -17.4226  -26.6689   21.4031 H   0  0  0  0  0  0
  -18.0355  -26.0084   22.9025 H   0  0  0  0  0  0
  -19.7964  -30.7306   24.2231 H   0  0  0  0  0  0
  -17.5035  -31.6275   24.5167 H   0  0  0  0  0  0
  -15.5375  -30.2982   23.7668 H   0  0  0  0  0  0
  -15.8707  -28.0802   22.7112 H   0  0  0  0  0  0
  -24.5889  -30.7109   25.7681 H   0  0  0  0  0  0
  -24.8869  -32.2963   26.4707 H   0  0  0  0  0  0
  -25.7948  -30.8999   27.0215 H   0  0  0  0  0  0
  -26.3073  -29.6626   24.1369 H   0  0  0  0  0  0
  -27.3987  -29.7272   25.4993 H   0  0  0  0  0  0
  -27.9009  -30.4139   23.9754 H   0  0  0  0  0  0
  -27.2636  -33.3674   26.1990 H   0  0  0  0  0  0
  -28.3915  -32.6854   25.0363 H   0  0  0  0  0  0
  -28.0673  -31.8526   26.5493 H   0  0  0  0  0  0
  -28.2583  -38.0077   24.7514 H   0  0  0  0  0  0
  -28.1085  -36.2607   24.6302 H   0  0  0  0  0  0
  -27.2291  -37.1425   25.8868 H   0  0  0  0  0  0
  -20.9533  -29.8740   21.6704 H   0  0  0  0  0  0
  -26.0147  -38.2787   24.1403 H   0  0  0  0  0  0
  -31.7657  -17.5867   19.6994 H   0  0  0  0  0  0
  -27.2475  -18.6424   20.9903 H   0  0  0  0  0  0
  -32.2469  -19.7938   19.0777 H   0  0  0  0  0  0
  -31.6355  -20.9223   20.2893 H   0  0  0  0  0  0
  -30.9114  -20.8694   18.6798 H   0  0  0  0  0  0
  -27.4770  -21.1984   20.8558 H   0  0  0  0  0  0
  -27.8882  -21.2248   19.1956 H   0  0  0  0  0  0
  -29.7185  -23.0246   19.6797 H   0  0  0  0  0  0
  -29.2881  -22.9991   21.3471 H   0  0  0  0  0  0
  -27.0440  -24.2419   20.7584 H   0  0  0  0  0  0
  -27.5241  -24.2778   19.1061 H   0  0  0  0  0  0
  1 25  1  0  0  0
  1 30  2  0  0  0
  1 75  1  0  0  0
  2  3  1  0  0  0
  2 25  1  0  0  0
  2 81  1  0  0  0
  2 82  1  0  0  0
  3  4  1  0  0  0
  3 83  1  0  0  0
  3 84  1  0  0  0
  4  5  1  0  0  0
  4 85  1  0  0  0
  4 86  1  0  0  0
  5  6  1  0  0  0
  5 26  1  0  0  0
  5 87  1  0  0  0
  6 25  1  0  0  0
  6 88  1  0  0  0
  6 89  1  0  0  0
  7  8  2  0  0  0
  7 26  1  0  0  0
  7 29  1  0  0  0
  8  9  1  0  0  0
  8 22  1  0  0  0
  9 10  1  0  0  0
  9 27  2  0  0  0
 10 11  2  0  0  0
 10 15  1  0  0  0
 11 12  1  0  0  0
 11 90  1  0  0  0
 12 13  2  0  0  0
 12 91  1  0  0  0
 13 14  1  0  0  0
 13 31  1  0  0  0
 14 15  2  0  0  0
 14 92  1  0  0  0
 15 93  1  0  0  0
 16 17  2  0  0  0
 16 21  1  0  0  0
 16 31  1  0  0  0
 17 18  1  0  0  0
 17 94  1  0  0  0
 18 19  2  0  0  0
 18 95  1  0  0  0
 19 20  1  0  0  0
 19 24  1  0  0  0
 20 21  2  0  0  0
 20 96  1  0  0  0
 21 23  1  0  0  0
 22 28  1  0  0  0
 22 32  2  0  0  0
 26 27  1  0  0  0
 28 97  1  0  0  0
 28 98  1  0  0  0
 29 99  1  0  0  0
 29100  1  0  0  0
 33 34  1  0  0  0
 33 66  1  0  0  0
 33 70  2  0  0  0
 34 36  1  0  0  0
 34 59  1  0  0  0
 34101  1  0  0  0
 35 44  2  0  0  0
 35 45  1  0  0  0
 35 68  1  0  0  0
 36 56  1  0  0  0
 36102  1  0  0  0
 37 39  1  0  0  0
 37 47  1  0  0  0
 37 66  1  0  0  0
 37103  1  0  0  0
 38 43  2  0  0  0
 38 46  1  0  0  0
 38 47  1  0  0  0
 39 64  1  0  0  0
 39 67  2  0  0  0
 40 52  1  0  0  0
 40 53  2  0  0  0
 40 58  1  0  0  0
 41104  1  0  0  0
 41105  1  0  0  0
 41106  1  0  0  0
 41 48  1  0  0  0
 42 43  1  0  0  0
 42 66  1  0  0  0
 42107  1  0  0  0
 42108  1  0  0  0
 43 44  1  0  0  0
 44109  1  0  0  0
 45 46  2  0  0  0
 45110  1  0  0  0
 46111  1  0  0  0
 47112  1  0  0  0
 47113  1  0  0  0
 48 56  1  0  0  0
 48 65  1  0  0  0
 48114  1  0  0  0
 49 50  1  0  0  0
 49 53  1  0  0  0
 49 64  1  0  0  0
 49115  1  0  0  0
 50 51  1  0  0  0
 50116  1  0  0  0
 50117  1  0  0  0
 51 52  1  0  0  0
 51118  1  0  0  0
 51119  1  0  0  0
 52120  1  0  0  0
 52121  1  0  0  0
 53 54  1  0  0  0
 54 55  2  0  0  0
 54122  1  0  0  0
 55 57  1  0  0  0
 55123  1  0  0  0
 56 69  2  0  0  0
 57 58  2  0  0  0
 57124  1  0  0  0
 58125  1  0  0  0
 59 60  1  0  0  0
 59 61  1  0  0  0
 59 62  1  0  0  0
 60126  1  0  0  0
 60127  1  0  0  0
 60128  1  0  0  0
 61129  1  0  0  0
 61130  1  0  0  0
 61131  1  0  0  0
 62132  1  0  0  0
 62133  1  0  0  0
 62134  1  0  0  0
 63 65  1  0  0  0
 63135  1  0  0  0
 63136  1  0  0  0
 63137  1  0  0  0
 64138  1  0  0  0
 65139  1  0  0  0
 68 79  1  0  0  0
 71 73  2  0  0  0
 71 75  1  0  0  0
 71140  1  0  0  0
 72 74  2  0  0  0
 72 80  1  0  0  0
 72141  1  0  0  0
 73 74  1  0  0  0
 73 76  1  0  0  0
 74 77  1  0  0  0
 75 80  2  0  0  0
 76142  1  0  0  0
 76143  1  0  0  0
 76144  1  0  0  0
 77 78  1  0  0  0
 77145  1  0  0  0
 77146  1  0  0  0
 78 79  1  0  0  0
 78147  1  0  0  0
 78148  1  0  0  0
 79149  1  0  0  0
 79150  1  0  0  0
M  ISO  4   1 100  68 101  75 100  79 101
M  END
> <chiral flag>
0

> <version>
0

> <s_m_source_file>
/data/baiqing/PycharmProjects/Reinvent-master-3.2/result/LINK_invent/BTK/process_docking_weight1_custom_sum_contain_oxygen_bond_distance_aromatic_linkinvent_7_9_3/rearranged_h_0075.sdf

> <i_m_source_file_index>
72

> <r_mmod_Potential_Energy-OPLS-2005>
888.941528320312

> <r_mmod_Stretch_Energy-OPLS-2005>
407.850250244141

> <r_mmod_Bend_Energy-OPLS-2005>
384.305999755859

> <r_mmod_Torsional_Energy-OPLS-2005>
198.806289672852

> <r_mmod_Improper_Torsional_Energy-OPLS-2005>
5.24685764312744

> <r_mmod_Van_der_Waal_Energy-OPLS-2005>
131.936141967773

> <r_mmod_Electrostatic_Energy-OPLS-2005>
-369.482604980469

> <r_mmod_Solvation_Energy-OPLS-2005>
-194.012435913086

> <b_mmod_Minimization_Converged-OPLS-2005>
0

> <r_mmod_RMS_Derivative-OPLS-2005>
1.06711411476135

$$$$
73
                    3D
 Structure written by MMmdl.
158166  0  0  1  0            999 V2000
  -30.6597  -14.6188   20.4341 C   0  0  0  0  0  0
  -30.4351  -12.3499   19.4830 C   0  0  0  0  0  0
  -29.5204  -12.4395   18.2424 C   0  0  0  0  0  0
  -28.0314  -12.3324   18.6370 C   0  0  0  0  0  0
  -27.6508  -13.2122   19.8583 C   0  0  2  0  0  0
  -28.6971  -13.1093   20.9888 C   0  0  0  0  0  0
  -25.2588  -13.8161   20.5688 C   0  0  0  0  0  0
  -24.1849  -13.0436   20.9190 C   0  0  0  0  0  0
  -24.6408  -11.6911   20.8748 C   0  0  0  0  0  0
  -23.9051  -10.4313   21.0433 C   0  0  0  0  0  0
  -24.3609   -9.4227   21.9210 C   0  0  0  0  0  0
  -23.6293   -8.2258   22.0760 C   0  0  0  0  0  0
  -22.4277   -8.0296   21.3550 C   0  0  0  0  0  0
  -21.9901   -9.0267   20.4658 C   0  0  0  0  0  0
  -22.7219  -10.2158   20.3079 C   0  0  0  0  0  0
  -21.6872   -6.0741   22.5271 C   0  0  0  0  0  0
  -21.4033   -6.5643   23.8207 C   0  0  0  0  0  0
  -21.3666   -5.6789   24.9165 C   0  0  0  0  0  0
  -21.6043   -4.3051   24.7203 C   0  0  0  0  0  0
  -21.8825   -3.8147   23.4322 C   0  0  0  0  0  0
  -21.9208   -4.6968   22.3383 C   0  0  0  0  0  0
  -22.7875  -13.5259   21.1815 C   0  0  0  0  0  0
  -22.1673   -4.2163   21.0953 F   0  0  0  0  0  0
  -21.5623   -3.4526   25.7715 F   0  0  0  0  0  0
  -30.0196  -13.4076   20.4248 N   0  0  0  0  0  0
  -26.2996  -12.9315   20.3323 N   0  0  0  0  0  0
  -25.9330  -11.6487   20.5790 N   0  0  0  0  0  0
  -22.0495  -12.8282   22.0387 N   0  0  0  0  0  0
  -25.4295  -15.1877   20.4080 N   0  0  0  0  0  0
  -31.8677  -14.6799   20.1897 O   0  0  0  0  0  0
  -21.6649   -6.8887   21.4238 O   0  0  0  0  0  0
  -22.3568  -14.5552   20.6638 O   0  0  0  0  0  0
  -24.6216  -31.8654   23.2087 C   0  0  0  0  0  0
  -25.9085  -32.4809   23.8394 C   0  0  1  0  0  0
  -27.2205  -27.3590   20.1236 C   0  0  0  0  0  0
  -25.5914  -33.8605   24.2324 N   0  0  0  0  0  0
  -23.4134  -30.4947   21.5492 C   0  0  2  0  0  0
  -24.8594  -28.9631   20.1092 C   0  0  0  0  0  0
  -22.7452  -29.4660   22.4934 C   0  0  0  0  0  0
  -18.0285  -28.1378   22.8502 C   0  0  0  0  0  0
  -24.1484  -36.7312   23.2635 C   0  0  0  0  0  0
  -25.9531  -30.8101   21.3770 C   0  0  0  0  0  0
  -26.0256  -29.4429   20.7183 C   0  0  0  0  0  0
  -27.2074  -28.6503   20.7227 C   0  0  0  0  0  0
  -26.0351  -26.9378   19.4697 C   0  0  0  0  0  0
  -24.8641  -27.7129   19.4768 C   0  0  0  0  0  0
  -23.6273  -29.8394   20.1608 C   0  0  0  0  0  0
  -25.4107  -36.3108   24.0339 C   0  0  1  0  0  0
  -20.5892  -28.3681   23.1293 C   0  0  2  0  0  0
  -20.6790  -26.9407   22.5417 C   0  0  0  0  0  0
  -19.5751  -26.6385   21.5236 C   0  0  0  0  0  0
  -18.1926  -26.7930   22.1642 C   0  0  0  0  0  0
  -19.1537  -28.8848   23.2904 C   0  0  0  0  0  0
  -18.9460  -30.1457   23.8912 C   0  0  0  0  0  0
  -17.6456  -30.6583   24.0567 C   0  0  0  0  0  0
  -25.9042  -34.9472   23.5136 C   0  0  0  0  0  0
  -16.5352  -29.9080   23.6319 C   0  0  0  0  0  0
  -16.7275  -28.6499   23.0346 C   0  0  0  0  0  0
  -26.4487  -31.6591   25.0736 C   0  0  0  0  0  0
  -25.3735  -31.3721   26.1473 C   0  0  0  0  0  0
  -27.0318  -30.3011   24.6161 C   0  0  0  0  0  0
  -27.6044  -32.4321   25.7512 C   0  0  0  0  0  0
  -27.5585  -37.1814   24.8455 C   0  0  0  0  0  0
  -21.4170  -29.3041   22.3679 N   0  0  0  0  0  0
  -26.4292  -37.3800   23.9413 N   0  0  0  0  0  0
  -24.6816  -31.0715   22.1023 N   0  0  0  0  0  0
  -23.4199  -28.8190   23.2990 O   0  0  0  0  0  0
  -28.3389  -26.5188   20.2120 O   0  0  0  0  0  0
  -26.5603  -34.8936   22.4697 O   0  0  0  0  0  0
  -23.5395  -32.1441   23.7444 O   0  0  0  0  0  0
  -28.9801  -19.2634   21.6026 C   0  0  0  0  0  0
  -30.0958  -18.6327   20.9897 C   0  0  0  0  0  0
  -30.4978  -20.6299   19.8342 C   0  0  0  0  0  0
  -29.3493  -21.2459   20.4128 C   0  0  0  0  0  0
  -31.3617  -21.3474   18.8139 C   0  0  0  0  0  0
  -30.5110  -17.1571   21.2988 C   0  0  0  0  0  0
  -28.7387  -22.5765   19.8764 C   0  0  0  0  0  0
  -29.0823  -23.9793   20.5042 C   0  0  0  0  0  0
  -28.1104  -25.0921   19.9578 C   0  0  0  0  0  0
  -29.8631  -15.9904   20.4470 C   0  0  1  0  0  0
  -29.6410  -16.4869   18.9898 C   0  0  0  0  0  0
  -28.6121  -20.5501   21.3217 N   0  0  0  0  0  0
  -30.8657  -19.3461   20.1213 N   0  0  0  0  0  0
  -30.7944  -16.7904   18.3929 F   0  0  0  0  0  0
  -29.0124  -15.5986   18.2295 F   0  0  0  0  0  0
  -31.4814  -12.4468   19.1874 H   0  0  0  0  0  0
  -30.3477  -11.3711   19.9556 H   0  0  0  0  0  0
  -29.7684  -11.6437   17.5397 H   0  0  0  0  0  0
  -29.7125  -13.3711   17.7125 H   0  0  0  0  0  0
  -27.8331  -11.2839   18.8629 H   0  0  0  0  0  0
  -27.4017  -12.5850   17.7835 H   0  0  0  0  0  0
  -27.6420  -14.2384   19.5088 H   0  0  0  0  0  0
  -28.6976  -12.1072   21.4209 H   0  0  0  0  0  0
  -28.4550  -13.7909   21.8064 H   0  0  0  0  0  0
  -25.2768   -9.5719   22.4765 H   0  0  0  0  0  0
  -24.0039   -7.4651   22.7459 H   0  0  0  0  0  0
  -21.0841   -8.8765   19.8950 H   0  0  0  0  0  0
  -22.3680  -10.9687   19.6185 H   0  0  0  0  0  0
  -21.2032   -7.6154   23.9702 H   0  0  0  0  0  0
  -21.1486   -6.0523   25.9066 H   0  0  0  0  0  0
  -22.0602   -2.7608   23.2800 H   0  0  0  0  0  0
  -22.4096  -11.9965   22.4821 H   0  0  0  0  0  0
  -21.1111  -13.1329   22.2531 H   0  0  0  0  0  0
  -24.6565  -15.8377   20.5023 H   0  0  0  0  0  0
  -26.2737  -15.6188   20.0522 H   0  0  0  0  0  0
  -26.7158  -32.5499   23.1159 H   0  0  0  0  0  0
  -25.0049  -33.9761   25.0457 H   0  0  0  0  0  0
  -22.7048  -31.3154   21.4105 H   0  0  0  0  0  0
  -23.3751  -35.9638   23.3285 H   0  0  0  0  0  0
  -24.3587  -36.8941   22.2053 H   0  0  0  0  0  0
  -23.7233  -37.6515   23.6651 H   0  0  0  0  0  0
  -26.0831  -31.5773   20.6125 H   0  0  0  0  0  0
  -26.8340  -30.8539   22.0051 H   0  0  0  0  0  0
  -28.0945  -29.0114   21.2241 H   0  0  0  0  0  0
  -25.9752  -25.9920   18.9529 H   0  0  0  0  0  0
  -23.9713  -27.3428   18.9899 H   0  0  0  0  0  0
  -23.7511  -30.6211   19.4109 H   0  0  0  0  0  0
  -22.7475  -29.2736   19.8501 H   0  0  0  0  0  0
  -25.1288  -36.1971   25.0835 H   0  0  0  0  0  0
  -21.0002  -28.3264   24.1413 H   0  0  0  0  0  0
  -20.5730  -26.2292   23.3617 H   0  0  0  0  0  0
  -21.6649  -26.7462   22.1182 H   0  0  0  0  0  0
  -19.6904  -25.6303   21.1245 H   0  0  0  0  0  0
  -19.6683  -27.3219   20.6786 H   0  0  0  0  0  0
  -17.4213  -26.6706   21.4020 H   0  0  0  0  0  0
  -18.0289  -26.0067   22.9030 H   0  0  0  0  0  0
  -19.7943  -30.7265   24.2281 H   0  0  0  0  0  0
  -17.5016  -31.6266   24.5159 H   0  0  0  0  0  0
  -15.5355  -30.2983   23.7633 H   0  0  0  0  0  0
  -15.8686  -28.0820   22.7041 H   0  0  0  0  0  0
  -24.5875  -30.7119   25.7805 H   0  0  0  0  0  0
  -24.8977  -32.2893   26.4941 H   0  0  0  0  0  0
  -25.8073  -30.8856   27.0214 H   0  0  0  0  0  0
  -26.2894  -29.6772   24.1174 H   0  0  0  0  0  0
  -27.4008  -29.7252   25.4656 H   0  0  0  0  0  0
  -27.8767  -30.4296   23.9393 H   0  0  0  0  0  0
  -27.2619  -33.3561   26.2176 H   0  0  0  0  0  0
  -28.3805  -32.6978   25.0325 H   0  0  0  0  0  0
  -28.0766  -31.8402   26.5359 H   0  0  0  0  0  0
  -28.2595  -38.0118   24.7514 H   0  0  0  0  0  0
  -28.1090  -36.2653   24.6260 H   0  0  0  0  0  0
  -27.2300  -37.1445   25.8855 H   0  0  0  0  0  0
  -20.9325  -29.8768   21.6903 H   0  0  0  0  0  0
  -26.0172  -38.2874   24.1430 H   0  0  0  0  0  0
  -28.3651  -18.7247   22.3097 H   0  0  0  0  0  0
  -31.6024  -22.3558   19.1531 H   0  0  0  0  0  0
  -30.8443  -21.4204   17.8578 H   0  0  0  0  0  0
  -32.3024  -20.8219   18.6462 H   0  0  0  0  0  0
  -30.3137  -16.9708   22.3548 H   0  0  0  0  0  0
  -31.5966  -17.1089   21.2063 H   0  0  0  0  0  0
  -27.6562  -22.4518   19.9274 H   0  0  0  0  0  0
  -28.9447  -22.6297   18.8073 H   0  0  0  0  0  0
  -30.1190  -24.2364   20.2888 H   0  0  0  0  0  0
  -28.9940  -23.9248   21.5900 H   0  0  0  0  0  0
  -27.1388  -24.8155   20.3708 H   0  0  0  0  0  0
  -28.0399  -24.9778   18.8755 H   0  0  0  0  0  0
  -28.8758  -15.8154   20.8690 H   0  0  0  0  0  0
  -29.0114  -17.3761   18.9587 H   0  0  0  0  0  0
  1 25  1  0  0  0
  1 30  2  0  0  0
  1 80  1  0  0  0
  2  3  1  0  0  0
  2 25  1  0  0  0
  2 86  1  0  0  0
  2 87  1  0  0  0
  3  4  1  0  0  0
  3 88  1  0  0  0
  3 89  1  0  0  0
  4  5  1  0  0  0
  4 90  1  0  0  0
  4 91  1  0  0  0
  5  6  1  0  0  0
  5 26  1  0  0  0
  5 92  1  0  0  0
  6 25  1  0  0  0
  6 93  1  0  0  0
  6 94  1  0  0  0
  7  8  2  0  0  0
  7 26  1  0  0  0
  7 29  1  0  0  0
  8  9  1  0  0  0
  8 22  1  0  0  0
  9 10  1  0  0  0
  9 27  2  0  0  0
 10 11  2  0  0  0
 10 15  1  0  0  0
 11 12  1  0  0  0
 11 95  1  0  0  0
 12 13  2  0  0  0
 12 96  1  0  0  0
 13 14  1  0  0  0
 13 31  1  0  0  0
 14 15  2  0  0  0
 14 97  1  0  0  0
 15 98  1  0  0  0
 16 17  2  0  0  0
 16 21  1  0  0  0
 16 31  1  0  0  0
 17 18  1  0  0  0
 17 99  1  0  0  0
 18 19  2  0  0  0
 18100  1  0  0  0
 19 20  1  0  0  0
 19 24  1  0  0  0
 20 21  2  0  0  0
 20101  1  0  0  0
 21 23  1  0  0  0
 22 28  1  0  0  0
 22 32  2  0  0  0
 26 27  1  0  0  0
 28102  1  0  0  0
 28103  1  0  0  0
 29104  1  0  0  0
 29105  1  0  0  0
 33 34  1  0  0  0
 33 66  1  0  0  0
 33 70  2  0  0  0
 34 36  1  0  0  0
 34 59  1  0  0  0
 34106  1  0  0  0
 35 44  2  0  0  0
 35 45  1  0  0  0
 35 68  1  0  0  0
 36 56  1  0  0  0
 36107  1  0  0  0
 37 39  1  0  0  0
 37 47  1  0  0  0
 37 66  1  0  0  0
 37108  1  0  0  0
 38 43  2  0  0  0
 38 46  1  0  0  0
 38 47  1  0  0  0
 39 64  1  0  0  0
 39 67  2  0  0  0
 40 52  1  0  0  0
 40 53  2  0  0  0
 40 58  1  0  0  0
 41109  1  0  0  0
 41110  1  0  0  0
 41111  1  0  0  0
 41 48  1  0  0  0
 42 43  1  0  0  0
 42 66  1  0  0  0
 42112  1  0  0  0
 42113  1  0  0  0
 43 44  1  0  0  0
 44114  1  0  0  0
 45 46  2  0  0  0
 45115  1  0  0  0
 46116  1  0  0  0
 47117  1  0  0  0
 47118  1  0  0  0
 48 56  1  0  0  0
 48 65  1  0  0  0
 48119  1  0  0  0
 49 50  1  0  0  0
 49 53  1  0  0  0
 49 64  1  0  0  0
 49120  1  0  0  0
 50 51  1  0  0  0
 50121  1  0  0  0
 50122  1  0  0  0
 51 52  1  0  0  0
 51123  1  0  0  0
 51124  1  0  0  0
 52125  1  0  0  0
 52126  1  0  0  0
 53 54  1  0  0  0
 54 55  2  0  0  0
 54127  1  0  0  0
 55 57  1  0  0  0
 55128  1  0  0  0
 56 69  2  0  0  0
 57 58  2  0  0  0
 57129  1  0  0  0
 58130  1  0  0  0
 59 60  1  0  0  0
 59 61  1  0  0  0
 59 62  1  0  0  0
 60131  1  0  0  0
 60132  1  0  0  0
 60133  1  0  0  0
 61134  1  0  0  0
 61135  1  0  0  0
 61136  1  0  0  0
 62137  1  0  0  0
 62138  1  0  0  0
 62139  1  0  0  0
 63 65  1  0  0  0
 63140  1  0  0  0
 63141  1  0  0  0
 63142  1  0  0  0
 64143  1  0  0  0
 65144  1  0  0  0
 68 79  1  0  0  0
 71 72  2  0  0  0
 71 82  1  0  0  0
 71145  1  0  0  0
 72 76  1  0  0  0
 72 83  1  0  0  0
 73 74  1  0  0  0
 73 75  1  0  0  0
 73 83  2  0  0  0
 74 77  1  0  0  0
 74 82  2  0  0  0
 75146  1  0  0  0
 75147  1  0  0  0
 75148  1  0  0  0
 76149  1  0  0  0
 76150  1  0  0  0
 76 80  1  0  0  0
 77 78  1  0  0  0
 77151  1  0  0  0
 77152  1  0  0  0
 78 79  1  0  0  0
 78153  1  0  0  0
 78154  1  0  0  0
 79155  1  0  0  0
 79156  1  0  0  0
 80 81  1  0  0  0
 80157  1  0  0  0
 81 84  1  0  0  0
 81 85  1  0  0  0
 81158  1  0  0  0
M  ISO  4   1 100  68 101  79 101  80 100
M  END
> <chiral flag>
0

> <version>
0

> <s_m_source_file>
/data/baiqing/PycharmProjects/Reinvent-master-3.2/result/LINK_invent/BTK/process_docking_weight1_custom_sum_contain_oxygen_bond_distance_aromatic_linkinvent_7_9_3/rearranged_h_0075.sdf

> <i_m_source_file_index>
73

> <r_mmod_Potential_Energy-OPLS-2005>
65.832389831543

> <r_mmod_Stretch_Energy-OPLS-2005>
68.3679046630859

> <r_mmod_Bend_Energy-OPLS-2005>
128.442276000977

> <r_mmod_Torsional_Energy-OPLS-2005>
167.779403686523

> <r_mmod_Improper_Torsional_Energy-OPLS-2005>
7.78182506561279

> <r_mmod_Van_der_Waal_Energy-OPLS-2005>
155.547439575195

> <r_mmod_Electrostatic_Energy-OPLS-2005>
-293.566101074219

> <r_mmod_Solvation_Energy-OPLS-2005>
-215.393341064453

> <b_mmod_Minimization_Converged-OPLS-2005>
0

> <r_mmod_RMS_Derivative-OPLS-2005>
2.81745314598083

$$$$
74
                    3D
 Structure written by MMmdl.
157165  0  0  1  0            999 V2000
  -30.5090  -14.6428   20.7631 C   0  0  0  0  0  0
  -30.4317  -12.4464   19.4814 C   0  0  0  0  0  0
  -29.5239  -12.5044   18.2287 C   0  0  0  0  0  0
  -28.0320  -12.3481   18.5945 C   0  0  0  0  0  0
  -27.6443  -13.1954   19.8361 C   0  0  2  0  0  0
  -28.6461  -12.9437   20.9728 C   0  0  0  0  0  0
  -25.2567  -13.8171   20.5505 C   0  0  0  0  0  0
  -24.1803  -13.0408   20.9089 C   0  0  0  0  0  0
  -24.6358  -11.6911   20.8566 C   0  0  0  0  0  0
  -23.9012  -10.4285   21.0311 C   0  0  0  0  0  0
  -24.3613   -9.4254   21.9135 C   0  0  0  0  0  0
  -23.6324   -8.2259   22.0744 C   0  0  0  0  0  0
  -22.4336   -8.0250   21.3533 C   0  0  0  0  0  0
  -21.9872   -9.0200   20.4658 C   0  0  0  0  0  0
  -22.7169  -10.2091   20.3006 C   0  0  0  0  0  0
  -21.6889   -6.0704   22.5252 C   0  0  0  0  0  0
  -21.4035   -6.5598   23.8193 C   0  0  0  0  0  0
  -21.3668   -5.6777   24.9162 C   0  0  0  0  0  0
  -21.6093   -4.3033   24.7262 C   0  0  0  0  0  0
  -21.8830   -3.8117   23.4378 C   0  0  0  0  0  0
  -21.9212   -4.6897   22.3422 C   0  0  0  0  0  0
  -22.7858  -13.5196   21.1877 C   0  0  0  0  0  0
  -22.1683   -4.2077   21.1006 F   0  0  0  0  0  0
  -21.5618   -3.4537   25.7770 F   0  0  0  0  0  0
  -29.9432  -13.4123   20.5136 N   0  0  0  0  0  0
  -26.2900  -12.9240   20.2973 N   0  0  0  0  0  0
  -25.9241  -11.6424   20.5439 N   0  0  0  0  0  0
  -22.0620  -12.8157   22.0529 N   0  0  0  0  0  0
  -25.4326  -15.1883   20.4084 N   0  0  0  0  0  0
  -31.5752  -14.8781   20.1688 O   0  0  0  0  0  0
  -21.6687   -6.8845   21.4246 O   0  0  0  0  0  0
  -22.3455  -14.5506   20.6812 O   0  0  0  0  0  0
  -24.6313  -31.8574   23.2000 C   0  0  0  0  0  0
  -25.9194  -32.4731   23.8301 C   0  0  1  0  0  0
  -27.1764  -27.2402   20.1108 C   0  0  0  0  0  0
  -25.6022  -33.8541   24.2226 N   0  0  0  0  0  0
  -23.4190  -30.4876   21.5430 C   0  0  2  0  0  0
  -24.8622  -28.9509   20.0885 C   0  0  0  0  0  0
  -22.7463  -29.4667   22.4877 C   0  0  0  0  0  0
  -18.0286  -28.1390   22.8475 C   0  0  0  0  0  0
  -24.1515  -36.7248   23.2619 C   0  0  0  0  0  0
  -25.9698  -30.7647   21.3844 C   0  0  0  0  0  0
  -26.0336  -29.3880   20.7180 C   0  0  0  0  0  0
  -27.1977  -28.5461   20.7209 C   0  0  0  0  0  0
  -25.9967  -26.8991   19.4174 C   0  0  0  0  0  0
  -24.8534  -27.7197   19.4208 C   0  0  0  0  0  0
  -23.6322  -29.8392   20.1495 C   0  0  0  0  0  0
  -25.4140  -36.2995   24.0269 C   0  0  1  0  0  0
  -20.5875  -28.3717   23.1253 C   0  0  2  0  0  0
  -20.6779  -26.9427   22.5406 C   0  0  0  0  0  0
  -19.5742  -26.6386   21.5202 C   0  0  0  0  0  0
  -18.1925  -26.7926   22.1607 C   0  0  0  0  0  0
  -19.1539  -28.8851   23.2860 C   0  0  0  0  0  0
  -18.9446  -30.1456   23.8878 C   0  0  0  0  0  0
  -17.6460  -30.6574   24.0557 C   0  0  0  0  0  0
  -25.9084  -34.9409   23.5027 C   0  0  0  0  0  0
  -16.5347  -29.9076   23.6346 C   0  0  0  0  0  0
  -16.7281  -28.6491   23.0345 C   0  0  0  0  0  0
  -26.4592  -31.6522   25.0668 C   0  0  0  0  0  0
  -25.3846  -31.3700   26.1372 C   0  0  0  0  0  0
  -27.0424  -30.2907   24.6244 C   0  0  0  0  0  0
  -27.6086  -32.4308   25.7487 C   0  0  0  0  0  0
  -27.5566  -37.1762   24.8458 C   0  0  0  0  0  0
  -21.4162  -29.3060   22.3619 N   0  0  0  0  0  0
  -26.4290  -37.3715   23.9387 N   0  0  0  0  0  0
  -24.6920  -31.0533   22.1008 N   0  0  0  0  0  0
  -23.4200  -28.8190   23.2928 O   0  0  0  0  0  0
  -28.2311  -26.2939   20.1324 O   0  0  0  0  0  0
  -26.5621  -34.8909   22.4576 O   0  0  0  0  0  0
  -23.5482  -32.1493   23.7312 O   0  0  0  0  0  0
  -28.0038  -18.5500   20.3978 C   0  0  0  0  0  0
  -30.1031  -18.3293   20.8291 C   0  0  0  0  0  0
  -29.2182  -19.3131   20.3845 C   0  0  0  0  0  0
  -28.9366  -15.4247   22.9381 C   0  0  0  0  0  0
  -31.2373  -16.1271   22.6342 C   0  0  0  0  0  0
  -29.5192  -20.8144   19.9223 C   0  0  0  0  0  0
  -28.5033  -22.0320   20.2508 C   0  0  0  0  0  0
  -28.8685  -23.6022   19.9298 C   0  0  0  0  0  0
  -27.9057  -24.8308   20.3911 C   0  0  0  0  0  0
  -29.9683  -15.8042   21.7937 C   0  0  0  0  0  0
  -28.1419  -17.2905   20.8460 N   0  0  0  0  0  0
  -29.4615  -17.1125   21.1517 N   0  0  0  0  0  0
  -31.4757  -12.6061   19.2057 H   0  0  0  0  0  0
  -30.4000  -11.4240   19.8604 H   0  0  0  0  0  0
  -29.7916  -11.6959   17.5426 H   0  0  0  0  0  0
  -29.7000  -13.4277   17.6836 H   0  0  0  0  0  0
  -27.8542  -11.2919   18.8035 H   0  0  0  0  0  0
  -27.4101  -12.5942   17.7306 H   0  0  0  0  0  0
  -27.6870  -14.2399   19.5268 H   0  0  0  0  0  0
  -28.6837  -11.8720   21.1766 H   0  0  0  0  0  0
  -28.3089  -13.3592   21.9074 H   0  0  0  0  0  0
  -25.2776   -9.5736   22.4678 H   0  0  0  0  0  0
  -24.0042   -7.4659   22.7471 H   0  0  0  0  0  0
  -21.0779   -8.8733   19.8996 H   0  0  0  0  0  0
  -22.3644  -10.9606   19.6078 H   0  0  0  0  0  0
  -21.1990   -7.6109   23.9692 H   0  0  0  0  0  0
  -21.1499   -6.0492   25.9072 H   0  0  0  0  0  0
  -22.0593   -2.7547   23.2947 H   0  0  0  0  0  0
  -22.4222  -11.9760   22.4856 H   0  0  0  0  0  0
  -21.1253  -13.1188   22.2775 H   0  0  0  0  0  0
  -24.7049  -15.8637   20.6271 H   0  0  0  0  0  0
  -26.3343  -15.6322   20.2593 H   0  0  0  0  0  0
  -26.7223  -32.5373   23.0966 H   0  0  0  0  0  0
  -25.0186  -33.9678   25.0388 H   0  0  0  0  0  0
  -22.7137  -31.3121   21.4081 H   0  0  0  0  0  0
  -23.3751  -35.9606   23.3285 H   0  0  0  0  0  0
  -24.3579  -36.8916   22.2040 H   0  0  0  0  0  0
  -23.7350  -37.6472   23.6698 H   0  0  0  0  0  0
  -26.1263  -31.5375   20.6283 H   0  0  0  0  0  0
  -26.8389  -30.7944   22.0282 H   0  0  0  0  0  0
  -28.0868  -28.8790   21.2362 H   0  0  0  0  0  0
  -25.9397  -25.9859   18.8456 H   0  0  0  0  0  0
  -23.9667  -27.4063   18.8902 H   0  0  0  0  0  0
  -23.7460  -30.6322   19.4081 H   0  0  0  0  0  0
  -22.7489  -29.2773   19.8415 H   0  0  0  0  0  0
  -25.1338  -36.1780   25.0762 H   0  0  0  0  0  0
  -20.9972  -28.3307   24.1362 H   0  0  0  0  0  0
  -20.5702  -26.2297   23.3626 H   0  0  0  0  0  0
  -21.6653  -26.7467   22.1174 H   0  0  0  0  0  0
  -19.6947  -25.6305   21.1225 H   0  0  0  0  0  0
  -19.6704  -27.3183   20.6746 H   0  0  0  0  0  0
  -17.4218  -26.6661   21.4017 H   0  0  0  0  0  0
  -18.0339  -26.0080   22.9021 H   0  0  0  0  0  0
  -19.7930  -30.7267   24.2236 H   0  0  0  0  0  0
  -17.5015  -31.6245   24.5164 H   0  0  0  0  0  0
  -15.5351  -30.2957   23.7691 H   0  0  0  0  0  0
  -15.8662  -28.0803   22.7080 H   0  0  0  0  0  0
  -24.6001  -30.7062   25.7717 H   0  0  0  0  0  0
  -24.9061  -32.2900   26.4787 H   0  0  0  0  0  0
  -25.8157  -30.8893   27.0166 H   0  0  0  0  0  0
  -26.3006  -29.6600   24.1332 H   0  0  0  0  0  0
  -27.4110  -29.7223   25.4801 H   0  0  0  0  0  0
  -27.8909  -30.4058   23.9471 H   0  0  0  0  0  0
  -27.2596  -33.3597   26.2035 H   0  0  0  0  0  0
  -28.3934  -32.6935   25.0360 H   0  0  0  0  0  0
  -28.0751  -31.8506   26.5476 H   0  0  0  0  0  0
  -28.2538  -38.0093   24.7449 H   0  0  0  0  0  0
  -28.1079  -36.2600   24.6303 H   0  0  0  0  0  0
  -27.2241  -37.1411   25.8850 H   0  0  0  0  0  0
  -20.9329  -29.8747   21.6791 H   0  0  0  0  0  0
  -26.0120  -38.2766   24.1420 H   0  0  0  0  0  0
  -27.0186  -18.8635   20.0835 H   0  0  0  0  0  0
  -31.1696  -18.4281   20.9598 H   0  0  0  0  0  0
  -27.8965  -15.4399   22.6090 H   0  0  0  0  0  0
  -29.1038  -14.4723   23.4401 H   0  0  0  0  0  0
  -28.9669  -16.1396   23.7710 H   0  0  0  0  0  0
  -31.0387  -16.7363   23.5185 H   0  0  0  0  0  0
  -31.9660  -16.6543   22.0264 H   0  0  0  0  0  0
  -31.7380  -15.2251   22.9963 H   0  0  0  0  0  0
  -29.6943  -20.8339   18.8399 H   0  0  0  0  0  0
  -30.4932  -21.0857   20.3308 H   0  0  0  0  0  0
  -28.2820  -21.9572   21.3114 H   0  0  0  0  0  0
  -27.5735  -21.7906   19.7356 H   0  0  0  0  0  0
  -29.0096  -23.7081   18.8534 H   0  0  0  0  0  0
  -29.8502  -23.8033   20.3632 H   0  0  0  0  0  0
  -27.8212  -24.7496   21.4749 H   0  0  0  0  0  0
  -26.8991  -24.5789   20.0526 H   0  0  0  0  0  0
  1 25  1  0  0  0
  1 30  2  0  0  0
  1 80  1  0  0  0
  2  3  1  0  0  0
  2 25  1  0  0  0
  2 83  1  0  0  0
  2 84  1  0  0  0
  3  4  1  0  0  0
  3 85  1  0  0  0
  3 86  1  0  0  0
  4  5  1  0  0  0
  4 87  1  0  0  0
  4 88  1  0  0  0
  5  6  1  0  0  0
  5 26  1  0  0  0
  5 89  1  0  0  0
  6 25  1  0  0  0
  6 90  1  0  0  0
  6 91  1  0  0  0
  7  8  2  0  0  0
  7 26  1  0  0  0
  7 29  1  0  0  0
  8  9  1  0  0  0
  8 22  1  0  0  0
  9 10  1  0  0  0
  9 27  2  0  0  0
 10 11  2  0  0  0
 10 15  1  0  0  0
 11 12  1  0  0  0
 11 92  1  0  0  0
 12 13  2  0  0  0
 12 93  1  0  0  0
 13 14  1  0  0  0
 13 31  1  0  0  0
 14 15  2  0  0  0
 14 94  1  0  0  0
 15 95  1  0  0  0
 16 17  2  0  0  0
 16 21  1  0  0  0
 16 31  1  0  0  0
 17 18  1  0  0  0
 17 96  1  0  0  0
 18 19  2  0  0  0
 18 97  1  0  0  0
 19 20  1  0  0  0
 19 24  1  0  0  0
 20 21  2  0  0  0
 20 98  1  0  0  0
 21 23  1  0  0  0
 22 28  1  0  0  0
 22 32  2  0  0  0
 26 27  1  0  0  0
 28 99  1  0  0  0
 28100  1  0  0  0
 29101  1  0  0  0
 29102  1  0  0  0
 33 34  1  0  0  0
 33 66  1  0  0  0
 33 70  2  0  0  0
 34 36  1  0  0  0
 34 59  1  0  0  0
 34103  1  0  0  0
 35 44  2  0  0  0
 35 45  1  0  0  0
 35 68  1  0  0  0
 36 56  1  0  0  0
 36104  1  0  0  0
 37 39  1  0  0  0
 37 47  1  0  0  0
 37 66  1  0  0  0
 37105  1  0  0  0
 38 43  2  0  0  0
 38 46  1  0  0  0
 38 47  1  0  0  0
 39 64  1  0  0  0
 39 67  2  0  0  0
 40 52  1  0  0  0
 40 53  2  0  0  0
 40 58  1  0  0  0
 41106  1  0  0  0
 41107  1  0  0  0
 41108  1  0  0  0
 41 48  1  0  0  0
 42 43  1  0  0  0
 42 66  1  0  0  0
 42109  1  0  0  0
 42110  1  0  0  0
 43 44  1  0  0  0
 44111  1  0  0  0
 45 46  2  0  0  0
 45112  1  0  0  0
 46113  1  0  0  0
 47114  1  0  0  0
 47115  1  0  0  0
 48 56  1  0  0  0
 48 65  1  0  0  0
 48116  1  0  0  0
 49 50  1  0  0  0
 49 53  1  0  0  0
 49 64  1  0  0  0
 49117  1  0  0  0
 50 51  1  0  0  0
 50118  1  0  0  0
 50119  1  0  0  0
 51 52  1  0  0  0
 51120  1  0  0  0
 51121  1  0  0  0
 52122  1  0  0  0
 52123  1  0  0  0
 53 54  1  0  0  0
 54 55  2  0  0  0
 54124  1  0  0  0
 55 57  1  0  0  0
 55125  1  0  0  0
 56 69  2  0  0  0
 57 58  2  0  0  0
 57126  1  0  0  0
 58127  1  0  0  0
 59 60  1  0  0  0
 59 61  1  0  0  0
 59 62  1  0  0  0
 60128  1  0  0  0
 60129  1  0  0  0
 60130  1  0  0  0
 61131  1  0  0  0
 61132  1  0  0  0
 61133  1  0  0  0
 62134  1  0  0  0
 62135  1  0  0  0
 62136  1  0  0  0
 63 65  1  0  0  0
 63137  1  0  0  0
 63138  1  0  0  0
 63139  1  0  0  0
 64140  1  0  0  0
 65141  1  0  0  0
 68 79  1  0  0  0
 71 73  1  0  0  0
 71 81  2  0  0  0
 71142  1  0  0  0
 72 73  2  0  0  0
 72 82  1  0  0  0
 72143  1  0  0  0
 73 76  1  0  0  0
 74144  1  0  0  0
 74145  1  0  0  0
 74146  1  0  0  0
 74 80  1  0  0  0
 75 80  1  0  0  0
 75147  1  0  0  0
 75148  1  0  0  0
 75149  1  0  0  0
 76 77  1  0  0  0
 76150  1  0  0  0
 76151  1  0  0  0
 77 78  1  0  0  0
 77152  1  0  0  0
 77153  1  0  0  0
 78 79  1  0  0  0
 78154  1  0  0  0
 78155  1  0  0  0
 79156  1  0  0  0
 79157  1  0  0  0
 80 82  1  0  0  0
 81 82  1  0  0  0
M  ISO  4   1 100  68 101  79 101  80 100
M  END
> <chiral flag>
0

> <version>
0

> <s_m_source_file>
/data/baiqing/PycharmProjects/Reinvent-master-3.2/result/LINK_invent/BTK/process_docking_weight1_custom_sum_contain_oxygen_bond_distance_aromatic_linkinvent_7_9_3/rearranged_h_0075.sdf

> <i_m_source_file_index>
74

> <r_mmod_Potential_Energy-OPLS-2005>
336.457885742188

> <r_mmod_Stretch_Energy-OPLS-2005>
152.852432250977

> <r_mmod_Bend_Energy-OPLS-2005>
208.378295898438

> <r_mmod_Torsional_Energy-OPLS-2005>
226.211654663086

> <r_mmod_Improper_Torsional_Energy-OPLS-2005>
2.48231768608093

> <r_mmod_Van_der_Waal_Energy-OPLS-2005>
132.648895263672

> <r_mmod_Electrostatic_Energy-OPLS-2005>
-290.264587402344

> <r_mmod_Solvation_Energy-OPLS-2005>
-183.732513427734

> <b_mmod_Minimization_Converged-OPLS-2005>
0

> <r_mmod_RMS_Derivative-OPLS-2005>
12.7218856811523

$$$$
75
                    3D
 Structure written by MMmdl.
165173  0  0  1  0            999 V2000
  -30.7240  -14.4818   20.4163 C   0  0  0  0  0  0
  -30.4247  -12.2798   19.4177 C   0  0  0  0  0  0
  -29.4996  -12.4729   18.2073 C   0  0  0  0  0  0
  -28.0135  -12.3536   18.6175 C   0  0  0  0  0  0
  -27.6582  -13.1908   19.8786 C   0  0  2  0  0  0
  -28.7211  -13.0225   20.9880 C   0  0  0  0  0  0
  -25.2610  -13.8163   20.5808 C   0  0  0  0  0  0
  -24.1842  -13.0357   20.9321 C   0  0  0  0  0  0
  -24.6408  -11.6839   20.8764 C   0  0  0  0  0  0
  -23.9078  -10.4198   21.0420 C   0  0  0  0  0  0
  -24.3560   -9.4071   21.9162 C   0  0  0  0  0  0
  -23.6247   -8.2105   22.0679 C   0  0  0  0  0  0
  -22.4225   -8.0194   21.3489 C   0  0  0  0  0  0
  -21.9914   -9.0159   20.4581 C   0  0  0  0  0  0
  -22.7236  -10.2067   20.3079 C   0  0  0  0  0  0
  -21.6732   -6.0732   22.5307 C   0  0  0  0  0  0
  -21.3931   -6.5631   23.8284 C   0  0  0  0  0  0
  -21.3691   -5.6770   24.9206 C   0  0  0  0  0  0
  -21.6053   -4.3035   24.7190 C   0  0  0  0  0  0
  -21.8783   -3.8139   23.4271 C   0  0  0  0  0  0
  -21.9152   -4.6995   22.3390 C   0  0  0  0  0  0
  -22.7917  -13.5144   21.1943 C   0  0  0  0  0  0
  -22.1624   -4.2197   21.0947 F   0  0  0  0  0  0
  -21.5668   -3.4517   25.7680 F   0  0  0  0  0  0
  -30.0436  -13.3057   20.3979 N   0  0  0  0  0  0
  -26.3023  -12.9236   20.3491 N   0  0  0  0  0  0
  -25.9354  -11.6398   20.5855 N   0  0  0  0  0  0
  -22.0585  -12.8093   22.0507 N   0  0  0  0  0  0
  -25.4383  -15.1867   20.4217 N   0  0  0  0  0  0
  -31.9374  -14.5434   20.2019 O   0  0  0  0  0  0
  -21.6546   -6.8825   21.4245 O   0  0  0  0  0  0
  -22.3490  -14.5380   20.6827 O   0  0  0  0  0  0
  -24.6194  -31.8682   23.2138 C   0  0  0  0  0  0
  -25.9076  -32.4823   23.8450 C   0  0  1  0  0  0
  -27.1924  -27.3838   20.0764 C   0  0  0  0  0  0
  -25.5896  -33.8635   24.2340 N   0  0  0  0  0  0
  -23.4064  -30.4974   21.5623 C   0  0  2  0  0  0
  -24.8461  -28.9727   20.1058 C   0  0  0  0  0  0
  -22.7422  -29.4648   22.5029 C   0  0  0  0  0  0
  -18.0265  -28.1367   22.8496 C   0  0  0  0  0  0
  -24.1464  -36.7292   23.2653 C   0  0  0  0  0  0
  -25.9491  -30.8082   21.3860 C   0  0  0  0  0  0
  -26.0130  -29.4502   20.7106 C   0  0  0  0  0  0
  -27.1970  -28.6662   20.6865 C   0  0  0  0  0  0
  -26.0058  -26.9542   19.4359 C   0  0  0  0  0  0
  -24.8332  -27.7271   19.4666 C   0  0  0  0  0  0
  -23.6131  -29.8459   20.1707 C   0  0  0  0  0  0
  -25.4100  -36.3138   24.0352 C   0  0  1  0  0  0
  -20.5865  -28.3668   23.1305 C   0  0  2  0  0  0
  -20.6764  -26.9401   22.5432 C   0  0  0  0  0  0
  -19.5735  -26.6367   21.5231 C   0  0  0  0  0  0
  -18.1906  -26.7902   22.1625 C   0  0  0  0  0  0
  -19.1518  -28.8844   23.2890 C   0  0  0  0  0  0
  -18.9438  -30.1456   23.8900 C   0  0  0  0  0  0
  -17.6438  -30.6591   24.0556 C   0  0  0  0  0  0
  -25.9040  -34.9498   23.5151 C   0  0  0  0  0  0
  -16.5335  -29.9095   23.6340 C   0  0  0  0  0  0
  -16.7248  -28.6507   23.0371 C   0  0  0  0  0  0
  -26.4459  -31.6641   25.0812 C   0  0  0  0  0  0
  -25.3677  -31.3761   26.1519 C   0  0  0  0  0  0
  -27.0310  -30.3070   24.6270 C   0  0  0  0  0  0
  -27.6019  -32.4390   25.7546 C   0  0  0  0  0  0
  -27.5564  -37.1813   24.8469 C   0  0  0  0  0  0
  -21.4158  -29.3018   22.3723 N   0  0  0  0  0  0
  -26.4281  -37.3822   23.9411 N   0  0  0  0  0  0
  -24.6778  -31.0734   22.1080 N   0  0  0  0  0  0
  -23.4196  -28.8186   23.3054 O   0  0  0  0  0  0
  -28.3011  -26.5554   20.1068 O   0  0  0  0  0  0
  -26.5621  -34.8941   22.4710 O   0  0  0  0  0  0
  -23.5391  -32.1469   23.7496 O   0  0  0  0  0  0
  -26.9020  -19.5991   19.5484 C   0  0  0  0  0  0
  -29.0765  -19.7558   19.6708 C   0  0  0  0  0  0
  -27.9459  -20.4964   19.9163 C   0  0  0  0  0  0
  -26.8548  -21.7768   21.7433 C   0  0  0  0  0  0
  -28.7011  -16.3996   17.8237 C   0  0  0  0  0  0
  -30.4256  -18.1377   17.4705 C   0  0  0  0  0  0
  -29.1324  -24.1620   20.1583 C   0  0  0  0  0  0
  -28.9970  -22.7369   20.7990 C   0  0  0  0  0  0
  -30.4779  -16.8417   19.6405 C   0  0  0  0  0  0
  -28.0236  -25.1844   20.5081 C   0  0  0  0  0  0
  -27.7204  -21.9011   20.4685 C   0  0  1  0  0  0
  -29.5446  -17.4789   18.5582 C   0  0  0  0  0  0
  -27.3436  -18.4391   19.0951 N   0  0  0  0  0  0
  -28.6939  -18.5342   19.1349 N   0  0  0  0  0  0
  -29.9759  -15.6041   20.2949 N   0  0  0  0  0  0
  -31.4704  -12.3570   19.1131 H   0  0  0  0  0  0
  -30.2990  -11.2851   19.8472 H   0  0  0  0  0  0
  -29.7369  -11.7277   17.4481 H   0  0  0  0  0  0
  -29.6678  -13.4514   17.7551 H   0  0  0  0  0  0
  -27.8053  -11.2960   18.7925 H   0  0  0  0  0  0
  -27.3755  -12.6538   17.7883 H   0  0  0  0  0  0
  -27.6869  -14.2307   19.5866 H   0  0  0  0  0  0
  -28.7134  -12.0048   21.3886 H   0  0  0  0  0  0
  -28.5174  -13.6732   21.8354 H   0  0  0  0  0  0
  -25.2653   -9.5473   22.4770 H   0  0  0  0  0  0
  -23.9888   -7.4463   22.7413 H   0  0  0  0  0  0
  -21.0888   -8.8651   19.8837 H   0  0  0  0  0  0
  -22.3660  -10.9567   19.6168 H   0  0  0  0  0  0
  -21.1869   -7.6132   23.9807 H   0  0  0  0  0  0
  -21.1616   -6.0475   25.9171 H   0  0  0  0  0  0
  -22.0552   -2.7614   23.2737 H   0  0  0  0  0  0
  -22.3980  -11.9610   22.4689 H   0  0  0  0  0  0
  -21.1196  -13.1171   22.2506 H   0  0  0  0  0  0
  -24.6819  -15.8470   20.5848 H   0  0  0  0  0  0
  -26.2639  -15.6298   20.0299 H   0  0  0  0  0  0
  -26.7111  -32.5490   23.1187 H   0  0  0  0  0  0
  -25.0009  -33.9789   25.0469 H   0  0  0  0  0  0
  -22.6968  -31.3185   21.4299 H   0  0  0  0  0  0
  -23.3746  -35.9595   23.3349 H   0  0  0  0  0  0
  -24.3540  -36.8876   22.2053 H   0  0  0  0  0  0
  -23.7166  -37.6490   23.6636 H   0  0  0  0  0  0
  -26.0912  -31.5817   20.6334 H   0  0  0  0  0  0
  -26.8264  -30.8385   22.0186 H   0  0  0  0  0  0
  -28.1016  -29.0221   21.1566 H   0  0  0  0  0  0
  -25.9521  -26.0255   18.8906 H   0  0  0  0  0  0
  -23.9334  -27.3682   18.9855 H   0  0  0  0  0  0
  -23.7320  -30.6315   19.4250 H   0  0  0  0  0  0
  -22.7337  -29.2798   19.8620 H   0  0  0  0  0  0
  -25.1265  -36.2017   25.0844 H   0  0  0  0  0  0
  -20.9919  -28.3230   24.1438 H   0  0  0  0  0  0
  -20.5675  -26.2265   23.3624 H   0  0  0  0  0  0
  -21.6625  -26.7450   22.1213 H   0  0  0  0  0  0
  -19.6902  -25.6282   21.1261 H   0  0  0  0  0  0
  -19.6674  -27.3177   20.6757 H   0  0  0  0  0  0
  -17.4185  -26.6663   21.4030 H   0  0  0  0  0  0
  -18.0309  -26.0055   22.9023 H   0  0  0  0  0  0
  -19.7926  -30.7262   24.2265 H   0  0  0  0  0  0
  -17.5007  -31.6263   24.5135 H   0  0  0  0  0  0
  -15.5341  -30.2987   23.7666 H   0  0  0  0  0  0
  -15.8641  -28.0810   22.7104 H   0  0  0  0  0  0
  -24.5851  -30.7113   25.7828 H   0  0  0  0  0  0
  -24.8860  -32.2926   26.4947 H   0  0  0  0  0  0
  -25.7993  -30.8928   27.0295 H   0  0  0  0  0  0
  -26.2913  -29.6821   24.1248 H   0  0  0  0  0  0
  -27.3946  -29.7316   25.4796 H   0  0  0  0  0  0
  -27.8809  -30.4350   23.9556 H   0  0  0  0  0  0
  -27.2624  -33.3689   26.2107 H   0  0  0  0  0  0
  -28.3808  -32.6956   25.0358 H   0  0  0  0  0  0
  -28.0699  -31.8542   26.5467 H   0  0  0  0  0  0
  -28.2623  -38.0086   24.7532 H   0  0  0  0  0  0
  -28.1031  -36.2618   24.6289 H   0  0  0  0  0  0
  -27.2287  -37.1466   25.8883 H   0  0  0  0  0  0
  -20.9358  -29.8718   21.6915 H   0  0  0  0  0  0
  -26.0181  -38.2901   24.1427 H   0  0  0  0  0  0
  -25.8283  -19.7336   19.6037 H   0  0  0  0  0  0
  -30.1179  -20.0171   19.7903 H   0  0  0  0  0  0
  -25.9161  -21.2432   21.5992 H   0  0  0  0  0  0
  -26.5651  -22.7570   22.1108 H   0  0  0  0  0  0
  -27.4123  -21.2465   22.5195 H   0  0  0  0  0  0
  -28.1974  -16.7970   16.9358 H   0  0  0  0  0  0
  -27.9101  -15.9803   18.4483 H   0  0  0  0  0  0
  -29.3316  -15.5825   17.4816 H   0  0  0  0  0  0
  -31.0272  -17.4036   16.9297 H   0  0  0  0  0  0
  -31.1080  -18.8793   17.8700 H   0  0  0  0  0  0
  -29.8031  -18.6583   16.7455 H   0  0  0  0  0  0
  -29.2216  -24.0836   19.0746 H   0  0  0  0  0  0
  -30.0848  -24.5668   20.4906 H   0  0  0  0  0  0
  -29.0923  -22.8287   21.8844 H   0  0  0  0  0  0
  -29.8784  -22.1544   20.5289 H   0  0  0  0  0  0
  -30.7653  -17.5767   20.3999 H   0  0  0  0  0  0
  -31.4088  -16.6028   19.1202 H   0  0  0  0  0  0
  -27.8376  -25.1737   21.5806 H   0  0  0  0  0  0
  -27.1185  -24.7878   20.0566 H   0  0  0  0  0  0
  -27.1579  -22.4717   19.7346 H   0  0  0  0  0  0
  -28.9755  -15.5309   20.4185 H   0  0  0  0  0  0
  1 25  1  0  0  0
  1 30  2  0  0  0
  1 85  1  0  0  0
  2  3  1  0  0  0
  2 25  1  0  0  0
  2 86  1  0  0  0
  2 87  1  0  0  0
  3  4  1  0  0  0
  3 88  1  0  0  0
  3 89  1  0  0  0
  4  5  1  0  0  0
  4 90  1  0  0  0
  4 91  1  0  0  0
  5  6  1  0  0  0
  5 26  1  0  0  0
  5 92  1  0  0  0
  6 25  1  0  0  0
  6 93  1  0  0  0
  6 94  1  0  0  0
  7  8  2  0  0  0
  7 26  1  0  0  0
  7 29  1  0  0  0
  8  9  1  0  0  0
  8 22  1  0  0  0
  9 10  1  0  0  0
  9 27  2  0  0  0
 10 11  2  0  0  0
 10 15  1  0  0  0
 11 12  1  0  0  0
 11 95  1  0  0  0
 12 13  2  0  0  0
 12 96  1  0  0  0
 13 14  1  0  0  0
 13 31  1  0  0  0
 14 15  2  0  0  0
 14 97  1  0  0  0
 15 98  1  0  0  0
 16 17  2  0  0  0
 16 21  1  0  0  0
 16 31  1  0  0  0
 17 18  1  0  0  0
 17 99  1  0  0  0
 18 19  2  0  0  0
 18100  1  0  0  0
 19 20  1  0  0  0
 19 24  1  0  0  0
 20 21  2  0  0  0
 20101  1  0  0  0
 21 23  1  0  0  0
 22 28  1  0  0  0
 22 32  2  0  0  0
 26 27  1  0  0  0
 28102  1  0  0  0
 28103  1  0  0  0
 29104  1  0  0  0
 29105  1  0  0  0
 33 34  1  0  0  0
 33 66  1  0  0  0
 33 70  2  0  0  0
 34 36  1  0  0  0
 34 59  1  0  0  0
 34106  1  0  0  0
 35 44  2  0  0  0
 35 45  1  0  0  0
 35 68  1  0  0  0
 36 56  1  0  0  0
 36107  1  0  0  0
 37 39  1  0  0  0
 37 47  1  0  0  0
 37 66  1  0  0  0
 37108  1  0  0  0
 38 43  2  0  0  0
 38 46  1  0  0  0
 38 47  1  0  0  0
 39 64  1  0  0  0
 39 67  2  0  0  0
 40 52  1  0  0  0
 40 53  2  0  0  0
 40 58  1  0  0  0
 41109  1  0  0  0
 41110  1  0  0  0
 41111  1  0  0  0
 41 48  1  0  0  0
 42 43  1  0  0  0
 42 66  1  0  0  0
 42112  1  0  0  0
 42113  1  0  0  0
 43 44  1  0  0  0
 44114  1  0  0  0
 45 46  2  0  0  0
 45115  1  0  0  0
 46116  1  0  0  0
 47117  1  0  0  0
 47118  1  0  0  0
 48 56  1  0  0  0
 48 65  1  0  0  0
 48119  1  0  0  0
 49 50  1  0  0  0
 49 53  1  0  0  0
 49 64  1  0  0  0
 49120  1  0  0  0
 50 51  1  0  0  0
 50121  1  0  0  0
 50122  1  0  0  0
 51 52  1  0  0  0
 51123  1  0  0  0
 51124  1  0  0  0
 52125  1  0  0  0
 52126  1  0  0  0
 53 54  1  0  0  0
 54 55  2  0  0  0
 54127  1  0  0  0
 55 57  1  0  0  0
 55128  1  0  0  0
 56 69  2  0  0  0
 57 58  2  0  0  0
 57129  1  0  0  0
 58130  1  0  0  0
 59 60  1  0  0  0
 59 61  1  0  0  0
 59 62  1  0  0  0
 60131  1  0  0  0
 60132  1  0  0  0
 60133  1  0  0  0
 61134  1  0  0  0
 61135  1  0  0  0
 61136  1  0  0  0
 62137  1  0  0  0
 62138  1  0  0  0
 62139  1  0  0  0
 63 65  1  0  0  0
 63140  1  0  0  0
 63141  1  0  0  0
 63142  1  0  0  0
 64143  1  0  0  0
 65144  1  0  0  0
 68 80  1  0  0  0
 71 73  1  0  0  0
 71 83  2  0  0  0
 71145  1  0  0  0
 72 73  2  0  0  0
 72 84  1  0  0  0
 72146  1  0  0  0
 73 81  1  0  0  0
 74147  1  0  0  0
 74148  1  0  0  0
 74149  1  0  0  0
 74 81  1  0  0  0
 75150  1  0  0  0
 75151  1  0  0  0
 75152  1  0  0  0
 75 82  1  0  0  0
 76 82  1  0  0  0
 76153  1  0  0  0
 76154  1  0  0  0
 76155  1  0  0  0
 77 78  1  0  0  0
 77 80  1  0  0  0
 77156  1  0  0  0
 77157  1  0  0  0
 78 81  1  0  0  0
 78158  1  0  0  0
 78159  1  0  0  0
 79 82  1  0  0  0
 79 85  1  0  0  0
 79160  1  0  0  0
 79161  1  0  0  0
 80162  1  0  0  0
 80163  1  0  0  0
 81164  1  0  0  0
 82 84  1  0  0  0
 83 84  1  0  0  0
 85165  1  0  0  0
M  ISO  4   1 100  68 101  80 101  85 100
M  END
> <chiral flag>
0

> <version>
0

> <s_m_source_file>
/data/baiqing/PycharmProjects/Reinvent-master-3.2/result/LINK_invent/BTK/process_docking_weight1_custom_sum_contain_oxygen_bond_distance_aromatic_linkinvent_7_9_3/rearranged_h_0075.sdf

> <i_m_source_file_index>
75

> <r_mmod_Potential_Energy-OPLS-2005>
1.89162802696228

> <r_mmod_Stretch_Energy-OPLS-2005>
45.6060485839844

> <r_mmod_Bend_Energy-OPLS-2005>
117.68399810791

> <r_mmod_Torsional_Energy-OPLS-2005>
292.355316162109

> <r_mmod_Improper_Torsional_Energy-OPLS-2005>
11.3097095489502

> <r_mmod_Van_der_Waal_Energy-OPLS-2005>
141.378402709961

> <r_mmod_Electrostatic_Energy-OPLS-2005>
-438.345245361328

> <r_mmod_Solvation_Energy-OPLS-2005>
-202.62467956543

> <b_mmod_Minimization_Converged-OPLS-2005>
0

> <r_mmod_RMS_Derivative-OPLS-2005>
12.0542125701904

$$$$
76
                    3D
 Structure written by MMmdl.
161169  0  0  1  0            999 V2000
  -30.5623  -14.9216   20.4295 C   0  0  0  0  0  0
  -30.4390  -12.5626   19.5115 C   0  0  0  0  0  0
  -29.5252  -12.5286   18.2636 C   0  0  0  0  0  0
  -28.0538  -12.3245   18.6709 C   0  0  0  0  0  0
  -27.6329  -13.2497   19.8436 C   0  0  2  0  0  0
  -28.6711  -13.2514   20.9836 C   0  0  0  0  0  0
  -25.2477  -13.8236   20.5700 C   0  0  0  0  0  0
  -24.1788  -13.0452   20.9197 C   0  0  0  0  0  0
  -24.6403  -11.6934   20.8735 C   0  0  0  0  0  0
  -23.9096  -10.4300   21.0404 C   0  0  0  0  0  0
  -24.3640   -9.4214   21.9187 C   0  0  0  0  0  0
  -23.6304   -8.2251   22.0758 C   0  0  0  0  0  0
  -22.4288   -8.0293   21.3540 C   0  0  0  0  0  0
  -21.9928   -9.0269   20.4649 C   0  0  0  0  0  0
  -22.7264  -10.2142   20.3059 C   0  0  0  0  0  0
  -21.6852   -6.0746   22.5284 C   0  0  0  0  0  0
  -21.4013   -6.5648   23.8219 C   0  0  0  0  0  0
  -21.3654   -5.6799   24.9179 C   0  0  0  0  0  0
  -21.6041   -4.3061   24.7225 C   0  0  0  0  0  0
  -21.8817   -3.8156   23.4342 C   0  0  0  0  0  0
  -21.9195   -4.6977   22.3401 C   0  0  0  0  0  0
  -22.7818  -13.5212   21.1872 C   0  0  0  0  0  0
  -22.1664   -4.2166   21.0979 F   0  0  0  0  0  0
  -21.5626   -3.4543   25.7731 F   0  0  0  0  0  0
  -29.9604  -13.6591   20.4063 N   0  0  0  0  0  0
  -26.2902  -12.9468   20.3260 N   0  0  0  0  0  0
  -25.9339  -11.6592   20.5740 N   0  0  0  0  0  0
  -22.0470  -12.8183   22.0428 N   0  0  0  0  0  0
  -25.4152  -15.1958   20.4140 N   0  0  0  0  0  0
  -31.7419  -14.9710   20.0543 O   0  0  0  0  0  0
  -21.6639   -6.8891   21.4245 O   0  0  0  0  0  0
  -22.3493  -14.5508   20.6734 O   0  0  0  0  0  0
  -24.6439  -31.8440   23.1920 C   0  0  0  0  0  0
  -25.9211  -32.4698   23.8320 C   0  0  1  0  0  0
  -27.2135  -27.1398   20.1478 C   0  0  0  0  0  0
  -25.5961  -33.8506   24.2241 N   0  0  0  0  0  0
  -23.4491  -30.4615   21.5370 C   0  0  2  0  0  0
  -24.8977  -28.8894   20.1146 C   0  0  0  0  0  0
  -22.7576  -29.4522   22.4878 C   0  0  0  0  0  0
  -18.0300  -28.1390   22.8458 C   0  0  0  0  0  0
  -24.1473  -36.7232   23.2651 C   0  0  0  0  0  0
  -26.0055  -30.7161   21.3931 C   0  0  0  0  0  0
  -26.0748  -29.3278   20.7340 C   0  0  0  0  0  0
  -27.2363  -28.4685   20.7319 C   0  0  0  0  0  0
  -26.0136  -26.8028   19.4868 C   0  0  0  0  0  0
  -24.8780  -27.6397   19.4777 C   0  0  0  0  0  0
  -23.6774  -29.7926   20.1560 C   0  0  0  0  0  0
  -25.4107  -36.3034   24.0333 C   0  0  1  0  0  0
  -20.5916  -28.3705   23.1237 C   0  0  2  0  0  0
  -20.6774  -26.9417   22.5389 C   0  0  0  0  0  0
  -19.5753  -26.6387   21.5190 C   0  0  0  0  0  0
  -18.1941  -26.7928   22.1610 C   0  0  0  0  0  0
  -19.1556  -28.8871   23.2834 C   0  0  0  0  0  0
  -18.9476  -30.1473   23.8862 C   0  0  0  0  0  0
  -17.6475  -30.6591   24.0550 C   0  0  0  0  0  0
  -25.9058  -34.9403   23.5084 C   0  0  0  0  0  0
  -16.5365  -29.9075   23.6343 C   0  0  0  0  0  0
  -16.7288  -28.6496   23.0350 C   0  0  0  0  0  0
  -26.4521  -31.6565   25.0765 C   0  0  0  0  0  0
  -25.3706  -31.3740   26.1465 C   0  0  0  0  0  0
  -27.0415  -30.2970   24.6360 C   0  0  0  0  0  0
  -27.6072  -32.4324   25.7544 C   0  0  0  0  0  0
  -27.5566  -37.1773   24.8470 C   0  0  0  0  0  0
  -21.4266  -29.3037   22.3634 N   0  0  0  0  0  0
  -26.4271  -37.3738   23.9425 N   0  0  0  0  0  0
  -24.7196  -31.0279   22.0966 N   0  0  0  0  0  0
  -23.4218  -28.8064   23.3026 O   0  0  0  0  0  0
  -28.2718  -26.1649   20.1634 O   0  0  0  0  0  0
  -26.5617  -34.8877   22.4643 O   0  0  0  0  0  0
  -23.5539  -32.1333   23.7089 O   0  0  0  0  0  0
  -29.9943  -17.6073   20.0614 C   0  0  0  0  0  0
  -29.8355  -16.3210   20.7635 C   0  0  0  0  0  0
  -29.3918  -18.8619   20.5400 C   0  0  0  0  0  0
  -28.6371  -17.5836   22.3137 C   0  0  0  0  0  0
  -26.3963  -17.1531   23.4162 C   0  0  0  0  0  0
  -31.0060  -20.7399   19.9142 C   0  0  0  0  0  0
  -29.0696  -20.2311   18.4122 C   0  0  0  0  0  0
  -27.8618  -17.5589   23.6177 C   0  0  0  0  0  0
  -28.8734  -23.3189   19.9351 C   0  0  0  0  0  0
  -28.6951  -21.7252   20.4805 C   0  0  0  0  0  0
  -28.0054  -24.6597   20.4587 C   0  0  0  0  0  0
  -29.5124  -20.3725   19.8818 C   0  0  0  0  0  0
  -29.1312  -16.4091   21.9128 N   0  0  0  0  0  0
  -28.7151  -18.7674   21.6973 N   0  0  0  0  0  0
  -31.4768  -12.7011   19.2037 H   0  0  0  0  0  0
  -30.4169  -11.6055   20.0355 H   0  0  0  0  0  0
  -29.8413  -11.7347   17.5854 H   0  0  0  0  0  0
  -29.6258  -13.4639   17.7122 H   0  0  0  0  0  0
  -27.9357  -11.2813   18.9658 H   0  0  0  0  0  0
  -27.3966  -12.4726   17.8133 H   0  0  0  0  0  0
  -27.6020  -14.2588   19.4321 H   0  0  0  0  0  0
  -28.7443  -12.2648   21.4435 H   0  0  0  0  0  0
  -28.3650  -13.9295   21.7801 H   0  0  0  0  0  0
  -25.2785   -9.5687   22.4766 H   0  0  0  0  0  0
  -24.0017   -7.4634   22.7470 H   0  0  0  0  0  0
  -21.0870   -8.8784   19.8943 H   0  0  0  0  0  0
  -22.3727  -10.9683   19.6171 H   0  0  0  0  0  0
  -21.2003   -7.6159   23.9724 H   0  0  0  0  0  0
  -21.1477   -6.0530   25.9080 H   0  0  0  0  0  0
  -22.0600   -2.7622   23.2835 H   0  0  0  0  0  0
  -22.4095  -11.9840   22.4800 H   0  0  0  0  0  0
  -21.1090  -13.1207   22.2627 H   0  0  0  0  0  0
  -24.6541  -15.8523   20.5467 H   0  0  0  0  0  0
  -26.2875  -15.6418   20.1610 H   0  0  0  0  0  0
  -26.7288  -32.5290   23.1067 H   0  0  0  0  0  0
  -25.0175  -33.9638   25.0441 H   0  0  0  0  0  0
  -22.7529  -31.2886   21.3831 H   0  0  0  0  0  0
  -23.3748  -35.9539   23.3293 H   0  0  0  0  0  0
  -24.3565  -36.8870   22.2065 H   0  0  0  0  0  0
  -23.7198  -37.6418   23.6682 H   0  0  0  0  0  0
  -26.1613  -31.4695   20.6202 H   0  0  0  0  0  0
  -26.8751  -30.7670   22.0363 H   0  0  0  0  0  0
  -28.1372  -28.7987   21.2293 H   0  0  0  0  0  0
  -25.9330  -25.8569   18.9706 H   0  0  0  0  0  0
  -23.9811  -27.3055   18.9762 H   0  0  0  0  0  0
  -23.8225  -30.5680   19.4030 H   0  0  0  0  0  0
  -22.7926  -29.2371   19.8395 H   0  0  0  0  0  0
  -25.1281  -36.1874   25.0824 H   0  0  0  0  0  0
  -20.9985  -28.3263   24.1363 H   0  0  0  0  0  0
  -20.5647  -26.2311   23.3594 H   0  0  0  0  0  0
  -21.6644  -26.7417   22.1211 H   0  0  0  0  0  0
  -19.6900  -25.6286   21.1246 H   0  0  0  0  0  0
  -19.6688  -27.3164   20.6695 H   0  0  0  0  0  0
  -17.4210  -26.6660   21.4013 H   0  0  0  0  0  0
  -18.0348  -26.0072   22.9008 H   0  0  0  0  0  0
  -19.7955  -30.7284   24.2228 H   0  0  0  0  0  0
  -17.5027  -31.6266   24.5151 H   0  0  0  0  0  0
  -15.5357  -30.2953   23.7705 H   0  0  0  0  0  0
  -15.8686  -28.0807   22.7089 H   0  0  0  0  0  0
  -24.5889  -30.7087   25.7776 H   0  0  0  0  0  0
  -24.8877  -32.2908   26.4875 H   0  0  0  0  0  0
  -25.7990  -30.8936   27.0271 H   0  0  0  0  0  0
  -26.3052  -29.6648   24.1387 H   0  0  0  0  0  0
  -27.4046  -29.7327   25.4954 H   0  0  0  0  0  0
  -27.8931  -30.4208   23.9664 H   0  0  0  0  0  0
  -27.2711  -33.3648   26.2083 H   0  0  0  0  0  0
  -28.3908  -32.6848   25.0391 H   0  0  0  0  0  0
  -28.0703  -31.8483   26.5498 H   0  0  0  0  0  0
  -28.2595  -38.0070   24.7549 H   0  0  0  0  0  0
  -28.1067  -36.2613   24.6273 H   0  0  0  0  0  0
  -27.2284  -37.1373   25.8872 H   0  0  0  0  0  0
  -20.9493  -29.8791   21.6840 H   0  0  0  0  0  0
  -26.0140  -38.2797   24.1458 H   0  0  0  0  0  0
  -30.5964  -17.6209   19.1637 H   0  0  0  0  0  0
  -25.8641  -17.1281   24.3667 H   0  0  0  0  0  0
  -26.3292  -16.1607   22.9713 H   0  0  0  0  0  0
  -25.8837  -17.8524   22.7553 H   0  0  0  0  0  0
  -31.6132  -19.9889   19.4081 H   0  0  0  0  0  0
  -31.3665  -20.8183   20.9401 H   0  0  0  0  0  0
  -31.1973  -21.6907   19.4180 H   0  0  0  0  0  0
  -29.6665  -19.4870   17.8848 H   0  0  0  0  0  0
  -29.1635  -21.1681   17.8639 H   0  0  0  0  0  0
  -28.0282  -19.9122   18.3492 H   0  0  0  0  0  0
  -27.9123  -18.5387   24.0947 H   0  0  0  0  0  0
  -28.3479  -16.8678   24.3083 H   0  0  0  0  0  0
  -29.9249  -23.5688   20.0712 H   0  0  0  0  0  0
  -28.7364  -23.2902   18.8539 H   0  0  0  0  0  0
  -27.6323  -21.4899   20.4174 H   0  0  0  0  0  0
  -28.9011  -21.7500   21.5500 H   0  0  0  0  0  0
  -28.0357  -24.6109   21.5472 H   0  0  0  0  0  0
  -26.9655  -24.4402   20.2249 H   0  0  0  0  0  0
  1 25  1  0  0  0
  1 30  2  0  0  0
  1 72  1  0  0  0
  2  3  1  0  0  0
  2 25  1  0  0  0
  2 85  1  0  0  0
  2 86  1  0  0  0
  3  4  1  0  0  0
  3 87  1  0  0  0
  3 88  1  0  0  0
  4  5  1  0  0  0
  4 89  1  0  0  0
  4 90  1  0  0  0
  5  6  1  0  0  0
  5 26  1  0  0  0
  5 91  1  0  0  0
  6 25  1  0  0  0
  6 92  1  0  0  0
  6 93  1  0  0  0
  7  8  2  0  0  0
  7 26  1  0  0  0
  7 29  1  0  0  0
  8  9  1  0  0  0
  8 22  1  0  0  0
  9 10  1  0  0  0
  9 27  2  0  0  0
 10 11  2  0  0  0
 10 15  1  0  0  0
 11 12  1  0  0  0
 11 94  1  0  0  0
 12 13  2  0  0  0
 12 95  1  0  0  0
 13 14  1  0  0  0
 13 31  1  0  0  0
 14 15  2  0  0  0
 14 96  1  0  0  0
 15 97  1  0  0  0
 16 17  2  0  0  0
 16 21  1  0  0  0
 16 31  1  0  0  0
 17 18  1  0  0  0
 17 98  1  0  0  0
 18 19  2  0  0  0
 18 99  1  0  0  0
 19 20  1  0  0  0
 19 24  1  0  0  0
 20 21  2  0  0  0
 20100  1  0  0  0
 21 23  1  0  0  0
 22 28  1  0  0  0
 22 32  2  0  0  0
 26 27  1  0  0  0
 28101  1  0  0  0
 28102  1  0  0  0
 29103  1  0  0  0
 29104  1  0  0  0
 33 34  1  0  0  0
 33 66  1  0  0  0
 33 70  2  0  0  0
 34 36  1  0  0  0
 34 59  1  0  0  0
 34105  1  0  0  0
 35 44  2  0  0  0
 35 45  1  0  0  0
 35 68  1  0  0  0
 36 56  1  0  0  0
 36106  1  0  0  0
 37 39  1  0  0  0
 37 47  1  0  0  0
 37 66  1  0  0  0
 37107  1  0  0  0
 38 43  2  0  0  0
 38 46  1  0  0  0
 38 47  1  0  0  0
 39 64  1  0  0  0
 39 67  2  0  0  0
 40 52  1  0  0  0
 40 53  2  0  0  0
 40 58  1  0  0  0
 41108  1  0  0  0
 41109  1  0  0  0
 41110  1  0  0  0
 41 48  1  0  0  0
 42 43  1  0  0  0
 42 66  1  0  0  0
 42111  1  0  0  0
 42112  1  0  0  0
 43 44  1  0  0  0
 44113  1  0  0  0
 45 46  2  0  0  0
 45114  1  0  0  0
 46115  1  0  0  0
 47116  1  0  0  0
 47117  1  0  0  0
 48 56  1  0  0  0
 48 65  1  0  0  0
 48118  1  0  0  0
 49 50  1  0  0  0
 49 53  1  0  0  0
 49 64  1  0  0  0
 49119  1  0  0  0
 50 51  1  0  0  0
 50120  1  0  0  0
 50121  1  0  0  0
 51 52  1  0  0  0
 51122  1  0  0  0
 51123  1  0  0  0
 52124  1  0  0  0
 52125  1  0  0  0
 53 54  1  0  0  0
 54 55  2  0  0  0
 54126  1  0  0  0
 55 57  1  0  0  0
 55127  1  0  0  0
 56 69  2  0  0  0
 57 58  2  0  0  0
 57128  1  0  0  0
 58129  1  0  0  0
 59 60  1  0  0  0
 59 61  1  0  0  0
 59 62  1  0  0  0
 60130  1  0  0  0
 60131  1  0  0  0
 60132  1  0  0  0
 61133  1  0  0  0
 61134  1  0  0  0
 61135  1  0  0  0
 62136  1  0  0  0
 62137  1  0  0  0
 62138  1  0  0  0
 63 65  1  0  0  0
 63139  1  0  0  0
 63140  1  0  0  0
 63141  1  0  0  0
 64142  1  0  0  0
 65143  1  0  0  0
 68 81  1  0  0  0
 71 72  2  0  0  0
 71 73  1  0  0  0
 71144  1  0  0  0
 72 83  1  0  0  0
 73 82  1  0  0  0
 73 84  2  0  0  0
 74 78  1  0  0  0
 74 83  2  0  0  0
 74 84  1  0  0  0
 75 78  1  0  0  0
 75145  1  0  0  0
 75146  1  0  0  0
 75147  1  0  0  0
 76148  1  0  0  0
 76149  1  0  0  0
 76150  1  0  0  0
 76 82  1  0  0  0
 77 82  1  0  0  0
 77151  1  0  0  0
 77152  1  0  0  0
 77153  1  0  0  0
 78154  1  0  0  0
 78155  1  0  0  0
 79 80  1  0  0  0
 79 81  1  0  0  0
 79156  1  0  0  0
 79157  1  0  0  0
 80 82  1  0  0  0
 80158  1  0  0  0
 80159  1  0  0  0
 81160  1  0  0  0
 81161  1  0  0  0
M  ISO  4   1 100  68 101  72 100  81 101
M  END
> <chiral flag>
0

> <version>
0

> <s_m_source_file>
/data/baiqing/PycharmProjects/Reinvent-master-3.2/result/LINK_invent/BTK/process_docking_weight1_custom_sum_contain_oxygen_bond_distance_aromatic_linkinvent_7_9_3/rearranged_h_0075.sdf

> <i_m_source_file_index>
76

> <r_mmod_Potential_Energy-OPLS-2005>
95.2206039428711

> <r_mmod_Stretch_Energy-OPLS-2005>
249.787811279297

> <r_mmod_Bend_Energy-OPLS-2005>
245.061141967773

> <r_mmod_Torsional_Energy-OPLS-2005>
205.026992797852

> <r_mmod_Improper_Torsional_Energy-OPLS-2005>
3.3218731880188

> <r_mmod_Van_der_Waal_Energy-OPLS-2005>
130.555206298828

> <r_mmod_Electrostatic_Energy-OPLS-2005>
-719.823181152344

> <r_mmod_Solvation_Energy-OPLS-2005>
-193.362411499023

> <b_mmod_Minimization_Converged-OPLS-2005>
0

> <r_mmod_RMS_Derivative-OPLS-2005>
2.43032217025757

$$$$
77
                    3D
 Structure written by MMmdl.
172180  0  0  1  0            999 V2000
  -30.7765  -14.4892   20.6619 C   0  0  0  0  0  0
  -30.4135  -12.3454   19.4514 C   0  0  0  0  0  0
  -29.4985  -12.5296   18.2236 C   0  0  0  0  0  0
  -28.0217  -12.3693   18.6257 C   0  0  0  0  0  0
  -27.6621  -13.2118   19.8759 C   0  0  2  0  0  0
  -28.7033  -13.0071   21.0042 C   0  0  0  0  0  0
  -25.2466  -13.8110   20.5500 C   0  0  0  0  0  0
  -24.1793  -13.0385   20.9149 C   0  0  0  0  0  0
  -24.6402  -11.6878   20.8753 C   0  0  0  0  0  0
  -23.9071  -10.4271   21.0414 C   0  0  0  0  0  0
  -24.3616   -9.4192   21.9196 C   0  0  0  0  0  0
  -23.6290   -8.2232   22.0761 C   0  0  0  0  0  0
  -22.4274   -8.0274   21.3546 C   0  0  0  0  0  0
  -21.9910   -9.0246   20.4650 C   0  0  0  0  0  0
  -22.7244  -10.2124   20.3059 C   0  0  0  0  0  0
  -21.6849   -6.0732   22.5282 C   0  0  0  0  0  0
  -21.4013   -6.5637   23.8216 C   0  0  0  0  0  0
  -21.3658   -5.6791   24.9178 C   0  0  0  0  0  0
  -21.6042   -4.3053   24.7229 C   0  0  0  0  0  0
  -21.8820   -3.8143   23.4351 C   0  0  0  0  0  0
  -21.9197   -4.6962   22.3406 C   0  0  0  0  0  0
  -22.7822  -13.5188   21.1832 C   0  0  0  0  0  0
  -22.1662   -4.2149   21.0983 F   0  0  0  0  0  0
  -21.5629   -3.4535   25.7740 F   0  0  0  0  0  0
  -30.0381  -13.3420   20.4841 N   0  0  0  0  0  0
  -26.3008  -12.9349   20.3345 N   0  0  0  0  0  0
  -25.9346  -11.6504   20.5819 N   0  0  0  0  0  0
  -22.0484  -12.8193   22.0411 N   0  0  0  0  0  0
  -25.3892  -15.1794   20.3573 N   0  0  0  0  0  0
  -31.7836  -14.6388   19.9620 O   0  0  0  0  0  0
  -21.6634   -6.8873   21.4242 O   0  0  0  0  0  0
  -22.3497  -14.5501   20.6699 O   0  0  0  0  0  0
  -24.6172  -31.8647   23.2097 C   0  0  0  0  0  0
  -25.9046  -32.4811   23.8405 C   0  0  1  0  0  0
  -27.2356  -27.4050   20.0993 C   0  0  0  0  0  0
  -25.5877  -33.8612   24.2323 N   0  0  0  0  0  0
  -23.4082  -30.4890   21.5492 C   0  0  2  0  0  0
  -24.8561  -28.9525   20.1168 C   0  0  0  0  0  0
  -22.7437  -29.4630   22.4964 C   0  0  0  0  0  0
  -18.0275  -28.1358   22.8478 C   0  0  0  0  0  0
  -24.1479  -36.7327   23.2637 C   0  0  0  0  0  0
  -25.9416  -30.8218   21.3692 C   0  0  0  0  0  0
  -26.0195  -29.4549   20.7142 C   0  0  0  0  0  0
  -27.2131  -28.6899   20.6982 C   0  0  0  0  0  0
  -26.0545  -26.9350   19.4801 C   0  0  0  0  0  0
  -24.8699  -27.6933   19.4959 C   0  0  0  0  0  0
  -23.6202  -29.8224   20.1646 C   0  0  0  0  0  0
  -25.4098  -36.3108   24.0332 C   0  0  1  0  0  0
  -20.5872  -28.3641   23.1304 C   0  0  2  0  0  0
  -20.6759  -26.9371   22.5411 C   0  0  0  0  0  0
  -19.5741  -26.6366   21.5197 C   0  0  0  0  0  0
  -18.1917  -26.7907   22.1609 C   0  0  0  0  0  0
  -19.1528  -28.8817   23.2887 C   0  0  0  0  0  0
  -18.9456  -30.1422   23.8892 C   0  0  0  0  0  0
  -17.6458  -30.6563   24.0550 C   0  0  0  0  0  0
  -25.9023  -34.9469   23.5129 C   0  0  0  0  0  0
  -16.5348  -29.9068   23.6319 C   0  0  0  0  0  0
  -16.7267  -28.6485   23.0335 C   0  0  0  0  0  0
  -26.4467  -31.6604   25.0748 C   0  0  0  0  0  0
  -25.3739  -31.3705   26.1502 C   0  0  0  0  0  0
  -27.0317  -30.3046   24.6154 C   0  0  0  0  0  0
  -27.6032  -32.4341   25.7512 C   0  0  0  0  0  0
  -27.5580  -37.1807   24.8453 C   0  0  0  0  0  0
  -21.4156  -29.3016   22.3715 N   0  0  0  0  0  0
  -26.4280  -37.3794   23.9416 N   0  0  0  0  0  0
  -24.6738  -31.0738   22.1005 N   0  0  0  0  0  0
  -23.4200  -28.8160   23.3000 O   0  0  0  0  0  0
  -28.3936  -26.6433   20.0951 O   0  0  0  0  0  0
  -26.5597  -34.8919   22.4695 O   0  0  0  0  0  0
  -23.5353  -32.1397   23.7474 O   0  0  0  0  0  0
  -29.9463  -19.2032   20.3489 C   0  0  0  0  0  0
  -30.0854  -20.4179   20.9804 C   0  0  0  0  0  0
  -30.0250  -20.0582   22.3604 C   0  0  0  0  0  0
  -30.1562  -20.9494   23.5609 C   0  0  0  0  0  0
  -28.0265  -16.5774   21.5251 C   0  0  0  0  0  0
  -30.1172  -15.1448   23.1099 C   0  0  0  0  0  0
  -31.8887  -16.3524   21.9455 C   0  0  0  0  0  0
  -29.6698  -24.3370   18.6157 C   0  0  0  0  0  0
  -30.7433  -24.9374   20.8140 C   0  0  0  0  0  0
  -30.3180  -21.7993   20.3625 C   0  0  0  0  0  0
  -29.2315  -22.8803   20.6731 C   0  0  0  0  0  0
  -28.2592  -25.2548   20.4941 C   0  0  0  0  0  0
  -29.4940  -16.7690   21.1087 C   0  0  2  0  0  0
  -30.5020  -15.6723   21.6959 C   0  0  0  0  0  0
  -29.4848  -24.3453   20.1478 C   0  0  0  0  0  0
  -29.8311  -18.7571   22.5446 N   0  0  0  0  0  0
  -29.8100  -18.2059   21.3064 N   0  0  0  0  0  0
  -31.4599  -12.4093   19.1499 H   0  0  0  0  0  0
  -30.3032  -11.3368   19.8528 H   0  0  0  0  0  0
  -29.7553  -11.8042   17.4502 H   0  0  0  0  0  0
  -29.6596  -13.5162   17.7858 H   0  0  0  0  0  0
  -27.8439  -11.3123   18.8269 H   0  0  0  0  0  0
  -27.3706  -12.6318   17.7912 H   0  0  0  0  0  0
  -27.7019  -14.2547   19.5633 H   0  0  0  0  0  0
  -28.6942  -11.9676   21.3359 H   0  0  0  0  0  0
  -28.4217  -13.5697   21.8810 H   0  0  0  0  0  0
  -25.2758   -9.5678   22.4774 H   0  0  0  0  0  0
  -24.0001   -7.4625   22.7476 H   0  0  0  0  0  0
  -21.0846   -8.8764   19.8947 H   0  0  0  0  0  0
  -22.3703  -10.9662   19.6168 H   0  0  0  0  0  0
  -21.2000   -7.6147   23.9721 H   0  0  0  0  0  0
  -21.1477   -6.0517   25.9082 H   0  0  0  0  0  0
  -22.0601   -2.7607   23.2849 H   0  0  0  0  0  0
  -22.4097  -11.9852   22.4794 H   0  0  0  0  0  0
  -21.1108  -13.1229   22.2627 H   0  0  0  0  0  0
  -24.6096  -15.8205   20.4521 H   0  0  0  0  0  0
  -26.2360  -15.6276   20.0341 H   0  0  0  0  0  0
  -26.7118  -32.5520   23.1172 H   0  0  0  0  0  0
  -24.9999  -33.9763   25.0452 H   0  0  0  0  0  0
  -22.6962  -31.3051   21.4082 H   0  0  0  0  0  0
  -23.3732  -35.9673   23.3295 H   0  0  0  0  0  0
  -24.3562  -36.8965   22.2051 H   0  0  0  0  0  0
  -23.7248  -37.6532   23.6666 H   0  0  0  0  0  0
  -26.0612  -31.5884   20.6022 H   0  0  0  0  0  0
  -26.8265  -30.8737   21.9919 H   0  0  0  0  0  0
  -28.1130  -29.0728   21.1591 H   0  0  0  0  0  0
  -26.0376  -25.9874   18.9621 H   0  0  0  0  0  0
  -23.9803  -27.3062   19.0177 H   0  0  0  0  0  0
  -23.7336  -30.5967   19.4047 H   0  0  0  0  0  0
  -22.7437  -29.2441   19.8663 H   0  0  0  0  0  0
  -25.1283  -36.1959   25.0826 H   0  0  0  0  0  0
  -20.9956  -28.3202   24.1430 H   0  0  0  0  0  0
  -20.5629  -26.2248   23.3599 H   0  0  0  0  0  0
  -21.6631  -26.7380   22.1225 H   0  0  0  0  0  0
  -19.6892  -25.6283   21.1217 H   0  0  0  0  0  0
  -19.6688  -27.3179   20.6728 H   0  0  0  0  0  0
  -17.4190  -26.6639   21.4013 H   0  0  0  0  0  0
  -18.0313  -26.0048   22.8998 H   0  0  0  0  0  0
  -19.7933  -30.7224   24.2269 H   0  0  0  0  0  0
  -17.5018  -31.6247   24.5144 H   0  0  0  0  0  0
  -15.5342  -30.2963   23.7650 H   0  0  0  0  0  0
  -15.8664  -28.0809   22.7047 H   0  0  0  0  0  0
  -24.5912  -30.7038   25.7858 H   0  0  0  0  0  0
  -24.8918  -32.2851   26.4960 H   0  0  0  0  0  0
  -25.8111  -30.8881   27.0255 H   0  0  0  0  0  0
  -26.2875  -29.6790   24.1202 H   0  0  0  0  0  0
  -27.4070  -29.7303   25.4637 H   0  0  0  0  0  0
  -27.8726  -30.4372   23.9342 H   0  0  0  0  0  0
  -27.2643  -33.3640   26.2094 H   0  0  0  0  0  0
  -28.3837  -32.6899   25.0334 H   0  0  0  0  0  0
  -28.0704  -31.8464   26.5425 H   0  0  0  0  0  0
  -28.2575  -38.0127   24.7527 H   0  0  0  0  0  0
  -28.1103  -36.2655   24.6247 H   0  0  0  0  0  0
  -27.2298  -37.1423   25.8856 H   0  0  0  0  0  0
  -20.9301  -29.8781   21.6986 H   0  0  0  0  0  0
  -26.0169  -38.2873   24.1436 H   0  0  0  0  0  0
  -29.9224  -18.9662   19.2944 H   0  0  0  0  0  0
  -30.7475  -21.8360   23.3322 H   0  0  0  0  0  0
  -30.6482  -20.4364   24.3878 H   0  0  0  0  0  0
  -29.1795  -21.2837   23.9104 H   0  0  0  0  0  0
  -27.7062  -15.5512   21.4224 H   0  0  0  0  0  0
  -27.3681  -17.1985   20.9178 H   0  0  0  0  0  0
  -27.8613  -16.8605   22.5648 H   0  0  0  0  0  0
  -30.3654  -15.8676   23.8875 H   0  0  0  0  0  0
  -30.6531  -14.2265   23.3534 H   0  0  0  0  0  0
  -29.0597  -14.9514   23.2558 H   0  0  0  0  0  0
  -31.8620  -17.0862   22.7501 H   0  0  0  0  0  0
  -32.2519  -16.8777   21.0606 H   0  0  0  0  0  0
  -32.6519  -15.6248   22.2282 H   0  0  0  0  0  0
  -30.5516  -23.7728   18.3123 H   0  0  0  0  0  0
  -29.7966  -25.3476   18.2251 H   0  0  0  0  0  0
  -28.8073  -23.9003   18.1106 H   0  0  0  0  0  0
  -31.6464  -24.3880   20.5477 H   0  0  0  0  0  0
  -30.6596  -24.9305   21.9011 H   0  0  0  0  0  0
  -30.9046  -25.9719   20.5079 H   0  0  0  0  0  0
  -30.4110  -21.6995   19.2811 H   0  0  0  0  0  0
  -31.2879  -22.1695   20.6917 H   0  0  0  0  0  0
  -29.0920  -22.9309   21.7531 H   0  0  0  0  0  0
  -28.2795  -22.5229   20.2783 H   0  0  0  0  0  0
  -28.0946  -25.2431   21.5729 H   0  0  0  0  0  0
  -27.3769  -24.7875   20.0608 H   0  0  0  0  0  0
  -29.5078  -16.6304   20.0259 H   0  0  0  0  0  0
  1 25  1  0  0  0
  1 30  2  0  0  0
  1 84  1  0  0  0
  2  3  1  0  0  0
  2 25  1  0  0  0
  2 88  1  0  0  0
  2 89  1  0  0  0
  3  4  1  0  0  0
  3 90  1  0  0  0
  3 91  1  0  0  0
  4  5  1  0  0  0
  4 92  1  0  0  0
  4 93  1  0  0  0
  5  6  1  0  0  0
  5 26  1  0  0  0
  5 94  1  0  0  0
  6 25  1  0  0  0
  6 95  1  0  0  0
  6 96  1  0  0  0
  7  8  2  0  0  0
  7 26  1  0  0  0
  7 29  1  0  0  0
  8  9  1  0  0  0
  8 22  1  0  0  0
  9 10  1  0  0  0
  9 27  2  0  0  0
 10 11  2  0  0  0
 10 15  1  0  0  0
 11 12  1  0  0  0
 11 97  1  0  0  0
 12 13  2  0  0  0
 12 98  1  0  0  0
 13 14  1  0  0  0
 13 31  1  0  0  0
 14 15  2  0  0  0
 14 99  1  0  0  0
 15100  1  0  0  0
 16 17  2  0  0  0
 16 21  1  0  0  0
 16 31  1  0  0  0
 17 18  1  0  0  0
 17101  1  0  0  0
 18 19  2  0  0  0
 18102  1  0  0  0
 19 20  1  0  0  0
 19 24  1  0  0  0
 20 21  2  0  0  0
 20103  1  0  0  0
 21 23  1  0  0  0
 22 28  1  0  0  0
 22 32  2  0  0  0
 26 27  1  0  0  0
 28104  1  0  0  0
 28105  1  0  0  0
 29106  1  0  0  0
 29107  1  0  0  0
 33 34  1  0  0  0
 33 66  1  0  0  0
 33 70  2  0  0  0
 34 36  1  0  0  0
 34 59  1  0  0  0
 34108  1  0  0  0
 35 44  2  0  0  0
 35 45  1  0  0  0
 35 68  1  0  0  0
 36 56  1  0  0  0
 36109  1  0  0  0
 37 39  1  0  0  0
 37 47  1  0  0  0
 37 66  1  0  0  0
 37110  1  0  0  0
 38 43  2  0  0  0
 38 46  1  0  0  0
 38 47  1  0  0  0
 39 64  1  0  0  0
 39 67  2  0  0  0
 40 52  1  0  0  0
 40 53  2  0  0  0
 40 58  1  0  0  0
 41111  1  0  0  0
 41112  1  0  0  0
 41113  1  0  0  0
 41 48  1  0  0  0
 42 43  1  0  0  0
 42 66  1  0  0  0
 42114  1  0  0  0
 42115  1  0  0  0
 43 44  1  0  0  0
 44116  1  0  0  0
 45 46  2  0  0  0
 45117  1  0  0  0
 46118  1  0  0  0
 47119  1  0  0  0
 47120  1  0  0  0
 48 56  1  0  0  0
 48 65  1  0  0  0
 48121  1  0  0  0
 49 50  1  0  0  0
 49 53  1  0  0  0
 49 64  1  0  0  0
 49122  1  0  0  0
 50 51  1  0  0  0
 50123  1  0  0  0
 50124  1  0  0  0
 51 52  1  0  0  0
 51125  1  0  0  0
 51126  1  0  0  0
 52127  1  0  0  0
 52128  1  0  0  0
 53 54  1  0  0  0
 54 55  2  0  0  0
 54129  1  0  0  0
 55 57  1  0  0  0
 55130  1  0  0  0
 56 69  2  0  0  0
 57 58  2  0  0  0
 57131  1  0  0  0
 58132  1  0  0  0
 59 60  1  0  0  0
 59 61  1  0  0  0
 59 62  1  0  0  0
 60133  1  0  0  0
 60134  1  0  0  0
 60135  1  0  0  0
 61136  1  0  0  0
 61137  1  0  0  0
 61138  1  0  0  0
 62139  1  0  0  0
 62140  1  0  0  0
 62141  1  0  0  0
 63 65  1  0  0  0
 63142  1  0  0  0
 63143  1  0  0  0
 63144  1  0  0  0
 64145  1  0  0  0
 65146  1  0  0  0
 68 82  1  0  0  0
 71 72  2  0  0  0
 71 87  1  0  0  0
 71147  1  0  0  0
 72 73  1  0  0  0
 72 80  1  0  0  0
 73 74  1  0  0  0
 73 86  2  0  0  0
 74148  1  0  0  0
 74149  1  0  0  0
 74150  1  0  0  0
 75151  1  0  0  0
 75152  1  0  0  0
 75153  1  0  0  0
 75 83  1  0  0  0
 76154  1  0  0  0
 76155  1  0  0  0
 76156  1  0  0  0
 76 84  1  0  0  0
 77 84  1  0  0  0
 77157  1  0  0  0
 77158  1  0  0  0
 77159  1  0  0  0
 78160  1  0  0  0
 78161  1  0  0  0
 78162  1  0  0  0
 78 85  1  0  0  0
 79 85  1  0  0  0
 79163  1  0  0  0
 79164  1  0  0  0
 79165  1  0  0  0
 80 81  1  0  0  0
 80166  1  0  0  0
 80167  1  0  0  0
 81 85  1  0  0  0
 81168  1  0  0  0
 81169  1  0  0  0
 82 85  1  0  0  0
 82170  1  0  0  0
 82171  1  0  0  0
 83 84  1  0  0  0
 83 87  1  0  0  0
 83172  1  0  0  0
 86 87  1  0  0  0
M  ISO  4   1 100  68 101  82 101  84 100
M  END
> <chiral flag>
0

> <version>
0

> <s_m_source_file>
/data/baiqing/PycharmProjects/Reinvent-master-3.2/result/LINK_invent/BTK/process_docking_weight1_custom_sum_contain_oxygen_bond_distance_aromatic_linkinvent_7_9_3/rearranged_h_0075.sdf

> <i_m_source_file_index>
77

> <r_mmod_Potential_Energy-OPLS-2005>
67.6042861938477

> <r_mmod_Stretch_Energy-OPLS-2005>
61.6244239807129

> <r_mmod_Bend_Energy-OPLS-2005>
141.955261230469

> <r_mmod_Torsional_Energy-OPLS-2005>
229.860946655273

> <r_mmod_Improper_Torsional_Energy-OPLS-2005>
2.4480516910553

> <r_mmod_Van_der_Waal_Energy-OPLS-2005>
143.836090087891

> <r_mmod_Electrostatic_Energy-OPLS-2005>
-349.22412109375

> <r_mmod_Solvation_Energy-OPLS-2005>
-179.99006652832

> <b_mmod_Minimization_Converged-OPLS-2005>
0

> <r_mmod_RMS_Derivative-OPLS-2005>
1.1575071811676

$$$$
78
                    3D
 Structure written by MMmdl.
170178  0  0  1  0            999 V2000
  -30.7707  -14.4596   20.6526 C   0  0  0  0  0  0
  -30.4076  -12.3221   19.4367 C   0  0  0  0  0  0
  -29.4928  -12.5256   18.2136 C   0  0  0  0  0  0
  -28.0154  -12.3741   18.6149 C   0  0  0  0  0  0
  -27.6613  -13.2057   19.8740 C   0  0  2  0  0  0
  -28.7022  -12.9948   20.9959 C   0  0  0  0  0  0
  -25.2566  -13.8137   20.5597 C   0  0  0  0  0  0
  -24.1847  -13.0414   20.9182 C   0  0  0  0  0  0
  -24.6416  -11.6893   20.8761 C   0  0  0  0  0  0
  -23.9098  -10.4277   21.0434 C   0  0  0  0  0  0
  -24.3640   -9.4185   21.9185 C   0  0  0  0  0  0
  -23.6299   -8.2228   22.0759 C   0  0  0  0  0  0
  -22.4281   -8.0271   21.3557 C   0  0  0  0  0  0
  -21.9934   -9.0257   20.4653 C   0  0  0  0  0  0
  -22.7285  -10.2119   20.3062 C   0  0  0  0  0  0
  -21.6848   -6.0727   22.5285 C   0  0  0  0  0  0
  -21.4015   -6.5633   23.8207 C   0  0  0  0  0  0
  -21.3669   -5.6800   24.9176 C   0  0  0  0  0  0
  -21.6055   -4.3061   24.7245 C   0  0  0  0  0  0
  -21.8821   -3.8147   23.4370 C   0  0  0  0  0  0
  -21.9198   -4.6953   22.3411 C   0  0  0  0  0  0
  -22.7874  -13.5222   21.1849 C   0  0  0  0  0  0
  -22.1671   -4.2123   21.0992 F   0  0  0  0  0  0
  -21.5640   -3.4557   25.7768 F   0  0  0  0  0  0
  -30.0365  -13.3151   20.4697 N   0  0  0  0  0  0
  -26.3028  -12.9315   20.3354 N   0  0  0  0  0  0
  -25.9354  -11.6488   20.5815 N   0  0  0  0  0  0
  -22.0520  -12.8212   22.0421 N   0  0  0  0  0  0
  -25.4203  -15.1825   20.3794 N   0  0  0  0  0  0
  -31.7987  -14.6113   19.9834 O   0  0  0  0  0  0
  -21.6641   -6.8867   21.4247 O   0  0  0  0  0  0
  -22.3555  -14.5510   20.6680 O   0  0  0  0  0  0
  -24.6193  -31.8645   23.2121 C   0  0  0  0  0  0
  -25.9084  -32.4802   23.8393 C   0  0  1  0  0  0
  -27.2239  -27.3953   20.0837 C   0  0  0  0  0  0
  -25.5924  -33.8591   24.2338 N   0  0  0  0  0  0
  -23.4062  -30.4946   21.5526 C   0  0  2  0  0  0
  -24.8473  -28.9631   20.1082 C   0  0  0  0  0  0
  -22.7414  -29.4676   22.4972 C   0  0  0  0  0  0
  -18.0286  -28.1380   22.8484 C   0  0  0  0  0  0
  -24.1480  -36.7317   23.2639 C   0  0  0  0  0  0
  -25.9412  -30.8156   21.3737 C   0  0  0  0  0  0
  -26.0116  -29.4490   20.7174 C   0  0  0  0  0  0
  -27.1964  -28.6694   20.7102 C   0  0  0  0  0  0
  -26.0400  -26.9558   19.4388 C   0  0  0  0  0  0
  -24.8610  -27.7171   19.4651 C   0  0  0  0  0  0
  -23.6111  -29.8337   20.1646 C   0  0  0  0  0  0
  -25.4097  -36.3102   24.0348 C   0  0  1  0  0  0
  -20.5880  -28.3677   23.1298 C   0  0  2  0  0  0
  -20.6783  -26.9409   22.5403 C   0  0  0  0  0  0
  -19.5765  -26.6397   21.5194 C   0  0  0  0  0  0
  -18.1941  -26.7929   22.1604 C   0  0  0  0  0  0
  -19.1532  -28.8841   23.2894 C   0  0  0  0  0  0
  -18.9456  -30.1450   23.8908 C   0  0  0  0  0  0
  -17.6455  -30.6585   24.0560 C   0  0  0  0  0  0
  -25.9019  -34.9461   23.5133 C   0  0  0  0  0  0
  -16.5354  -29.9076   23.6333 C   0  0  0  0  0  0
  -16.7273  -28.6496   23.0350 C   0  0  0  0  0  0
  -26.4490  -31.6574   25.0724 C   0  0  0  0  0  0
  -25.3751  -31.3643   26.1466 C   0  0  0  0  0  0
  -27.0354  -30.3029   24.6123 C   0  0  0  0  0  0
  -27.6084  -32.4270   25.7477 C   0  0  0  0  0  0
  -27.5582  -37.1812   24.8468 C   0  0  0  0  0  0
  -21.4141  -29.3037   22.3689 N   0  0  0  0  0  0
  -26.4294  -37.3792   23.9410 N   0  0  0  0  0  0
  -24.6747  -31.0721   22.1036 N   0  0  0  0  0  0
  -23.4167  -28.8226   23.3030 O   0  0  0  0  0  0
  -28.3848  -26.6289   20.1255 O   0  0  0  0  0  0
  -26.5565  -34.8923   22.4684 O   0  0  0  0  0  0
  -23.5388  -32.1411   23.7511 O   0  0  0  0  0  0
  -29.5423  -19.0190   21.6577 C   0  0  0  0  0  0
  -29.5174  -20.3346   21.1371 C   0  0  0  0  0  0
  -29.3484  -17.9338   20.7684 C   0  0  0  0  0  0
  -29.3014  -20.5024   19.7511 C   0  0  0  0  0  0
  -27.9750  -16.4623   22.2669 C   0  0  0  0  0  0
  -29.5266  -21.8478   17.6120 C   0  0  0  0  0  0
  -27.5462  -22.1675   19.0948 C   0  0  0  0  0  0
  -30.3709  -15.0661   23.1271 C   0  0  0  0  0  0
  -31.6802  -16.5673   21.7255 C   0  0  0  0  0  0
  -29.2305  -24.2791   20.5032 C   0  0  0  0  0  0
  -29.9005  -23.0768   19.7523 C   0  0  0  0  0  0
  -28.3522  -25.2518   19.6693 C   0  0  0  0  0  0
  -29.1477  -16.4743   21.2560 C   0  0  2  0  0  0
  -29.0651  -21.8983   19.0923 C   0  0  0  0  0  0
  -30.4341  -15.6263   21.6758 C   0  0  0  0  0  0
  -29.1668  -18.1580   19.4413 N   0  0  0  0  0  0
  -29.1264  -19.4072   18.9555 N   0  0  0  0  0  0
  -31.4536  -12.3861   19.1348 H   0  0  0  0  0  0
  -30.2914  -11.3100   19.8292 H   0  0  0  0  0  0
  -29.7409  -11.8086   17.4296 H   0  0  0  0  0  0
  -29.6620  -13.5161   17.7885 H   0  0  0  0  0  0
  -27.8238  -11.3169   18.8026 H   0  0  0  0  0  0
  -27.3673  -12.6572   17.7847 H   0  0  0  0  0  0
  -27.7009  -14.2486   19.5687 H   0  0  0  0  0  0
  -28.6783  -11.9590   21.3389 H   0  0  0  0  0  0
  -28.4302  -13.5795   21.8597 H   0  0  0  0  0  0
  -25.2770   -9.5637   22.4773 H   0  0  0  0  0  0
  -23.9998   -7.4635   22.7496 H   0  0  0  0  0  0
  -21.0853   -8.8815   19.8962 H   0  0  0  0  0  0
  -22.3769  -10.9670   19.6176 H   0  0  0  0  0  0
  -21.2006   -7.6137   23.9696 H   0  0  0  0  0  0
  -21.1497   -6.0534   25.9071 H   0  0  0  0  0  0
  -22.0592   -2.7604   23.2896 H   0  0  0  0  0  0
  -22.4155  -11.9859   22.4754 H   0  0  0  0  0  0
  -21.1172  -13.1255   22.2735 H   0  0  0  0  0  0
  -24.6386  -15.8254   20.4355 H   0  0  0  0  0  0
  -26.2582  -15.6135   20.0117 H   0  0  0  0  0  0
  -26.7149  -32.5502   23.1140 H   0  0  0  0  0  0
  -25.0091  -33.9712   25.0502 H   0  0  0  0  0  0
  -22.6993  -31.3157   21.4180 H   0  0  0  0  0  0
  -23.3734  -35.9657   23.3292 H   0  0  0  0  0  0
  -24.3584  -36.8934   22.2056 H   0  0  0  0  0  0
  -23.7237  -37.6531   23.6637 H   0  0  0  0  0  0
  -26.0611  -31.5823   20.6073 H   0  0  0  0  0  0
  -26.8274  -30.8662   21.9946 H   0  0  0  0  0  0
  -28.0890  -29.0343   21.1998 H   0  0  0  0  0  0
  -25.9855  -26.0287   18.8907 H   0  0  0  0  0  0
  -23.9741  -27.3470   18.9685 H   0  0  0  0  0  0
  -23.7150  -30.6117   19.4074 H   0  0  0  0  0  0
  -22.7300  -29.2582   19.8736 H   0  0  0  0  0  0
  -25.1270  -36.1965   25.0846 H   0  0  0  0  0  0
  -20.9987  -28.3261   24.1411 H   0  0  0  0  0  0
  -20.5696  -26.2272   23.3583 H   0  0  0  0  0  0
  -21.6651  -26.7454   22.1189 H   0  0  0  0  0  0
  -19.6925  -25.6308   21.1219 H   0  0  0  0  0  0
  -19.6724  -27.3202   20.6720 H   0  0  0  0  0  0
  -17.4209  -26.6678   21.4009 H   0  0  0  0  0  0
  -18.0351  -26.0067   22.8999 H   0  0  0  0  0  0
  -19.7930  -30.7261   24.2284 H   0  0  0  0  0  0
  -17.5009  -31.6263   24.5149 H   0  0  0  0  0  0
  -15.5346  -30.2967   23.7667 H   0  0  0  0  0  0
  -15.8674  -28.0811   22.7057 H   0  0  0  0  0  0
  -24.6009  -30.6878   25.7821 H   0  0  0  0  0  0
  -24.8820  -32.2754   26.4855 H   0  0  0  0  0  0
  -25.8138  -30.8901   27.0256 H   0  0  0  0  0  0
  -26.2922  -29.6743   24.1212 H   0  0  0  0  0  0
  -27.4171  -29.7311   25.4591 H   0  0  0  0  0  0
  -27.8723  -30.4356   23.9267 H   0  0  0  0  0  0
  -27.2761  -33.3602   26.2026 H   0  0  0  0  0  0
  -28.3912  -32.6755   25.0297 H   0  0  0  0  0  0
  -28.0715  -31.8377   26.5398 H   0  0  0  0  0  0
  -28.2604  -38.0107   24.7516 H   0  0  0  0  0  0
  -28.1082  -36.2643   24.6289 H   0  0  0  0  0  0
  -27.2297  -37.1458   25.8872 H   0  0  0  0  0  0
  -20.9290  -29.8720   21.6887 H   0  0  0  0  0  0
  -26.0188  -38.2883   24.1388 H   0  0  0  0  0  0
  -29.6634  -18.8559   22.7187 H   0  0  0  0  0  0
  -29.6070  -21.1872   21.7934 H   0  0  0  0  0  0
  -27.1137  -16.9889   21.8535 H   0  0  0  0  0  0
  -28.2411  -16.9649   23.1974 H   0  0  0  0  0  0
  -27.6176  -15.4654   22.5110 H   0  0  0  0  0  0
  -28.9755  -21.1102   17.0280 H   0  0  0  0  0  0
  -30.5842  -21.5914   17.5392 H   0  0  0  0  0  0
  -29.3805  -22.8058   17.1116 H   0  0  0  0  0  0
  -27.0026  -21.3282   18.6602 H   0  0  0  0  0  0
  -27.2851  -23.0395   18.4967 H   0  0  0  0  0  0
  -27.1621  -22.3055   20.1063 H   0  0  0  0  0  0
  -30.4466  -15.8694   23.8611 H   0  0  0  0  0  0
  -31.1996  -14.3862   23.3261 H   0  0  0  0  0  0
  -29.4654  -14.5229   23.3748 H   0  0  0  0  0  0
  -31.5653  -17.3693   22.4521 H   0  0  0  0  0  0
  -31.8815  -17.0306   20.7579 H   0  0  0  0  0  0
  -32.5872  -16.0328   22.0143 H   0  0  0  0  0  0
  -30.0413  -24.8729   20.9253 H   0  0  0  0  0  0
  -28.6695  -23.9134   21.3645 H   0  0  0  0  0  0
  -30.6481  -22.6480   20.4189 H   0  0  0  0  0  0
  -30.5233  -23.5404   18.9869 H   0  0  0  0  0  0
  -27.3557  -24.8288   19.7481 H   0  0  0  0  0  0
  -28.6433  -25.2303   18.6183 H   0  0  0  0  0  0
  -28.7480  -15.9724   20.3777 H   0  0  0  0  0  0
  1 25  1  0  0  0
  1 30  2  0  0  0
  1 85  1  0  0  0
  2  3  1  0  0  0
  2 25  1  0  0  0
  2 88  1  0  0  0
  2 89  1  0  0  0
  3  4  1  0  0  0
  3 90  1  0  0  0
  3 91  1  0  0  0
  4  5  1  0  0  0
  4 92  1  0  0  0
  4 93  1  0  0  0
  5  6  1  0  0  0
  5 26  1  0  0  0
  5 94  1  0  0  0
  6 25  1  0  0  0
  6 95  1  0  0  0
  6 96  1  0  0  0
  7  8  2  0  0  0
  7 26  1  0  0  0
  7 29  1  0  0  0
  8  9  1  0  0  0
  8 22  1  0  0  0
  9 10  1  0  0  0
  9 27  2  0  0  0
 10 11  2  0  0  0
 10 15  1  0  0  0
 11 12  1  0  0  0
 11 97  1  0  0  0
 12 13  2  0  0  0
 12 98  1  0  0  0
 13 14  1  0  0  0
 13 31  1  0  0  0
 14 15  2  0  0  0
 14 99  1  0  0  0
 15100  1  0  0  0
 16 17  2  0  0  0
 16 21  1  0  0  0
 16 31  1  0  0  0
 17 18  1  0  0  0
 17101  1  0  0  0
 18 19  2  0  0  0
 18102  1  0  0  0
 19 20  1  0  0  0
 19 24  1  0  0  0
 20 21  2  0  0  0
 20103  1  0  0  0
 21 23  1  0  0  0
 22 28  1  0  0  0
 22 32  2  0  0  0
 26 27  1  0  0  0
 28104  1  0  0  0
 28105  1  0  0  0
 29106  1  0  0  0
 29107  1  0  0  0
 33 34  1  0  0  0
 33 66  1  0  0  0
 33 70  2  0  0  0
 34 36  1  0  0  0
 34 59  1  0  0  0
 34108  1  0  0  0
 35 44  2  0  0  0
 35 45  1  0  0  0
 35 68  1  0  0  0
 36 56  1  0  0  0
 36109  1  0  0  0
 37 39  1  0  0  0
 37 47  1  0  0  0
 37 66  1  0  0  0
 37110  1  0  0  0
 38 43  2  0  0  0
 38 46  1  0  0  0
 38 47  1  0  0  0
 39 64  1  0  0  0
 39 67  2  0  0  0
 40 52  1  0  0  0
 40 53  2  0  0  0
 40 58  1  0  0  0
 41111  1  0  0  0
 41112  1  0  0  0
 41113  1  0  0  0
 41 48  1  0  0  0
 42 43  1  0  0  0
 42 66  1  0  0  0
 42114  1  0  0  0
 42115  1  0  0  0
 43 44  1  0  0  0
 44116  1  0  0  0
 45 46  2  0  0  0
 45117  1  0  0  0
 46118  1  0  0  0
 47119  1  0  0  0
 47120  1  0  0  0
 48 56  1  0  0  0
 48 65  1  0  0  0
 48121  1  0  0  0
 49 50  1  0  0  0
 49 53  1  0  0  0
 49 64  1  0  0  0
 49122  1  0  0  0
 50 51  1  0  0  0
 50123  1  0  0  0
 50124  1  0  0  0
 51 52  1  0  0  0
 51125  1  0  0  0
 51126  1  0  0  0
 52127  1  0  0  0
 52128  1  0  0  0
 53 54  1  0  0  0
 54 55  2  0  0  0
 54129  1  0  0  0
 55 57  1  0  0  0
 55130  1  0  0  0
 56 69  2  0  0  0
 57 58  2  0  0  0
 57131  1  0  0  0
 58132  1  0  0  0
 59 60  1  0  0  0
 59 61  1  0  0  0
 59 62  1  0  0  0
 60133  1  0  0  0
 60134  1  0  0  0
 60135  1  0  0  0
 61136  1  0  0  0
 61137  1  0  0  0
 61138  1  0  0  0
 62139  1  0  0  0
 62140  1  0  0  0
 62141  1  0  0  0
 63 65  1  0  0  0
 63142  1  0  0  0
 63143  1  0  0  0
 63144  1  0  0  0
 64145  1  0  0  0
 65146  1  0  0  0
 68 82  1  0  0  0
 71 72  2  0  0  0
 71 73  1  0  0  0
 71147  1  0  0  0
 72 74  1  0  0  0
 72148  1  0  0  0
 73 83  1  0  0  0
 73 86  2  0  0  0
 74 84  1  0  0  0
 74 87  2  0  0  0
 75149  1  0  0  0
 75150  1  0  0  0
 75151  1  0  0  0
 75 83  1  0  0  0
 76152  1  0  0  0
 76153  1  0  0  0
 76154  1  0  0  0
 76 84  1  0  0  0
 77 84  1  0  0  0
 77155  1  0  0  0
 77156  1  0  0  0
 77157  1  0  0  0
 78158  1  0  0  0
 78159  1  0  0  0
 78160  1  0  0  0
 78 85  1  0  0  0
 79 85  1  0  0  0
 79161  1  0  0  0
 79162  1  0  0  0
 79163  1  0  0  0
 80 81  1  0  0  0
 80 82  1  0  0  0
 80164  1  0  0  0
 80165  1  0  0  0
 81 84  1  0  0  0
 81166  1  0  0  0
 81167  1  0  0  0
 82168  1  0  0  0
 82169  1  0  0  0
 83 85  1  0  0  0
 83170  1  0  0  0
 86 87  1  0  0  0
M  ISO  4   1 100  68 101  82 101  85 100
M  END
> <chiral flag>
0

> <version>
0

> <s_m_source_file>
/data/baiqing/PycharmProjects/Reinvent-master-3.2/result/LINK_invent/BTK/process_docking_weight1_custom_sum_contain_oxygen_bond_distance_aromatic_linkinvent_7_9_3/rearranged_h_0075.sdf

> <i_m_source_file_index>
78

> <r_mmod_Potential_Energy-OPLS-2005>
135.800506591797

> <r_mmod_Stretch_Energy-OPLS-2005>
66.3006210327148

> <r_mmod_Bend_Energy-OPLS-2005>
160.035415649414

> <r_mmod_Torsional_Energy-OPLS-2005>
208.404281616211

> <r_mmod_Improper_Torsional_Energy-OPLS-2005>
3.21208000183105

> <r_mmod_Van_der_Waal_Energy-OPLS-2005>
186.086288452148

> <r_mmod_Electrostatic_Energy-OPLS-2005>
-307.775634765625

> <r_mmod_Solvation_Energy-OPLS-2005>
-197.351959228516

> <b_mmod_Minimization_Converged-OPLS-2005>
0

> <r_mmod_RMS_Derivative-OPLS-2005>
2.73791790008545

$$$$
79
                    3D
 Structure written by MMmdl.
167175  0  0  1  0            999 V2000
  -30.5698  -14.7451   20.5186 C   0  0  0  0  0  0
  -30.4482  -12.4644   19.4660 C   0  0  0  0  0  0
  -29.5169  -12.5179   18.2323 C   0  0  0  0  0  0
  -28.0418  -12.3276   18.6405 C   0  0  0  0  0  0
  -27.6459  -13.2157   19.8471 C   0  0  2  0  0  0
  -28.6859  -13.1124   20.9818 C   0  0  0  0  0  0
  -25.2575  -13.8168   20.5634 C   0  0  0  0  0  0
  -24.1866  -13.0455   20.9265 C   0  0  0  0  0  0
  -24.6408  -11.6914   20.8785 C   0  0  0  0  0  0
  -23.9065  -10.4300   21.0435 C   0  0  0  0  0  0
  -24.3616   -9.4205   21.9199 C   0  0  0  0  0  0
  -23.6293   -8.2238   22.0756 C   0  0  0  0  0  0
  -22.4275   -8.0282   21.3544 C   0  0  0  0  0  0
  -21.9916   -9.0263   20.4651 C   0  0  0  0  0  0
  -22.7243  -10.2145   20.3075 C   0  0  0  0  0  0
  -21.6855   -6.0735   22.5276 C   0  0  0  0  0  0
  -21.4014   -6.5639   23.8210 C   0  0  0  0  0  0
  -21.3658   -5.6792   24.9173 C   0  0  0  0  0  0
  -21.6044   -4.3056   24.7223 C   0  0  0  0  0  0
  -21.8820   -3.8145   23.4346 C   0  0  0  0  0  0
  -21.9195   -4.6961   22.3402 C   0  0  0  0  0  0
  -22.7891  -13.5263   21.1891 C   0  0  0  0  0  0
  -22.1663   -4.2146   21.0978 F   0  0  0  0  0  0
  -21.5629   -3.4541   25.7737 F   0  0  0  0  0  0
  -29.9896  -13.4964   20.4246 N   0  0  0  0  0  0
  -26.2953  -12.9322   20.3199 N   0  0  0  0  0  0
  -25.9316  -11.6493   20.5721 N   0  0  0  0  0  0
  -22.0491  -12.8253   22.0407 N   0  0  0  0  0  0
  -25.4296  -15.1867   20.3759 N   0  0  0  0  0  0
  -31.7364  -14.8857   20.1364 O   0  0  0  0  0  0
  -21.6641   -6.8879   21.4237 O   0  0  0  0  0  0
  -22.3639  -14.5589   20.6728 O   0  0  0  0  0  0
  -24.6300  -31.8562   23.1978 C   0  0  0  0  0  0
  -25.9130  -32.4761   23.8326 C   0  0  1  0  0  0
  -27.2254  -27.2701   20.1455 C   0  0  0  0  0  0
  -25.5931  -33.8561   24.2253 N   0  0  0  0  0  0
  -23.4271  -30.4755   21.5417 C   0  0  2  0  0  0
  -24.8761  -28.9113   20.1243 C   0  0  0  0  0  0
  -22.7494  -29.4606   22.4936 C   0  0  0  0  0  0
  -18.0291  -28.1384   22.8485 C   0  0  0  0  0  0
  -24.1490  -36.7287   23.2641 C   0  0  0  0  0  0
  -25.9705  -30.7707   21.3764 C   0  0  0  0  0  0
  -26.0459  -29.3875   20.7324 C   0  0  0  0  0  0
  -27.2271  -28.5793   20.7312 C   0  0  0  0  0  0
  -26.0357  -26.8482   19.5220 C   0  0  0  0  0  0
  -24.8735  -27.6467   19.5116 C   0  0  0  0  0  0
  -23.6473  -29.8005   20.1617 C   0  0  0  0  0  0
  -25.4118  -36.3074   24.0324 C   0  0  1  0  0  0
  -20.5892  -28.3697   23.1276 C   0  0  2  0  0  0
  -20.6783  -26.9418   22.5411 C   0  0  0  0  0  0
  -19.5759  -26.6383   21.5214 C   0  0  0  0  0  0
  -18.1937  -26.7926   22.1623 C   0  0  0  0  0  0
  -19.1542  -28.8857   23.2875 C   0  0  0  0  0  0
  -18.9465  -30.1458   23.8894 C   0  0  0  0  0  0
  -17.6466  -30.6589   24.0560 C   0  0  0  0  0  0
  -25.9058  -34.9445   23.5093 C   0  0  0  0  0  0
  -16.5357  -29.9087   23.6327 C   0  0  0  0  0  0
  -16.7278  -28.6502   23.0353 C   0  0  0  0  0  0
  -26.4500  -31.6583   25.0712 C   0  0  0  0  0  0
  -25.3717  -31.3732   26.1428 C   0  0  0  0  0  0
  -27.0355  -30.3005   24.6192 C   0  0  0  0  0  0
  -27.6051  -32.4326   25.7488 C   0  0  0  0  0  0
  -27.5581  -37.1800   24.8465 C   0  0  0  0  0  0
  -21.4205  -29.3044   22.3668 N   0  0  0  0  0  0
  -26.4295  -37.3771   23.9406 N   0  0  0  0  0  0
  -24.6947  -31.0527   22.0953 N   0  0  0  0  0  0
  -23.4193  -28.8162   23.3048 O   0  0  0  0  0  0
  -28.3381  -26.4157   20.0449 O   0  0  0  0  0  0
  -26.5632  -34.8921   22.4664 O   0  0  0  0  0  0
  -23.5452  -32.1383   23.7275 O   0  0  0  0  0  0
  -27.1753  -20.2109   20.6171 C   0  0  0  0  0  0
  -26.5152  -19.0183   20.7063 C   0  0  0  0  0  0
  -28.7214  -18.5721   20.5797 C   0  0  0  0  0  0
  -25.0605  -18.6985   20.8136 C   0  0  0  0  0  0
  -30.2333  -17.5090   18.8762 C   0  0  0  0  0  0
  -29.8610  -16.1421   22.5450 C   0  0  0  0  0  0
  -28.0148  -23.2258   22.3502 C   0  0  0  0  0  0
  -29.1041  -22.6491   20.1016 C   0  0  0  0  0  0
  -29.5120  -21.1279   20.5792 C   0  0  0  0  0  0
  -28.5678  -25.3078   21.0094 C   0  0  0  0  0  0
  -29.9206  -17.5595   20.3820 C   0  0  2  0  0  0
  -29.7369  -16.0472   21.0112 C   0  0  1  0  0  0
  -28.1790  -23.7209   20.8978 C   0  0  2  0  0  0
  -28.5262  -19.9607   20.5662 N   0  0  0  0  0  0
  -27.4852  -18.0583   20.6750 N   0  3  0  0  0  0
  -31.4841  -12.6178   19.1594 H   0  0  0  0  0  0
  -30.4188  -11.4771   19.9296 H   0  0  0  0  0  0
  -29.8053  -11.7537   17.5094 H   0  0  0  0  0  0
  -29.6355  -13.4776   17.7267 H   0  0  0  0  0  0
  -27.9015  -11.2765   18.8958 H   0  0  0  0  0  0
  -27.3852  -12.5247   17.7922 H   0  0  0  0  0  0
  -27.6501  -14.2401   19.4776 H   0  0  0  0  0  0
  -28.7258  -12.0956   21.3755 H   0  0  0  0  0  0
  -28.4008  -13.7432   21.8230 H   0  0  0  0  0  0
  -25.2763   -9.5672   22.4772 H   0  0  0  0  0  0
  -24.0003   -7.4624   22.7469 H   0  0  0  0  0  0
  -21.0851   -8.8787   19.8950 H   0  0  0  0  0  0
  -22.3709  -10.9688   19.6187 H   0  0  0  0  0  0
  -21.2006   -7.6149   23.9713 H   0  0  0  0  0  0
  -21.1479   -6.0523   25.9076 H   0  0  0  0  0  0
  -22.0602   -2.7607   23.2848 H   0  0  0  0  0  0
  -22.4086  -11.9904   22.4792 H   0  0  0  0  0  0
  -21.1103  -13.1283   22.2583 H   0  0  0  0  0  0
  -24.5425  -15.6779   20.3499 H   0  0  0  0  0  0
  -25.9738  -15.3940   19.5484 H   0  0  0  0  0  0
  -26.7200  -32.5422   23.1072 H   0  0  0  0  0  0
  -25.0069  -33.9696   25.0393 H   0  0  0  0  0  0
  -22.7231  -31.2965   21.3911 H   0  0  0  0  0  0
  -23.3754  -35.9618   23.3300 H   0  0  0  0  0  0
  -24.3579  -36.8915   22.2056 H   0  0  0  0  0  0
  -23.7244  -37.6486   23.6669 H   0  0  0  0  0  0
  -26.1026  -31.5248   20.5993 H   0  0  0  0  0  0
  -26.8501  -30.8284   22.0058 H   0  0  0  0  0  0
  -28.1335  -28.9497   21.1895 H   0  0  0  0  0  0
  -26.0086  -25.8816   19.0387 H   0  0  0  0  0  0
  -23.9783  -27.2761   19.0315 H   0  0  0  0  0  0
  -23.7743  -30.5715   19.4008 H   0  0  0  0  0  0
  -22.7657  -29.2330   19.8586 H   0  0  0  0  0  0
  -25.1302  -36.1920   25.0817 H   0  0  0  0  0  0
  -20.9978  -28.3279   24.1399 H   0  0  0  0  0  0
  -20.5693  -26.2309   23.3616 H   0  0  0  0  0  0
  -21.6653  -26.7453   22.1202 H   0  0  0  0  0  0
  -19.6925  -25.6291   21.1253 H   0  0  0  0  0  0
  -19.6695  -27.3185   20.6737 H   0  0  0  0  0  0
  -17.4209  -26.6671   21.4023 H   0  0  0  0  0  0
  -18.0336  -26.0068   22.9018 H   0  0  0  0  0  0
  -19.7943  -30.7270   24.2267 H   0  0  0  0  0  0
  -17.5022  -31.6269   24.5163 H   0  0  0  0  0  0
  -15.5358  -30.2990   23.7652 H   0  0  0  0  0  0
  -15.8677  -28.0821   22.7072 H   0  0  0  0  0  0
  -24.5891  -30.7087   25.7747 H   0  0  0  0  0  0
  -24.8905  -32.2902   26.4840 H   0  0  0  0  0  0
  -25.8021  -30.8912   27.0213 H   0  0  0  0  0  0
  -26.2942  -29.6743   24.1213 H   0  0  0  0  0  0
  -27.4046  -29.7276   25.4708 H   0  0  0  0  0  0
  -27.8810  -30.4289   23.9429 H   0  0  0  0  0  0
  -27.2659  -33.3632   26.2049 H   0  0  0  0  0  0
  -28.3868  -32.6877   25.0320 H   0  0  0  0  0  0
  -28.0711  -31.8460   26.5416 H   0  0  0  0  0  0
  -28.2599  -38.0097   24.7515 H   0  0  0  0  0  0
  -28.1077  -36.2628   24.6290 H   0  0  0  0  0  0
  -27.2296  -37.1447   25.8868 H   0  0  0  0  0  0
  -20.9398  -29.8750   21.6853 H   0  0  0  0  0  0
  -26.0174  -38.2847   24.1400 H   0  0  0  0  0  0
  -26.7716  -21.2127   20.6010 H   0  0  0  0  0  0
  -24.4894  -19.5967   21.0484 H   0  0  0  0  0  0
  -24.8868  -17.9666   21.6026 H   0  0  0  0  0  0
  -24.6915  -18.2913   19.8724 H   0  0  0  0  0  0
  -30.3929  -18.5111   18.4767 H   0  0  0  0  0  0
  -29.4133  -17.0577   18.3165 H   0  0  0  0  0  0
  -31.1372  -16.9397   18.6641 H   0  0  0  0  0  0
  -29.0767  -16.7701   22.9679 H   0  0  0  0  0  0
  -30.8203  -16.5717   22.8353 H   0  0  0  0  0  0
  -29.7868  -15.1677   23.0290 H   0  0  0  0  0  0
  -27.6792  -22.1939   22.4160 H   0  0  0  0  0  0
  -27.2786  -23.8203   22.8929 H   0  0  0  0  0  0
  -28.9570  -23.2956   22.8952 H   0  0  0  0  0  0
  -28.7205  -22.5812   19.0831 H   0  0  0  0  0  0
  -30.0615  -23.1563   19.9779 H   0  0  0  0  0  0
  -29.9193  -21.1720   21.5894 H   0  0  0  0  0  0
  -30.3443  -20.8026   19.9543 H   0  0  0  0  0  0
  -29.6368  -25.3424   21.2203 H   0  0  0  0  0  0
  -28.1187  -25.6851   21.9294 H   0  0  0  0  0  0
  -30.7671  -18.0367   20.8769 H   0  0  0  0  0  0
  -28.7102  -15.7737   20.7871 H   0  0  0  0  0  0
  -27.1845  -23.6776   20.4521 H   0  0  0  0  0  0
  -27.2888  -17.0650   20.7191 H   0  0  0  0  0  0
  1 25  1  0  0  0
  1 30  2  0  0  0
  1 82  1  0  0  0
  2  3  1  0  0  0
  2 25  1  0  0  0
  2 86  1  0  0  0
  2 87  1  0  0  0
  3  4  1  0  0  0
  3 88  1  0  0  0
  3 89  1  0  0  0
  4  5  1  0  0  0
  4 90  1  0  0  0
  4 91  1  0  0  0
  5  6  1  0  0  0
  5 26  1  0  0  0
  5 92  1  0  0  0
  6 25  1  0  0  0
  6 93  1  0  0  0
  6 94  1  0  0  0
  7  8  2  0  0  0
  7 26  1  0  0  0
  7 29  1  0  0  0
  8  9  1  0  0  0
  8 22  1  0  0  0
  9 10  1  0  0  0
  9 27  2  0  0  0
 10 11  2  0  0  0
 10 15  1  0  0  0
 11 12  1  0  0  0
 11 95  1  0  0  0
 12 13  2  0  0  0
 12 96  1  0  0  0
 13 14  1  0  0  0
 13 31  1  0  0  0
 14 15  2  0  0  0
 14 97  1  0  0  0
 15 98  1  0  0  0
 16 17  2  0  0  0
 16 21  1  0  0  0
 16 31  1  0  0  0
 17 18  1  0  0  0
 17 99  1  0  0  0
 18 19  2  0  0  0
 18100  1  0  0  0
 19 20  1  0  0  0
 19 24  1  0  0  0
 20 21  2  0  0  0
 20101  1  0  0  0
 21 23  1  0  0  0
 22 28  1  0  0  0
 22 32  2  0  0  0
 26 27  1  0  0  0
 28102  1  0  0  0
 28103  1  0  0  0
 29104  1  0  0  0
 29105  1  0  0  0
 33 34  1  0  0  0
 33 66  1  0  0  0
 33 70  2  0  0  0
 34 36  1  0  0  0
 34 59  1  0  0  0
 34106  1  0  0  0
 35 44  2  0  0  0
 35 45  1  0  0  0
 35 68  1  0  0  0
 36 56  1  0  0  0
 36107  1  0  0  0
 37 39  1  0  0  0
 37 47  1  0  0  0
 37 66  1  0  0  0
 37108  1  0  0  0
 38 43  2  0  0  0
 38 46  1  0  0  0
 38 47  1  0  0  0
 39 64  1  0  0  0
 39 67  2  0  0  0
 40 52  1  0  0  0
 40 53  2  0  0  0
 40 58  1  0  0  0
 41109  1  0  0  0
 41110  1  0  0  0
 41111  1  0  0  0
 41 48  1  0  0  0
 42 43  1  0  0  0
 42 66  1  0  0  0
 42112  1  0  0  0
 42113  1  0  0  0
 43 44  1  0  0  0
 44114  1  0  0  0
 45 46  2  0  0  0
 45115  1  0  0  0
 46116  1  0  0  0
 47117  1  0  0  0
 47118  1  0  0  0
 48 56  1  0  0  0
 48 65  1  0  0  0
 48119  1  0  0  0
 49 50  1  0  0  0
 49 53  1  0  0  0
 49 64  1  0  0  0
 49120  1  0  0  0
 50 51  1  0  0  0
 50121  1  0  0  0
 50122  1  0  0  0
 51 52  1  0  0  0
 51123  1  0  0  0
 51124  1  0  0  0
 52125  1  0  0  0
 52126  1  0  0  0
 53 54  1  0  0  0
 54 55  2  0  0  0
 54127  1  0  0  0
 55 57  1  0  0  0
 55128  1  0  0  0
 56 69  2  0  0  0
 57 58  2  0  0  0
 57129  1  0  0  0
 58130  1  0  0  0
 59 60  1  0  0  0
 59 61  1  0  0  0
 59 62  1  0  0  0
 60131  1  0  0  0
 60132  1  0  0  0
 60133  1  0  0  0
 61134  1  0  0  0
 61135  1  0  0  0
 61136  1  0  0  0
 62137  1  0  0  0
 62138  1  0  0  0
 62139  1  0  0  0
 63 65  1  0  0  0
 63140  1  0  0  0
 63141  1  0  0  0
 63142  1  0  0  0
 64143  1  0  0  0
 65144  1  0  0  0
 68 80  1  0  0  0
 71 72  2  0  0  0
 71 84  1  0  0  0
 71145  1  0  0  0
 72 74  1  0  0  0
 72 85  1  0  0  0
 73 81  1  0  0  0
 73 84  1  0  0  0
 73 85  2  0  0  0
 74146  1  0  0  0
 74147  1  0  0  0
 74148  1  0  0  0
 75149  1  0  0  0
 75150  1  0  0  0
 75151  1  0  0  0
 75 81  1  0  0  0
 76152  1  0  0  0
 76153  1  0  0  0
 76154  1  0  0  0
 76 82  1  0  0  0
 77155  1  0  0  0
 77156  1  0  0  0
 77157  1  0  0  0
 77 83  1  0  0  0
 78 79  1  0  0  0
 78 83  1  0  0  0
 78158  1  0  0  0
 78159  1  0  0  0
 79 84  1  0  0  0
 79160  1  0  0  0
 79161  1  0  0  0
 80 83  1  0  0  0
 80162  1  0  0  0
 80163  1  0  0  0
 81 82  1  0  0  0
 81164  1  0  0  0
 82165  1  0  0  0
 83166  1  0  0  0
 85167  1  0  0  0
M  CHG  1  85   1
M  ISO  4   1 100  68 101  80 101  82 100
M  END
> <chiral flag>
0

> <version>
0

> <s_m_source_file>
/data/baiqing/PycharmProjects/Reinvent-master-3.2/result/LINK_invent/BTK/process_docking_weight1_custom_sum_contain_oxygen_bond_distance_aromatic_linkinvent_7_9_3/rearranged_h_0075.sdf

> <i_m_source_file_index>
79

> <r_mmod_Potential_Energy-OPLS-2005>
279.867645263672

> <r_mmod_Stretch_Energy-OPLS-2005>
143.914840698242

> <r_mmod_Bend_Energy-OPLS-2005>
232.970855712891

> <r_mmod_Torsional_Energy-OPLS-2005>
259.042846679688

> <r_mmod_Improper_Torsional_Energy-OPLS-2005>
8.82668304443359

> <r_mmod_Van_der_Waal_Energy-OPLS-2005>
100.228843688965

> <r_mmod_Electrostatic_Energy-OPLS-2005>
-165.010345458984

> <r_mmod_Solvation_Energy-OPLS-2005>
-376.490631103516

> <b_mmod_Minimization_Converged-OPLS-2005>
0

> <r_mmod_RMS_Derivative-OPLS-2005>
0.426075547933578

$$$$
80
                    3D
 Structure written by MMmdl.
166174  0  0  1  0            999 V2000
  -30.6885  -14.5584   20.4345 C   0  0  0  0  0  0
  -30.4170  -12.3493   19.3878 C   0  0  0  0  0  0
  -29.4668  -12.4659   18.1731 C   0  0  0  0  0  0
  -27.9912  -12.3557   18.6061 C   0  0  0  0  0  0
  -27.6527  -13.2201   19.8517 C   0  0  2  0  0  0
  -28.7177  -13.0674   20.9627 C   0  0  0  0  0  0
  -25.2596  -13.8137   20.5660 C   0  0  0  0  0  0
  -24.1889  -13.0402   20.9158 C   0  0  0  0  0  0
  -24.6467  -11.6877   20.8760 C   0  0  0  0  0  0
  -23.9135  -10.4258   21.0384 C   0  0  0  0  0  0
  -24.3659   -9.4185   21.9177 C   0  0  0  0  0  0
  -23.6333   -8.2229   22.0760 C   0  0  0  0  0  0
  -22.4316   -8.0279   21.3544 C   0  0  0  0  0  0
  -21.9959   -9.0255   20.4633 C   0  0  0  0  0  0
  -22.7309  -10.2126   20.3043 C   0  0  0  0  0  0
  -21.6861   -6.0753   22.5272 C   0  0  0  0  0  0
  -21.4023   -6.5649   23.8214 C   0  0  0  0  0  0
  -21.3653   -5.6798   24.9159 C   0  0  0  0  0  0
  -21.6030   -4.3071   24.7206 C   0  0  0  0  0  0
  -21.8844   -3.8162   23.4345 C   0  0  0  0  0  0
  -21.9216   -4.6977   22.3390 C   0  0  0  0  0  0
  -22.7935  -13.5247   21.1811 C   0  0  0  0  0  0
  -22.1699   -4.2185   21.0965 F   0  0  0  0  0  0
  -21.5616   -3.4526   25.7710 F   0  0  0  0  0  0
  -30.0162  -13.3735   20.3643 N   0  0  0  0  0  0
  -26.3031  -12.9370   20.3371 N   0  0  0  0  0  0
  -25.9411  -11.6495   20.5809 N   0  0  0  0  0  0
  -22.0571  -12.8202   22.0323 N   0  0  0  0  0  0
  -25.4206  -15.1841   20.4002 N   0  0  0  0  0  0
  -31.9044  -14.6205   20.2542 O   0  0  0  0  0  0
  -21.6676   -6.8900   21.4248 O   0  0  0  0  0  0
  -22.3611  -14.5548   20.6669 O   0  0  0  0  0  0
  -24.6166  -31.8694   23.2091 C   0  0  0  0  0  0
  -25.9041  -32.4861   23.8411 C   0  0  1  0  0  0
  -27.2256  -27.4186   20.0760 C   0  0  0  0  0  0
  -25.5895  -33.8678   24.2342 N   0  0  0  0  0  0
  -23.4001  -30.5043   21.5486 C   0  0  2  0  0  0
  -24.8391  -28.9554   20.1209 C   0  0  0  0  0  0
  -22.7389  -29.4804   22.4952 C   0  0  0  0  0  0
  -18.0340  -28.1390   22.8548 C   0  0  0  0  0  0
  -24.1495  -36.7385   23.2613 C   0  0  0  0  0  0
  -25.9326  -30.8270   21.3612 C   0  0  0  0  0  0
  -26.0052  -29.4609   20.7090 C   0  0  0  0  0  0
  -27.1968  -28.6992   20.6826 C   0  0  0  0  0  0
  -26.0340  -26.9231   19.4986 C   0  0  0  0  0  0
  -24.8507  -27.6867   19.5191 C   0  0  0  0  0  0
  -23.6061  -29.8310   20.1668 C   0  0  0  0  0  0
  -25.4126  -36.3180   24.0318 C   0  0  1  0  0  0
  -20.5910  -28.3741   23.1320 C   0  0  2  0  0  0
  -20.6834  -26.9456   22.5400 C   0  0  0  0  0  0
  -19.5794  -26.6351   21.5240 C   0  0  0  0  0  0
  -18.1993  -26.7949   22.1691 C   0  0  0  0  0  0
  -19.1587  -28.8884   23.2976 C   0  0  0  0  0  0
  -18.9460  -30.1496   23.8945 C   0  0  0  0  0  0
  -17.6436  -30.6594   24.0560 C   0  0  0  0  0  0
  -25.9059  -34.9523   23.5147 C   0  0  0  0  0  0
  -16.5365  -29.9068   23.6339 C   0  0  0  0  0  0
  -16.7318  -28.6506   23.0355 C   0  0  0  0  0  0
  -26.4464  -31.6650   25.0755 C   0  0  0  0  0  0
  -25.3720  -31.3740   26.1479 C   0  0  0  0  0  0
  -27.0231  -30.3076   24.6126 C   0  0  0  0  0  0
  -27.6049  -32.4345   25.7571 C   0  0  0  0  0  0
  -27.5606  -37.1869   24.8456 C   0  0  0  0  0  0
  -21.4135  -29.3139   22.3710 N   0  0  0  0  0  0
  -26.4337  -37.3811   23.9380 N   0  0  0  0  0  0
  -24.6707  -31.0811   22.0998 N   0  0  0  0  0  0
  -23.4178  -28.8359   23.2995 O   0  0  0  0  0  0
  -28.4263  -26.7267   20.0779 O   0  0  0  0  0  0
  -26.5606  -34.8930   22.4714 O   0  0  0  0  0  0
  -23.5380  -32.1470   23.7497 O   0  0  0  0  0  0
  -29.6271  -19.3964   20.5893 C   0  0  0  0  0  0
  -29.5272  -18.2257   19.8557 C   0  0  0  0  0  0
  -27.9563  -19.6934   19.1610 C   0  0  0  0  0  0
  -26.8352  -20.2976   18.3482 C   0  0  0  0  0  0
  -29.9532  -16.3315   17.3098 C   0  0  0  0  0  0
  -28.4128  -24.5541   21.9102 C   0  0  0  0  0  0
  -30.9791  -16.8385   18.3440 C   0  0  0  0  0  0
  -28.7916  -22.8671   19.9876 C   0  0  0  0  0  0
  -28.2921  -21.5991   20.7475 C   0  0  0  0  0  0
  -28.5548  -25.4053   19.5077 C   0  0  0  0  0  0
  -30.4427  -16.9915   19.7949 C   0  0  2  0  0  0
  -28.1257  -24.2222   20.4300 C   0  0  2  0  0  0
  -28.6413  -20.2661   20.1661 N   0  0  0  0  0  0
  -28.4578  -18.4549   19.0089 N   0  3  0  0  0  0
  -29.9368  -15.6876   20.3417 N   0  0  0  0  0  0
  -31.4484  -12.4784   19.0589 H   0  0  0  0  0  0
  -30.3638  -11.3490   19.8203 H   0  0  0  0  0  0
  -29.6760  -11.6861   17.4409 H   0  0  0  0  0  0
  -29.6347  -13.4099   17.6525 H   0  0  0  0  0  0
  -27.7858  -11.3063   18.8223 H   0  0  0  0  0  0
  -27.3325  -12.6158   17.7748 H   0  0  0  0  0  0
  -27.6681  -14.2559   19.5121 H   0  0  0  0  0  0
  -28.7254  -12.0481   21.3531 H   0  0  0  0  0  0
  -28.5137  -13.7157   21.8148 H   0  0  0  0  0  0
  -25.2786   -9.5680   22.4777 H   0  0  0  0  0  0
  -24.0027   -7.4642   22.7493 H   0  0  0  0  0  0
  -21.0890   -8.8779   19.8948 H   0  0  0  0  0  0
  -22.3750  -10.9670   19.6168 H   0  0  0  0  0  0
  -21.2040   -7.6152   23.9731 H   0  0  0  0  0  0
  -21.1428   -6.0505   25.9067 H   0  0  0  0  0  0
  -22.0633   -2.7621   23.2801 H   0  0  0  0  0  0
  -22.4271  -11.9910   22.4723 H   0  0  0  0  0  0
  -21.1163  -13.1163   22.2513 H   0  0  0  0  0  0
  -24.6240  -15.8021   20.4739 H   0  0  0  0  0  0
  -26.2498  -15.6262   20.0287 H   0  0  0  0  0  0
  -26.7139  -32.5518   23.1208 H   0  0  0  0  0  0
  -25.0036  -33.9842   25.0475 H   0  0  0  0  0  0
  -22.6955  -31.3244   21.4066 H   0  0  0  0  0  0
  -23.3730  -35.9740   23.3313 H   0  0  0  0  0  0
  -24.3594  -36.8978   22.2011 H   0  0  0  0  0  0
  -23.7265  -37.6620   23.6616 H   0  0  0  0  0  0
  -26.0384  -31.5933   20.5907 H   0  0  0  0  0  0
  -26.8248  -30.8922   21.9748 H   0  0  0  0  0  0
  -28.1037  -29.0927   21.1244 H   0  0  0  0  0  0
  -26.0035  -25.9510   19.0281 H   0  0  0  0  0  0
  -23.9446  -27.2979   19.0712 H   0  0  0  0  0  0
  -23.7220  -30.5980   19.4014 H   0  0  0  0  0  0
  -22.7235  -29.2583   19.8705 H   0  0  0  0  0  0
  -25.1278  -36.2075   25.0798 H   0  0  0  0  0  0
  -21.0068  -28.3236   24.1420 H   0  0  0  0  0  0
  -20.5733  -26.2341   23.3618 H   0  0  0  0  0  0
  -21.6722  -26.7495   22.1213 H   0  0  0  0  0  0
  -19.6941  -25.6211   21.1395 H   0  0  0  0  0  0
  -19.6736  -27.3078   20.6707 H   0  0  0  0  0  0
  -17.4231  -26.6714   21.4121 H   0  0  0  0  0  0
  -18.0449  -26.0112   22.9125 H   0  0  0  0  0  0
  -19.7889  -30.7350   24.2327 H   0  0  0  0  0  0
  -17.4952  -31.6313   24.5113 H   0  0  0  0  0  0
  -15.5347  -30.2926   23.7689 H   0  0  0  0  0  0
  -15.8745  -28.0822   22.7001 H   0  0  0  0  0  0
  -24.5941  -30.7044   25.7792 H   0  0  0  0  0  0
  -24.8841  -32.2869   26.4892 H   0  0  0  0  0  0
  -25.8019  -30.8925   27.0270 H   0  0  0  0  0  0
  -26.2699  -29.6949   24.1149 H   0  0  0  0  0  0
  -27.3948  -29.7238   25.4568 H   0  0  0  0  0  0
  -27.8620  -30.4398   23.9289 H   0  0  0  0  0  0
  -27.2663  -33.3604   26.2262 H   0  0  0  0  0  0
  -28.3856  -32.7010   25.0416 H   0  0  0  0  0  0
  -28.0777  -31.8410   26.5421 H   0  0  0  0  0  0
  -28.2636  -38.0140   24.7443 H   0  0  0  0  0  0
  -28.1082  -36.2675   24.6347 H   0  0  0  0  0  0
  -27.2332  -37.1611   25.8854 H   0  0  0  0  0  0
  -20.9269  -29.8839   21.6940 H   0  0  0  0  0  0
  -26.0266  -38.2939   24.1244 H   0  0  0  0  0  0
  -30.3395  -19.6680   21.3556 H   0  0  0  0  0  0
  -25.8827  -20.0735   18.8264 H   0  0  0  0  0  0
  -26.8423  -19.8851   17.3390 H   0  0  0  0  0  0
  -26.9564  -21.3783   18.2672 H   0  0  0  0  0  0
  -29.5621  -17.1575   16.7150 H   0  0  0  0  0  0
  -29.1055  -15.8089   17.7585 H   0  0  0  0  0  0
  -30.4361  -15.6396   16.6179 H   0  0  0  0  0  0
  -28.0066  -23.7992   22.5851 H   0  0  0  0  0  0
  -27.9499  -25.4970   22.2129 H   0  0  0  0  0  0
  -29.4824  -24.6405   22.1039 H   0  0  0  0  0  0
  -31.3952  -17.7881   18.0041 H   0  0  0  0  0  0
  -31.8295  -16.1562   18.3219 H   0  0  0  0  0  0
  -28.6183  -22.7437   18.9180 H   0  0  0  0  0  0
  -29.8777  -22.9326   20.0871 H   0  0  0  0  0  0
  -27.2033  -21.6345   20.8261 H   0  0  0  0  0  0
  -28.6751  -21.6139   21.7692 H   0  0  0  0  0  0
  -28.0882  -25.3321   18.5206 H   0  0  0  0  0  0
  -29.6234  -25.2961   19.3157 H   0  0  0  0  0  0
  -31.3200  -17.2589   20.3917 H   0  0  0  0  0  0
  -27.0423  -24.1176   20.3296 H   0  0  0  0  0  0
  -28.1203  -17.8005   18.3076 H   0  0  0  0  0  0
  -28.9499  -15.6080   20.5252 H   0  0  0  0  0  0
  1 25  1  0  0  0
  1 30  2  0  0  0
  1 85  1  0  0  0
  2  3  1  0  0  0
  2 25  1  0  0  0
  2 86  1  0  0  0
  2 87  1  0  0  0
  3  4  1  0  0  0
  3 88  1  0  0  0
  3 89  1  0  0  0
  4  5  1  0  0  0
  4 90  1  0  0  0
  4 91  1  0  0  0
  5  6  1  0  0  0
  5 26  1  0  0  0
  5 92  1  0  0  0
  6 25  1  0  0  0
  6 93  1  0  0  0
  6 94  1  0  0  0
  7  8  2  0  0  0
  7 26  1  0  0  0
  7 29  1  0  0  0
  8  9  1  0  0  0
  8 22  1  0  0  0
  9 10  1  0  0  0
  9 27  2  0  0  0
 10 11  2  0  0  0
 10 15  1  0  0  0
 11 12  1  0  0  0
 11 95  1  0  0  0
 12 13  2  0  0  0
 12 96  1  0  0  0
 13 14  1  0  0  0
 13 31  1  0  0  0
 14 15  2  0  0  0
 14 97  1  0  0  0
 15 98  1  0  0  0
 16 17  2  0  0  0
 16 21  1  0  0  0
 16 31  1  0  0  0
 17 18  1  0  0  0
 17 99  1  0  0  0
 18 19  2  0  0  0
 18100  1  0  0  0
 19 20  1  0  0  0
 19 24  1  0  0  0
 20 21  2  0  0  0
 20101  1  0  0  0
 21 23  1  0  0  0
 22 28  1  0  0  0
 22 32  2  0  0  0
 26 27  1  0  0  0
 28102  1  0  0  0
 28103  1  0  0  0
 29104  1  0  0  0
 29105  1  0  0  0
 33 34  1  0  0  0
 33 66  1  0  0  0
 33 70  2  0  0  0
 34 36  1  0  0  0
 34 59  1  0  0  0
 34106  1  0  0  0
 35 44  2  0  0  0
 35 45  1  0  0  0
 35 68  1  0  0  0
 36 56  1  0  0  0
 36107  1  0  0  0
 37 39  1  0  0  0
 37 47  1  0  0  0
 37 66  1  0  0  0
 37108  1  0  0  0
 38 43  2  0  0  0
 38 46  1  0  0  0
 38 47  1  0  0  0
 39 64  1  0  0  0
 39 67  2  0  0  0
 40 52  1  0  0  0
 40 53  2  0  0  0
 40 58  1  0  0  0
 41109  1  0  0  0
 41110  1  0  0  0
 41111  1  0  0  0
 41 48  1  0  0  0
 42 43  1  0  0  0
 42 66  1  0  0  0
 42112  1  0  0  0
 42113  1  0  0  0
 43 44  1  0  0  0
 44114  1  0  0  0
 45 46  2  0  0  0
 45115  1  0  0  0
 46116  1  0  0  0
 47117  1  0  0  0
 47118  1  0  0  0
 48 56  1  0  0  0
 48 65  1  0  0  0
 48119  1  0  0  0
 49 50  1  0  0  0
 49 53  1  0  0  0
 49 64  1  0  0  0
 49120  1  0  0  0
 50 51  1  0  0  0
 50121  1  0  0  0
 50122  1  0  0  0
 51 52  1  0  0  0
 51123  1  0  0  0
 51124  1  0  0  0
 52125  1  0  0  0
 52126  1  0  0  0
 53 54  1  0  0  0
 54 55  2  0  0  0
 54127  1  0  0  0
 55 57  1  0  0  0
 55128  1  0  0  0
 56 69  2  0  0  0
 57 58  2  0  0  0
 57129  1  0  0  0
 58130  1  0  0  0
 59 60  1  0  0  0
 59 61  1  0  0  0
 59 62  1  0  0  0
 60131  1  0  0  0
 60132  1  0  0  0
 60133  1  0  0  0
 61134  1  0  0  0
 61135  1  0  0  0
 61136  1  0  0  0
 62137  1  0  0  0
 62138  1  0  0  0
 62139  1  0  0  0
 63 65  1  0  0  0
 63140  1  0  0  0
 63141  1  0  0  0
 63142  1  0  0  0
 64143  1  0  0  0
 65144  1  0  0  0
 68 80  1  0  0  0
 71 72  2  0  0  0
 71 83  1  0  0  0
 71145  1  0  0  0
 72 81  1  0  0  0
 72 84  1  0  0  0
 73 74  1  0  0  0
 73 83  1  0  0  0
 73 84  2  0  0  0
 74146  1  0  0  0
 74147  1  0  0  0
 74148  1  0  0  0
 75 77  1  0  0  0
 75149  1  0  0  0
 75150  1  0  0  0
 75151  1  0  0  0
 76152  1  0  0  0
 76153  1  0  0  0
 76154  1  0  0  0
 76 82  1  0  0  0
 77155  1  0  0  0
 77156  1  0  0  0
 77 81  1  0  0  0
 78 79  1  0  0  0
 78 82  1  0  0  0
 78157  1  0  0  0
 78158  1  0  0  0
 79 83  1  0  0  0
 79159  1  0  0  0
 79160  1  0  0  0
 80 82  1  0  0  0
 80161  1  0  0  0
 80162  1  0  0  0
 81 85  1  0  0  0
 81163  1  0  0  0
 82164  1  0  0  0
 84165  1  0  0  0
 85166  1  0  0  0
M  CHG  1  84   1
M  ISO  4   1 100  68 101  80 101  85 100
M  END
> <chiral flag>
0

> <version>
0

> <s_m_source_file>
/data/baiqing/PycharmProjects/Reinvent-master-3.2/result/LINK_invent/BTK/process_docking_weight1_custom_sum_contain_oxygen_bond_distance_aromatic_linkinvent_7_9_3/rearranged_h_0075.sdf

> <i_m_source_file_index>
80

> <r_mmod_Potential_Energy-OPLS-2005>
-126.428680419922

> <r_mmod_Stretch_Energy-OPLS-2005>
49.8134384155273

> <r_mmod_Bend_Energy-OPLS-2005>
122.062324523926

> <r_mmod_Torsional_Energy-OPLS-2005>
252.704605102539

> <r_mmod_Improper_Torsional_Energy-OPLS-2005>
10.5932369232178

> <r_mmod_Van_der_Waal_Energy-OPLS-2005>
119.148086547852

> <r_mmod_Electrostatic_Energy-OPLS-2005>
-293.028961181641

> <r_mmod_Solvation_Energy-OPLS-2005>
-419.105895996094

> <b_mmod_Minimization_Converged-OPLS-2005>
0

> <r_mmod_RMS_Derivative-OPLS-2005>
8.61970138549805

$$$$
81
                    3D
 Structure written by MMmdl.
153161  0  0  1  0            999 V2000
  -30.5637  -14.9773   20.4112 C   0  0  0  0  0  0
  -30.4252  -12.5956   19.5340 C   0  0  0  0  0  0
  -29.5272  -12.5324   18.2790 C   0  0  0  0  0  0
  -28.0608  -12.3098   18.6822 C   0  0  0  0  0  0
  -27.6249  -13.2571   19.8291 C   0  0  2  0  0  0
  -28.6545  -13.3305   20.9733 C   0  0  0  0  0  0
  -25.2466  -13.8241   20.5733 C   0  0  0  0  0  0
  -24.1765  -13.0473   20.9137 C   0  0  0  0  0  0
  -24.6364  -11.6934   20.8633 C   0  0  0  0  0  0
  -23.9037  -10.4296   21.0287 C   0  0  0  0  0  0
  -24.3582   -9.4252   21.9110 C   0  0  0  0  0  0
  -23.6269   -8.2300   22.0738 C   0  0  0  0  0  0
  -22.4260   -8.0268   21.3539 C   0  0  0  0  0  0
  -21.9862   -9.0210   20.4632 C   0  0  0  0  0  0
  -22.7171  -10.2099   20.3000 C   0  0  0  0  0  0
  -21.6900   -6.0693   22.5251 C   0  0  0  0  0  0
  -21.4051   -6.5604   23.8174 C   0  0  0  0  0  0
  -21.3683   -5.6767   24.9138 C   0  0  0  0  0  0
  -21.6060   -4.3021   24.7204 C   0  0  0  0  0  0
  -21.8834   -3.8103   23.4329 C   0  0  0  0  0  0
  -21.9208   -4.6914   22.3379 C   0  0  0  0  0  0
  -22.7793  -13.5225   21.1800 C   0  0  0  0  0  0
  -22.1678   -4.2099   21.0956 F   0  0  0  0  0  0
  -21.5608   -3.4511   25.7725 F   0  0  0  0  0  0
  -29.9385  -13.7229   20.3889 N   0  0  0  0  0  0
  -26.2860  -12.9484   20.3167 N   0  0  0  0  0  0
  -25.9314  -11.6585   20.5655 N   0  0  0  0  0  0
  -22.0467  -12.8243   22.0343 N   0  0  0  0  0  0
  -25.4263  -15.1993   20.4391 N   0  0  0  0  0  0
  -31.7714  -14.9573   20.1434 O   0  0  0  0  0  0
  -21.6686   -6.8835   21.4207 O   0  0  0  0  0  0
  -22.3485  -14.5538   20.6635 O   0  0  0  0  0  0
  -24.6472  -31.8432   23.1887 C   0  0  0  0  0  0
  -25.9275  -32.4654   23.8260 C   0  0  1  0  0  0
  -27.2176  -27.1368   20.1590 C   0  0  0  0  0  0
  -25.6083  -33.8462   24.2214 N   0  0  0  0  0  0
  -23.4471  -30.4684   21.5316 C   0  0  2  0  0  0
  -24.8952  -28.8933   20.1094 C   0  0  0  0  0  0
  -22.7568  -29.4571   22.4820 C   0  0  0  0  0  0
  -18.0307  -28.1410   22.8446 C   0  0  0  0  0  0
  -24.1503  -36.7177   23.2639 C   0  0  0  0  0  0
  -26.0031  -30.7219   21.3842 C   0  0  0  0  0  0
  -26.0727  -29.3336   20.7263 C   0  0  0  0  0  0
  -27.2310  -28.4705   20.7359 C   0  0  0  0  0  0
  -26.0142  -26.7976   19.4996 C   0  0  0  0  0  0
  -24.8776  -27.6363   19.4868 C   0  0  0  0  0  0
  -23.6771  -29.8053   20.1473 C   0  0  0  0  0  0
  -25.4130  -36.2983   24.0336 C   0  0  1  0  0  0
  -20.5925  -28.3739   23.1211 C   0  0  2  0  0  0
  -20.6815  -26.9444   22.5390 C   0  0  0  0  0  0
  -19.5809  -26.6398   21.5190 C   0  0  0  0  0  0
  -18.1958  -26.7955   22.1565 C   0  0  0  0  0  0
  -19.1571  -28.8886   23.2825 C   0  0  0  0  0  0
  -18.9497  -30.1485   23.8855 C   0  0  0  0  0  0
  -17.6491  -30.6598   24.0560 C   0  0  0  0  0  0
  -25.9118  -34.9378   23.5064 C   0  0  0  0  0  0
  -16.5379  -29.9087   23.6355 C   0  0  0  0  0  0
  -16.7295  -28.6525   23.0337 C   0  0  0  0  0  0
  -26.4664  -31.6491   25.0669 C   0  0  0  0  0  0
  -25.3891  -31.3580   26.1374 C   0  0  0  0  0  0
  -27.0596  -30.2935   24.6187 C   0  0  0  0  0  0
  -27.6221  -32.4251   25.7414 C   0  0  0  0  0  0
  -27.5581  -37.1708   24.8482 C   0  0  0  0  0  0
  -21.4265  -29.3052   22.3560 N   0  0  0  0  0  0
  -26.4257  -37.3743   23.9483 N   0  0  0  0  0  0
  -24.7185  -31.0327   22.0899 N   0  0  0  0  0  0
  -23.4210  -28.8127   23.2974 O   0  0  0  0  0  0
  -28.2774  -26.1604   20.2629 O   0  0  0  0  0  0
  -26.5624  -34.8899   22.4590 O   0  0  0  0  0  0
  -23.5605  -32.1292   23.7163 O   0  0  0  0  0  0
  -30.4322  -17.7601   20.6381 C   0  0  0  0  0  0
  -29.8498  -16.4638   20.5607 C   0  0  0  0  0  0
  -28.5551  -23.3670   22.1922 C   0  0  0  0  0  0
  -30.4454  -23.8286   20.6419 C   0  0  0  0  0  0
  -28.8681  -21.7297   20.2008 C   0  0  0  0  0  0
  -29.5460  -20.3876   20.9934 C   0  0  0  0  0  0
  -28.1081  -24.6324   19.9821 C   0  0  0  0  0  0
  -28.9716  -23.3641   20.7072 C   0  0  0  0  0  0
  -28.4790  -16.8120   20.5550 N   0  0  0  0  0  0
  -28.2673  -18.1321   20.6387 N   0  0  0  0  0  0
  -29.4515  -18.8227   20.6625 N   0  0  0  0  0  0
  -31.4659  -12.7201   19.2370 H   0  0  0  0  0  0
  -30.3873  -11.6501   20.0783 H   0  0  0  0  0  0
  -29.8604  -11.7387   17.6114 H   0  0  0  0  0  0
  -29.6207  -13.4680   17.7249 H   0  0  0  0  0  0
  -27.9657  -11.2704   19.0003 H   0  0  0  0  0  0
  -27.4100  -12.4328   17.8169 H   0  0  0  0  0  0
  -27.5793  -14.2504   19.3785 H   0  0  0  0  0  0
  -28.7374  -12.3768   21.4955 H   0  0  0  0  0  0
  -28.3461  -14.0687   21.7171 H   0  0  0  0  0  0
  -25.2704   -9.5785   22.4697 H   0  0  0  0  0  0
  -23.9964   -7.4740   22.7512 H   0  0  0  0  0  0
  -21.0776   -8.8697   19.8977 H   0  0  0  0  0  0
  -22.3543  -10.9612   19.6122 H   0  0  0  0  0  0
  -21.2083   -7.6118   23.9659 H   0  0  0  0  0  0
  -21.1497   -6.0502   25.9050 H   0  0  0  0  0  0
  -22.0599   -2.7566   23.2843 H   0  0  0  0  0  0
  -22.4097  -11.9910   22.4731 H   0  0  0  0  0  0
  -21.1092  -13.1269   22.2559 H   0  0  0  0  0  0
  -24.6919  -15.8610   20.6654 H   0  0  0  0  0  0
  -26.3241  -15.6403   20.2679 H   0  0  0  0  0  0
  -26.7317  -32.5282   23.0949 H   0  0  0  0  0  0
  -25.0474  -33.9585   25.0526 H   0  0  0  0  0  0
  -22.7544  -31.2987   21.3827 H   0  0  0  0  0  0
  -23.3823  -35.9457   23.3265 H   0  0  0  0  0  0
  -24.3602  -36.8821   22.2064 H   0  0  0  0  0  0
  -23.7196  -37.6340   23.6685 H   0  0  0  0  0  0
  -26.1684  -31.4838   20.6215 H   0  0  0  0  0  0
  -26.8688  -30.7654   22.0307 H   0  0  0  0  0  0
  -28.1249  -28.8038   21.2438 H   0  0  0  0  0  0
  -25.9172  -25.8426   19.0061 H   0  0  0  0  0  0
  -23.9775  -27.2911   18.9978 H   0  0  0  0  0  0
  -23.8278  -30.5895   19.4035 H   0  0  0  0  0  0
  -22.7874  -29.2636   19.8186 H   0  0  0  0  0  0
  -25.1303  -36.1771   25.0825 H   0  0  0  0  0  0
  -21.0029  -28.3343   24.1327 H   0  0  0  0  0  0
  -20.5717  -26.2339   23.3618 H   0  0  0  0  0  0
  -21.6685  -26.7445   22.1197 H   0  0  0  0  0  0
  -19.6991  -25.6307   21.1229 H   0  0  0  0  0  0
  -19.6780  -27.3194   20.6728 H   0  0  0  0  0  0
  -17.4258  -26.6728   21.3926 H   0  0  0  0  0  0
  -18.0328  -26.0071   22.8932 H   0  0  0  0  0  0
  -19.7985  -30.7303   24.2181 H   0  0  0  0  0  0
  -17.5060  -31.6259   24.5187 H   0  0  0  0  0  0
  -15.5389  -30.2973   23.7729 H   0  0  0  0  0  0
  -15.8690  -28.0846   22.7044 H   0  0  0  0  0  0
  -24.6180  -30.6812   25.7688 H   0  0  0  0  0  0
  -24.8968  -32.2695   26.4767 H   0  0  0  0  0  0
  -25.8257  -30.8808   27.0153 H   0  0  0  0  0  0
  -26.3200  -29.6539   24.1360 H   0  0  0  0  0  0
  -27.4502  -29.7328   25.4691 H   0  0  0  0  0  0
  -27.8967  -30.4271   23.9337 H   0  0  0  0  0  0
  -27.2914  -33.3651   26.1831 H   0  0  0  0  0  0
  -28.4091  -32.6603   25.0235 H   0  0  0  0  0  0
  -28.0818  -31.8433   26.5418 H   0  0  0  0  0  0
  -28.2540  -38.0062   24.7659 H   0  0  0  0  0  0
  -28.1126  -36.2611   24.6136 H   0  0  0  0  0  0
  -27.2321  -37.1122   25.8879 H   0  0  0  0  0  0
  -20.9481  -29.8728   21.6706 H   0  0  0  0  0  0
  -26.0108  -38.2777   24.1604 H   0  0  0  0  0  0
  -31.4831  -18.0074   20.6964 H   0  0  0  0  0  0
  -27.5132  -23.0750   22.3097 H   0  0  0  0  0  0
  -28.6785  -24.3536   22.6430 H   0  0  0  0  0  0
  -29.1582  -22.6808   22.7889 H   0  0  0  0  0  0
  -31.1006  -23.1993   21.2416 H   0  0  0  0  0  0
  -30.5451  -24.8440   21.0348 H   0  0  0  0  0  0
  -30.8385  -23.8382   19.6234 H   0  0  0  0  0  0
  -27.8056  -21.5139   20.0902 H   0  0  0  0  0  0
  -29.2527  -21.6923   19.1805 H   0  0  0  0  0  0
  -29.1958  -20.4581   22.0253 H   0  0  0  0  0  0
  -30.6106  -20.6007   21.0731 H   0  0  0  0  0  0
  -27.0587  -24.3838   20.1407 H   0  0  0  0  0  0
  -28.2526  -24.5316   18.9048 H   0  0  0  0  0  0
  1 25  1  0  0  0
  1 30  2  0  0  0
  1 72  1  0  0  0
  2  3  1  0  0  0
  2 25  1  0  0  0
  2 82  1  0  0  0
  2 83  1  0  0  0
  3  4  1  0  0  0
  3 84  1  0  0  0
  3 85  1  0  0  0
  4  5  1  0  0  0
  4 86  1  0  0  0
  4 87  1  0  0  0
  5  6  1  0  0  0
  5 26  1  0  0  0
  5 88  1  0  0  0
  6 25  1  0  0  0
  6 89  1  0  0  0
  6 90  1  0  0  0
  7  8  2  0  0  0
  7 26  1  0  0  0
  7 29  1  0  0  0
  8  9  1  0  0  0
  8 22  1  0  0  0
  9 10  1  0  0  0
  9 27  2  0  0  0
 10 11  2  0  0  0
 10 15  1  0  0  0
 11 12  1  0  0  0
 11 91  1  0  0  0
 12 13  2  0  0  0
 12 92  1  0  0  0
 13 14  1  0  0  0
 13 31  1  0  0  0
 14 15  2  0  0  0
 14 93  1  0  0  0
 15 94  1  0  0  0
 16 17  2  0  0  0
 16 21  1  0  0  0
 16 31  1  0  0  0
 17 18  1  0  0  0
 17 95  1  0  0  0
 18 19  2  0  0  0
 18 96  1  0  0  0
 19 20  1  0  0  0
 19 24  1  0  0  0
 20 21  2  0  0  0
 20 97  1  0  0  0
 21 23  1  0  0  0
 22 28  1  0  0  0
 22 32  2  0  0  0
 26 27  1  0  0  0
 28 98  1  0  0  0
 28 99  1  0  0  0
 29100  1  0  0  0
 29101  1  0  0  0
 33 34  1  0  0  0
 33 66  1  0  0  0
 33 70  2  0  0  0
 34 36  1  0  0  0
 34 59  1  0  0  0
 34102  1  0  0  0
 35 44  2  0  0  0
 35 45  1  0  0  0
 35 68  1  0  0  0
 36 56  1  0  0  0
 36103  1  0  0  0
 37 39  1  0  0  0
 37 47  1  0  0  0
 37 66  1  0  0  0
 37104  1  0  0  0
 38 43  2  0  0  0
 38 46  1  0  0  0
 38 47  1  0  0  0
 39 64  1  0  0  0
 39 67  2  0  0  0
 40 52  1  0  0  0
 40 53  2  0  0  0
 40 58  1  0  0  0
 41105  1  0  0  0
 41106  1  0  0  0
 41107  1  0  0  0
 41 48  1  0  0  0
 42 43  1  0  0  0
 42 66  1  0  0  0
 42108  1  0  0  0
 42109  1  0  0  0
 43 44  1  0  0  0
 44110  1  0  0  0
 45 46  2  0  0  0
 45111  1  0  0  0
 46112  1  0  0  0
 47113  1  0  0  0
 47114  1  0  0  0
 48 56  1  0  0  0
 48 65  1  0  0  0
 48115  1  0  0  0
 49 50  1  0  0  0
 49 53  1  0  0  0
 49 64  1  0  0  0
 49116  1  0  0  0
 50 51  1  0  0  0
 50117  1  0  0  0
 50118  1  0  0  0
 51 52  1  0  0  0
 51119  1  0  0  0
 51120  1  0  0  0
 52121  1  0  0  0
 52122  1  0  0  0
 53 54  1  0  0  0
 54 55  2  0  0  0
 54123  1  0  0  0
 55 57  1  0  0  0
 55124  1  0  0  0
 56 69  2  0  0  0
 57 58  2  0  0  0
 57125  1  0  0  0
 58126  1  0  0  0
 59 60  1  0  0  0
 59 61  1  0  0  0
 59 62  1  0  0  0
 60127  1  0  0  0
 60128  1  0  0  0
 60129  1  0  0  0
 61130  1  0  0  0
 61131  1  0  0  0
 61132  1  0  0  0
 62133  1  0  0  0
 62134  1  0  0  0
 62135  1  0  0  0
 63 65  1  0  0  0
 63136  1  0  0  0
 63137  1  0  0  0
 63138  1  0  0  0
 64139  1  0  0  0
 65140  1  0  0  0
 68 77  1  0  0  0
 71 72  2  0  0  0
 71 81  1  0  0  0
 71141  1  0  0  0
 72 79  1  0  0  0
 73142  1  0  0  0
 73143  1  0  0  0
 73144  1  0  0  0
 73 78  1  0  0  0
 74 78  1  0  0  0
 74145  1  0  0  0
 74146  1  0  0  0
 74147  1  0  0  0
 75 76  1  0  0  0
 75 78  1  0  0  0
 75148  1  0  0  0
 75149  1  0  0  0
 76 81  1  0  0  0
 76150  1  0  0  0
 76151  1  0  0  0
 77 78  1  0  0  0
 77152  1  0  0  0
 77153  1  0  0  0
 79 80  2  0  0  0
 80 81  1  0  0  0
M  ISO  4   1 100  68 101  72 100  77 101
M  END
> <chiral flag>
0

> <version>
0

> <s_m_source_file>
/data/baiqing/PycharmProjects/Reinvent-master-3.2/result/LINK_invent/BTK/process_docking_weight1_custom_sum_contain_oxygen_bond_distance_aromatic_linkinvent_7_9_3/rearranged_h_0075.sdf

> <i_m_source_file_index>
81

> <r_mmod_Potential_Energy-OPLS-2005>
639.703796386719

> <r_mmod_Stretch_Energy-OPLS-2005>
294.128631591797

> <r_mmod_Bend_Energy-OPLS-2005>
284.529144287109

> <r_mmod_Torsional_Energy-OPLS-2005>
217.142868041992

> <r_mmod_Improper_Torsional_Energy-OPLS-2005>
5.35673809051514

> <r_mmod_Van_der_Waal_Energy-OPLS-2005>
105.604690551758

> <r_mmod_Electrostatic_Energy-OPLS-2005>
-280.827087402344

> <r_mmod_Solvation_Energy-OPLS-2005>
-188.612503051758

> <b_mmod_Minimization_Converged-OPLS-2005>
0

> <r_mmod_RMS_Derivative-OPLS-2005>
5.09723138809204

$$$$
82
                    3D
 Structure written by MMmdl.
166174  0  0  1  0            999 V2000
  -30.6788  -14.5486   20.4933 C   0  0  0  0  0  0
  -30.4197  -12.3294   19.4541 C   0  0  0  0  0  0
  -29.4990  -12.4768   18.2244 C   0  0  0  0  0  0
  -28.0202  -12.3391   18.6344 C   0  0  0  0  0  0
  -27.6528  -13.2114   19.8637 C   0  0  2  0  0  0
  -28.6943  -13.0682   20.9975 C   0  0  0  0  0  0
  -25.2572  -13.8165   20.5690 C   0  0  0  0  0  0
  -24.1834  -13.0446   20.9214 C   0  0  0  0  0  0
  -24.6386  -11.6913   20.8759 C   0  0  0  0  0  0
  -23.9056  -10.4300   21.0417 C   0  0  0  0  0  0
  -24.3614   -9.4215   21.9192 C   0  0  0  0  0  0
  -23.6299   -8.2245   22.0757 C   0  0  0  0  0  0
  -22.4286   -8.0273   21.3542 C   0  0  0  0  0  0
  -21.9916   -9.0245   20.4647 C   0  0  0  0  0  0
  -22.7233  -10.2132   20.3062 C   0  0  0  0  0  0
  -21.6850   -6.0736   22.5277 C   0  0  0  0  0  0
  -21.4015   -6.5644   23.8205 C   0  0  0  0  0  0
  -21.3665   -5.6801   24.9172 C   0  0  0  0  0  0
  -21.6038   -4.3059   24.7229 C   0  0  0  0  0  0
  -21.8821   -3.8149   23.4348 C   0  0  0  0  0  0
  -21.9200   -4.6965   22.3403 C   0  0  0  0  0  0
  -22.7858  -13.5237   21.1860 C   0  0  0  0  0  0
  -22.1666   -4.2144   21.0981 F   0  0  0  0  0  0
  -21.5634   -3.4547   25.7743 F   0  0  0  0  0  0
  -30.0184  -13.3577   20.4305 N   0  0  0  0  0  0
  -26.2980  -12.9336   20.3321 N   0  0  0  0  0  0
  -25.9311  -11.6499   20.5789 N   0  0  0  0  0  0
  -22.0506  -12.8215   22.0406 N   0  0  0  0  0  0
  -25.4295  -15.1882   20.4031 N   0  0  0  0  0  0
  -31.8574  -14.6564   20.1460 O   0  0  0  0  0  0
  -21.6647   -6.8873   21.4234 O   0  0  0  0  0  0
  -22.3558  -14.5549   20.6707 O   0  0  0  0  0  0
  -24.6147  -31.8672   23.2057 C   0  0  0  0  0  0
  -25.9028  -32.4826   23.8347 C   0  0  1  0  0  0
  -27.2294  -27.4019   20.0928 C   0  0  0  0  0  0
  -25.5872  -33.8620   24.2278 N   0  0  0  0  0  0
  -23.4045  -30.4900   21.5468 C   0  0  2  0  0  0
  -24.8476  -28.9508   20.1144 C   0  0  0  0  0  0
  -22.7424  -29.4645   22.4965 C   0  0  0  0  0  0
  -18.0277  -28.1386   22.8462 C   0  0  0  0  0  0
  -24.1508  -36.7303   23.2642 C   0  0  0  0  0  0
  -25.9366  -30.8214   21.3631 C   0  0  0  0  0  0
  -26.0091  -29.4539   20.7088 C   0  0  0  0  0  0
  -27.1999  -28.6869   20.6914 C   0  0  0  0  0  0
  -26.0394  -26.9196   19.4982 C   0  0  0  0  0  0
  -24.8580  -27.6840   19.5089 C   0  0  0  0  0  0
  -23.6129  -29.8216   20.1622 C   0  0  0  0  0  0
  -25.4132  -36.3110   24.0332 C   0  0  1  0  0  0
  -20.5866  -28.3656   23.1297 C   0  0  2  0  0  0
  -20.6779  -26.9389   22.5409 C   0  0  0  0  0  0
  -19.5767  -26.6381   21.5203 C   0  0  0  0  0  0
  -18.1933  -26.7929   22.1601 C   0  0  0  0  0  0
  -19.1535  -28.8837   23.2875 C   0  0  0  0  0  0
  -18.9482  -30.1441   23.8876 C   0  0  0  0  0  0
  -17.6490  -30.6582   24.0561 C   0  0  0  0  0  0
  -25.9047  -34.9475   23.5113 C   0  0  0  0  0  0
  -16.5365  -29.9096   23.6341 C   0  0  0  0  0  0
  -16.7271  -28.6525   23.0323 C   0  0  0  0  0  0
  -26.4460  -31.6626   25.0680 C   0  0  0  0  0  0
  -25.3719  -31.3746   26.1421 C   0  0  0  0  0  0
  -27.0313  -30.3086   24.6038 C   0  0  0  0  0  0
  -27.6009  -32.4374   25.7445 C   0  0  0  0  0  0
  -27.5599  -37.1795   24.8468 C   0  0  0  0  0  0
  -21.4156  -29.3019   22.3701 N   0  0  0  0  0  0
  -26.4321  -37.3797   23.9411 N   0  0  0  0  0  0
  -24.6700  -31.0754   22.0960 N   0  0  0  0  0  0
  -23.4183  -28.8193   23.3020 O   0  0  0  0  0  0
  -28.4242  -26.6931   20.1082 O   0  0  0  0  0  0
  -26.5645  -34.8948   22.4692 O   0  0  0  0  0  0
  -23.5338  -32.1429   23.7441 O   0  0  0  0  0  0
  -30.0782  -19.5587   20.6255 C   0  0  0  0  0  0
  -29.6699  -18.2389   20.7178 C   0  0  0  0  0  0
  -28.2234  -19.5487   21.8238 C   0  0  0  0  0  0
  -27.0570  -19.9550   22.6670 C   0  0  0  0  0  0
  -29.9357  -17.0075   18.5938 C   0  0  0  0  0  0
  -27.3451  -24.4316   21.8363 C   0  0  0  0  0  0
  -29.8355  -24.7819   21.8394 C   0  0  0  0  0  0
  -28.8345  -22.8187   20.5322 C   0  0  0  0  0  0
  -29.3006  -21.8075   21.6325 C   0  0  0  0  0  0
  -28.5072  -25.2848   19.7637 C   0  0  0  0  0  0
  -30.2735  -16.9861   20.0938 C   0  0  2  0  0  0
  -28.6312  -24.3190   20.9926 C   0  0  0  0  0  0
  -29.1915  -20.3447   21.3312 N   0  0  0  0  0  0
  -28.5127  -18.2889   21.4537 N   0  3  0  0  0  0
  -29.9094  -15.6556   20.6566 N   0  0  0  0  0  0
  -31.4656  -12.4189   19.1558 H   0  0  0  0  0  0
  -30.3205  -11.3357   19.8942 H   0  0  0  0  0  0
  -29.7473  -11.7229   17.4767 H   0  0  0  0  0  0
  -29.6621  -13.4460   17.7508 H   0  0  0  0  0  0
  -27.8384  -11.2877   18.8599 H   0  0  0  0  0  0
  -27.3697  -12.5832   17.7937 H   0  0  0  0  0  0
  -27.6751  -14.2452   19.5196 H   0  0  0  0  0  0
  -28.6802  -12.0583   21.4103 H   0  0  0  0  0  0
  -28.4618  -13.7362   21.8284 H   0  0  0  0  0  0
  -25.2753   -9.5695   22.4772 H   0  0  0  0  0  0
  -24.0011   -7.4636   22.7471 H   0  0  0  0  0  0
  -21.0851   -8.8753   19.8944 H   0  0  0  0  0  0
  -22.3681  -10.9673   19.6176 H   0  0  0  0  0  0
  -21.2001   -7.6149   23.9703 H   0  0  0  0  0  0
  -21.1484   -6.0534   25.9070 H   0  0  0  0  0  0
  -22.0596   -2.7609   23.2850 H   0  0  0  0  0  0
  -22.4140  -11.9879   22.4782 H   0  0  0  0  0  0
  -21.1107  -13.1207   22.2597 H   0  0  0  0  0  0
  -24.6397  -15.8215   20.4647 H   0  0  0  0  0  0
  -26.2204  -15.5912   19.9190 H   0  0  0  0  0  0
  -26.7072  -32.5517   23.1086 H   0  0  0  0  0  0
  -24.9943  -33.9789   25.0359 H   0  0  0  0  0  0
  -22.6919  -31.3060   21.4035 H   0  0  0  0  0  0
  -23.3787  -35.9629   23.3336 H   0  0  0  0  0  0
  -24.3577  -36.8911   22.2054 H   0  0  0  0  0  0
  -23.7274  -37.6504   23.6666 H   0  0  0  0  0  0
  -26.0538  -31.5872   20.5946 H   0  0  0  0  0  0
  -26.8223  -30.8694   21.9839 H   0  0  0  0  0  0
  -28.1000  -29.0702   21.1493 H   0  0  0  0  0  0
  -25.9784  -25.9583   19.0153 H   0  0  0  0  0  0
  -23.9627  -27.2895   19.0495 H   0  0  0  0  0  0
  -23.7247  -30.5955   19.4012 H   0  0  0  0  0  0
  -22.7354  -29.2450   19.8665 H   0  0  0  0  0  0
  -25.1328  -36.1955   25.0836 H   0  0  0  0  0  0
  -20.9956  -28.3242   24.1414 H   0  0  0  0  0  0
  -20.5730  -26.2249   23.3594 H   0  0  0  0  0  0
  -21.6644  -26.7469   22.1173 H   0  0  0  0  0  0
  -19.6947  -25.6305   21.1222 H   0  0  0  0  0  0
  -19.6732  -27.3192   20.6737 H   0  0  0  0  0  0
  -17.4216  -26.6667   21.3992 H   0  0  0  0  0  0
  -18.0328  -26.0078   22.9010 H   0  0  0  0  0  0
  -19.7969  -30.7250   24.2231 H   0  0  0  0  0  0
  -17.5066  -31.6267   24.5156 H   0  0  0  0  0  0
  -15.5376  -30.3002   23.7694 H   0  0  0  0  0  0
  -15.8663  -28.0879   22.7007 H   0  0  0  0  0  0
  -24.5857  -30.7140   25.7751 H   0  0  0  0  0  0
  -24.8936  -32.2921   26.4871 H   0  0  0  0  0  0
  -25.8037  -30.8896   27.0181 H   0  0  0  0  0  0
  -26.2841  -29.6804   24.1170 H   0  0  0  0  0  0
  -27.4212  -29.7359   25.4463 H   0  0  0  0  0  0
  -27.8626  -30.4447   23.9106 H   0  0  0  0  0  0
  -27.2588  -33.3674   26.2011 H   0  0  0  0  0  0
  -28.3805  -32.6952   25.0257 H   0  0  0  0  0  0
  -28.0684  -31.8509   26.5368 H   0  0  0  0  0  0
  -28.2590  -38.0106   24.7523 H   0  0  0  0  0  0
  -28.1111  -36.2634   24.6297 H   0  0  0  0  0  0
  -27.2294  -37.1436   25.8859 H   0  0  0  0  0  0
  -20.9329  -29.8748   21.6918 H   0  0  0  0  0  0
  -26.0216  -38.2876   24.1435 H   0  0  0  0  0  0
  -30.9402  -19.9849   20.1292 H   0  0  0  0  0  0
  -27.3855  -20.0097   23.7055 H   0  0  0  0  0  0
  -26.2657  -19.2137   22.5645 H   0  0  0  0  0  0
  -26.6912  -20.9259   22.3331 H   0  0  0  0  0  0
  -30.2638  -17.9393   18.1305 H   0  0  0  0  0  0
  -28.8608  -16.9231   18.4331 H   0  0  0  0  0  0
  -30.4233  -16.1946   18.0551 H   0  0  0  0  0  0
  -27.3865  -23.8223   22.7388 H   0  0  0  0  0  0
  -26.4654  -24.1271   21.2679 H   0  0  0  0  0  0
  -27.1742  -25.4602   22.1570 H   0  0  0  0  0  0
  -29.9236  -24.2190   22.7672 H   0  0  0  0  0  0
  -29.7459  -25.8307   22.1249 H   0  0  0  0  0  0
  -30.7712  -24.6707   21.2897 H   0  0  0  0  0  0
  -27.9093  -22.4604   20.0781 H   0  0  0  0  0  0
  -29.5768  -22.7908   19.7321 H   0  0  0  0  0  0
  -28.7696  -21.9927   22.5641 H   0  0  0  0  0  0
  -30.3495  -21.9956   21.8628 H   0  0  0  0  0  0
  -29.4177  -25.1901   19.1715 H   0  0  0  0  0  0
  -27.7281  -24.9429   19.0890 H   0  0  0  0  0  0
  -31.3542  -17.1091   20.1926 H   0  0  0  0  0  0
  -27.9481  -17.4853   21.7012 H   0  0  0  0  0  0
  -28.9472  -15.4986   20.9063 H   0  0  0  0  0  0
  1 25  1  0  0  0
  1 30  2  0  0  0
  1 85  1  0  0  0
  2  3  1  0  0  0
  2 25  1  0  0  0
  2 86  1  0  0  0
  2 87  1  0  0  0
  3  4  1  0  0  0
  3 88  1  0  0  0
  3 89  1  0  0  0
  4  5  1  0  0  0
  4 90  1  0  0  0
  4 91  1  0  0  0
  5  6  1  0  0  0
  5 26  1  0  0  0
  5 92  1  0  0  0
  6 25  1  0  0  0
  6 93  1  0  0  0
  6 94  1  0  0  0
  7  8  2  0  0  0
  7 26  1  0  0  0
  7 29  1  0  0  0
  8  9  1  0  0  0
  8 22  1  0  0  0
  9 10  1  0  0  0
  9 27  2  0  0  0
 10 11  2  0  0  0
 10 15  1  0  0  0
 11 12  1  0  0  0
 11 95  1  0  0  0
 12 13  2  0  0  0
 12 96  1  0  0  0
 13 14  1  0  0  0
 13 31  1  0  0  0
 14 15  2  0  0  0
 14 97  1  0  0  0
 15 98  1  0  0  0
 16 17  2  0  0  0
 16 21  1  0  0  0
 16 31  1  0  0  0
 17 18  1  0  0  0
 17 99  1  0  0  0
 18 19  2  0  0  0
 18100  1  0  0  0
 19 20  1  0  0  0
 19 24  1  0  0  0
 20 21  2  0  0  0
 20101  1  0  0  0
 21 23  1  0  0  0
 22 28  1  0  0  0
 22 32  2  0  0  0
 26 27  1  0  0  0
 28102  1  0  0  0
 28103  1  0  0  0
 29104  1  0  0  0
 29105  1  0  0  0
 33 34  1  0  0  0
 33 66  1  0  0  0
 33 70  2  0  0  0
 34 36  1  0  0  0
 34 59  1  0  0  0
 34106  1  0  0  0
 35 44  2  0  0  0
 35 45  1  0  0  0
 35 68  1  0  0  0
 36 56  1  0  0  0
 36107  1  0  0  0
 37 39  1  0  0  0
 37 47  1  0  0  0
 37 66  1  0  0  0
 37108  1  0  0  0
 38 43  2  0  0  0
 38 46  1  0  0  0
 38 47  1  0  0  0
 39 64  1  0  0  0
 39 67  2  0  0  0
 40 52  1  0  0  0
 40 53  2  0  0  0
 40 58  1  0  0  0
 41109  1  0  0  0
 41110  1  0  0  0
 41111  1  0  0  0
 41 48  1  0  0  0
 42 43  1  0  0  0
 42 66  1  0  0  0
 42112  1  0  0  0
 42113  1  0  0  0
 43 44  1  0  0  0
 44114  1  0  0  0
 45 46  2  0  0  0
 45115  1  0  0  0
 46116  1  0  0  0
 47117  1  0  0  0
 47118  1  0  0  0
 48 56  1  0  0  0
 48 65  1  0  0  0
 48119  1  0  0  0
 49 50  1  0  0  0
 49 53  1  0  0  0
 49 64  1  0  0  0
 49120  1  0  0  0
 50 51  1  0  0  0
 50121  1  0  0  0
 50122  1  0  0  0
 51 52  1  0  0  0
 51123  1  0  0  0
 51124  1  0  0  0
 52125  1  0  0  0
 52126  1  0  0  0
 53 54  1  0  0  0
 54 55  2  0  0  0
 54127  1  0  0  0
 55 57  1  0  0  0
 55128  1  0  0  0
 56 69  2  0  0  0
 57 58  2  0  0  0
 57129  1  0  0  0
 58130  1  0  0  0
 59 60  1  0  0  0
 59 61  1  0  0  0
 59 62  1  0  0  0
 60131  1  0  0  0
 60132  1  0  0  0
 60133  1  0  0  0
 61134  1  0  0  0
 61135  1  0  0  0
 61136  1  0  0  0
 62137  1  0  0  0
 62138  1  0  0  0
 62139  1  0  0  0
 63 65  1  0  0  0
 63140  1  0  0  0
 63141  1  0  0  0
 63142  1  0  0  0
 64143  1  0  0  0
 65144  1  0  0  0
 68 80  1  0  0  0
 71 72  2  0  0  0
 71 83  1  0  0  0
 71145  1  0  0  0
 72 81  1  0  0  0
 72 84  1  0  0  0
 73 74  1  0  0  0
 73 83  1  0  0  0
 73 84  2  0  0  0
 74146  1  0  0  0
 74147  1  0  0  0
 74148  1  0  0  0
 75149  1  0  0  0
 75150  1  0  0  0
 75151  1  0  0  0
 75 81  1  0  0  0
 76152  1  0  0  0
 76153  1  0  0  0
 76154  1  0  0  0
 76 82  1  0  0  0
 77 82  1  0  0  0
 77155  1  0  0  0
 77156  1  0  0  0
 77157  1  0  0  0
 78 79  1  0  0  0
 78 82  1  0  0  0
 78158  1  0  0  0
 78159  1  0  0  0
 79 83  1  0  0  0
 79160  1  0  0  0
 79161  1  0  0  0
 80 82  1  0  0  0
 80162  1  0  0  0
 80163  1  0  0  0
 81 85  1  0  0  0
 81164  1  0  0  0
 84165  1  0  0  0
 85166  1  0  0  0
M  CHG  1  84   1
M  ISO  4   1 100  68 101  80 101  85 100
M  END
> <chiral flag>
0

> <version>
0

> <s_m_source_file>
/data/baiqing/PycharmProjects/Reinvent-master-3.2/result/LINK_invent/BTK/process_docking_weight1_custom_sum_contain_oxygen_bond_distance_aromatic_linkinvent_7_9_3/rearranged_h_0075.sdf

> <i_m_source_file_index>
82

> <r_mmod_Potential_Energy-OPLS-2005>
-165.923217773438

> <r_mmod_Stretch_Energy-OPLS-2005>
48.5839042663574

> <r_mmod_Bend_Energy-OPLS-2005>
122.752830505371

> <r_mmod_Torsional_Energy-OPLS-2005>
229.842956542969

> <r_mmod_Improper_Torsional_Energy-OPLS-2005>
9.90944194793701

> <r_mmod_Van_der_Waal_Energy-OPLS-2005>
123.29810333252

> <r_mmod_Electrostatic_Energy-OPLS-2005>
-305.311462402344

> <r_mmod_Solvation_Energy-OPLS-2005>
-419.33740234375

> <b_mmod_Minimization_Converged-OPLS-2005>
0

> <r_mmod_RMS_Derivative-OPLS-2005>
2.41046118736267

$$$$
83
                    3D
 Structure written by MMmdl.
162170  0  0  1  0            999 V2000
  -30.7550  -14.4319   20.6222 C   0  0  0  0  0  0
  -30.4180  -12.3038   19.4179 C   0  0  0  0  0  0
  -29.4949  -12.5263   18.2028 C   0  0  0  0  0  0
  -28.0119  -12.3910   18.6070 C   0  0  0  0  0  0
  -27.6675  -13.2007   19.8849 C   0  0  2  0  0  0
  -28.7112  -12.9171   20.9886 C   0  0  0  0  0  0
  -25.2602  -13.8131   20.5678 C   0  0  0  0  0  0
  -24.1849  -13.0413   20.9165 C   0  0  0  0  0  0
  -24.6411  -11.6886   20.8752 C   0  0  0  0  0  0
  -23.9082  -10.4277   21.0424 C   0  0  0  0  0  0
  -24.3628   -9.4195   21.9206 C   0  0  0  0  0  0
  -23.6297   -8.2232   22.0776 C   0  0  0  0  0  0
  -22.4274   -8.0287   21.3558 C   0  0  0  0  0  0
  -21.9913   -9.0267   20.4662 C   0  0  0  0  0  0
  -22.7256  -10.2139   20.3070 C   0  0  0  0  0  0
  -21.6856   -6.0738   22.5293 C   0  0  0  0  0  0
  -21.4013   -6.5648   23.8224 C   0  0  0  0  0  0
  -21.3671   -5.6802   24.9190 C   0  0  0  0  0  0
  -21.6045   -4.3066   24.7237 C   0  0  0  0  0  0
  -21.8814   -3.8154   23.4363 C   0  0  0  0  0  0
  -21.9193   -4.6966   22.3416 C   0  0  0  0  0  0
  -22.7883  -13.5234   21.1829 C   0  0  0  0  0  0
  -22.1650   -4.2148   21.0989 F   0  0  0  0  0  0
  -21.5640   -3.4554   25.7748 F   0  0  0  0  0  0
  -30.0367  -13.2771   20.4628 N   0  0  0  0  0  0
  -26.3063  -12.9302   20.3417 N   0  0  0  0  0  0
  -25.9342  -11.6458   20.5794 N   0  0  0  0  0  0
  -22.0508  -12.8236   22.0377 N   0  0  0  0  0  0
  -25.4266  -15.1850   20.4066 N   0  0  0  0  0  0
  -31.8581  -14.5383   20.0743 O   0  0  0  0  0  0
  -21.6647   -6.8879   21.4250 O   0  0  0  0  0  0
  -22.3592  -14.5569   20.6723 O   0  0  0  0  0  0
  -24.6158  -31.8723   23.2134 C   0  0  0  0  0  0
  -25.9051  -32.4858   23.8416 C   0  0  1  0  0  0
  -27.2208  -27.4452   20.0762 C   0  0  0  0  0  0
  -25.5915  -33.8655   24.2344 N   0  0  0  0  0  0
  -23.4015  -30.4996   21.5573 C   0  0  2  0  0  0
  -24.8429  -28.9843   20.1104 C   0  0  0  0  0  0
  -22.7435  -29.4678   22.5027 C   0  0  0  0  0  0
  -18.0284  -28.1380   22.8523 C   0  0  0  0  0  0
  -24.1479  -36.7291   23.2634 C   0  0  0  0  0  0
  -25.9340  -30.8421   21.3668 C   0  0  0  0  0  0
  -26.0085  -29.4827   20.7056 C   0  0  0  0  0  0
  -27.2024  -28.7211   20.6863 C   0  0  0  0  0  0
  -26.0277  -26.9786   19.4620 C   0  0  0  0  0  0
  -24.8481  -27.7309   19.4859 C   0  0  0  0  0  0
  -23.6045  -29.8443   20.1686 C   0  0  0  0  0  0
  -25.4109  -36.3126   24.0342 C   0  0  1  0  0  0
  -20.5875  -28.3648   23.1350 C   0  0  2  0  0  0
  -20.6773  -26.9389   22.5434 C   0  0  0  0  0  0
  -19.5736  -26.6389   21.5246 C   0  0  0  0  0  0
  -18.1916  -26.7933   22.1654 C   0  0  0  0  0  0
  -19.1533  -28.8844   23.2930 C   0  0  0  0  0  0
  -18.9459  -30.1452   23.8922 C   0  0  0  0  0  0
  -17.6454  -30.6593   24.0573 C   0  0  0  0  0  0
  -25.9045  -34.9498   23.5131 C   0  0  0  0  0  0
  -16.5347  -29.9084   23.6337 C   0  0  0  0  0  0
  -16.7272  -28.6504   23.0370 C   0  0  0  0  0  0
  -26.4471  -31.6624   25.0731 C   0  0  0  0  0  0
  -25.3730  -31.3734   26.1466 C   0  0  0  0  0  0
  -27.0281  -30.3074   24.6071 C   0  0  0  0  0  0
  -27.6053  -32.4334   25.7496 C   0  0  0  0  0  0
  -27.5581  -37.1800   24.8477 C   0  0  0  0  0  0
  -21.4158  -29.3010   22.3757 N   0  0  0  0  0  0
  -26.4293  -37.3813   23.9412 N   0  0  0  0  0  0
  -24.6692  -31.0844   22.1033 N   0  0  0  0  0  0
  -23.4223  -28.8229   23.3056 O   0  0  0  0  0  0
  -28.3738  -26.6756   20.1081 O   0  0  0  0  0  0
  -26.5592  -34.8949   22.4691 O   0  0  0  0  0  0
  -23.5351  -32.1472   23.7533 O   0  0  0  0  0  0
  -29.7664  -21.1206   21.8052 C   0  0  0  0  0  0
  -29.5054  -21.6863   20.5291 C   0  0  0  0  0  0
  -30.5005  -19.8663   19.5178 C   0  0  0  0  0  0
  -30.6922  -19.2681   20.7935 C   0  0  0  0  0  0
  -29.3371  -21.7826   23.1009 C   0  0  0  0  0  0
  -30.9144  -19.1878   18.2265 C   0  0  0  0  0  0
  -28.9773  -15.7749   22.1598 C   0  0  0  0  0  0
  -28.5946  -22.8857   20.3392 C   0  0  0  0  0  0
  -29.2378  -24.2911   20.3528 C   0  0  0  0  0  0
  -28.1399  -25.2728   19.9262 C   0  0  0  0  0  0
  -30.3939  -16.9530   20.4293 C   0  0  0  0  0  0
  -30.3099  -15.7238   21.3891 C   0  0  1  0  0  0
  -29.9146  -21.0798   19.3883 N   0  0  0  0  0  0
  -30.3708  -19.9158   21.9350 N   0  0  0  0  0  0
  -31.1836  -18.0052   20.9906 O   0  0  0  0  0  0
  -31.2227  -15.9068   22.3495 F   0  0  0  0  0  0
  -31.4610  -12.3807   19.1086 H   0  0  0  0  0  0
  -30.3126  -11.2846   19.7915 H   0  0  0  0  0  0
  -29.7316  -11.8154   17.4087 H   0  0  0  0  0  0
  -29.6752  -13.5190   17.7880 H   0  0  0  0  0  0
  -27.8099  -11.3329   18.7753 H   0  0  0  0  0  0
  -27.3696  -12.6960   17.7800 H   0  0  0  0  0  0
  -27.7249  -14.2569   19.6235 H   0  0  0  0  0  0
  -28.7041  -11.8505   21.2209 H   0  0  0  0  0  0
  -28.4534  -13.3721   21.9365 H   0  0  0  0  0  0
  -25.2767   -9.5661   22.4785 H   0  0  0  0  0  0
  -24.0023   -7.4621   22.7489 H   0  0  0  0  0  0
  -21.0842   -8.8797   19.8956 H   0  0  0  0  0  0
  -22.3735  -10.9698   19.6184 H   0  0  0  0  0  0
  -21.1987   -7.6153   23.9741 H   0  0  0  0  0  0
  -21.1507   -6.0517   25.9100 H   0  0  0  0  0  0
  -22.0576   -2.7616   23.2860 H   0  0  0  0  0  0
  -22.4104  -11.9915   22.4820 H   0  0  0  0  0  0
  -21.1140  -13.1308   22.2581 H   0  0  0  0  0  0
  -24.6544  -15.8331   20.5181 H   0  0  0  0  0  0
  -26.2670  -15.6331   20.0675 H   0  0  0  0  0  0
  -26.7131  -32.5571   23.1186 H   0  0  0  0  0  0
  -25.0092  -33.9825   25.0505 H   0  0  0  0  0  0
  -22.6880  -31.3154   21.4259 H   0  0  0  0  0  0
  -23.3769  -35.9598   23.3327 H   0  0  0  0  0  0
  -24.3568  -36.8874   22.2044 H   0  0  0  0  0  0
  -23.7214  -37.6499   23.6620 H   0  0  0  0  0  0
  -26.0474  -31.6150   20.6061 H   0  0  0  0  0  0
  -26.8220  -30.8892   21.9844 H   0  0  0  0  0  0
  -28.1023  -29.0986   21.1514 H   0  0  0  0  0  0
  -25.9665  -26.0271   18.9550 H   0  0  0  0  0  0
  -23.9532  -27.3450   19.0159 H   0  0  0  0  0  0
  -23.7025  -30.6209   19.4094 H   0  0  0  0  0  0
  -22.7313  -29.2574   19.8792 H   0  0  0  0  0  0
  -25.1296  -36.1990   25.0839 H   0  0  0  0  0  0
  -20.9970  -28.3188   24.1468 H   0  0  0  0  0  0
  -20.5726  -26.2239   23.3610 H   0  0  0  0  0  0
  -21.6635  -26.7461   22.1187 H   0  0  0  0  0  0
  -19.6884  -25.6316   21.1240 H   0  0  0  0  0  0
  -19.6663  -27.3236   20.6805 H   0  0  0  0  0  0
  -17.4191  -26.6723   21.4038 H   0  0  0  0  0  0
  -18.0275  -26.0070   22.9037 H   0  0  0  0  0  0
  -19.7930  -30.7281   24.2285 H   0  0  0  0  0  0
  -17.5004  -31.6280   24.5155 H   0  0  0  0  0  0
  -15.5345  -30.2991   23.7655 H   0  0  0  0  0  0
  -15.8673  -28.0829   22.7066 H   0  0  0  0  0  0
  -24.5909  -30.7079   25.7789 H   0  0  0  0  0  0
  -24.8904  -32.2893   26.4889 H   0  0  0  0  0  0
  -25.8066  -30.8918   27.0236 H   0  0  0  0  0  0
  -26.2802  -29.6872   24.1107 H   0  0  0  0  0  0
  -27.4058  -29.7275   25.4503 H   0  0  0  0  0  0
  -27.8650  -30.4418   23.9211 H   0  0  0  0  0  0
  -27.2674  -33.3629   26.2091 H   0  0  0  0  0  0
  -28.3847  -32.6896   25.0307 H   0  0  0  0  0  0
  -28.0725  -31.8443   26.5396 H   0  0  0  0  0  0
  -28.2629  -38.0069   24.7527 H   0  0  0  0  0  0
  -28.1048  -36.2611   24.6308 H   0  0  0  0  0  0
  -27.2292  -37.1463   25.8878 H   0  0  0  0  0  0
  -20.9327  -29.8700   21.6950 H   0  0  0  0  0  0
  -26.0193  -38.2896   24.1413 H   0  0  0  0  0  0
  -29.8426  -21.3330   23.9576 H   0  0  0  0  0  0
  -28.2622  -21.6751   23.2454 H   0  0  0  0  0  0
  -29.5845  -22.8438   23.0971 H   0  0  0  0  0  0
  -31.8322  -18.6176   18.3689 H   0  0  0  0  0  0
  -30.1304  -18.5067   17.8952 H   0  0  0  0  0  0
  -31.0918  -19.9129   17.4304 H   0  0  0  0  0  0
  -28.1180  -15.5545   21.5300 H   0  0  0  0  0  0
  -28.8120  -16.7809   22.5494 H   0  0  0  0  0  0
  -28.9832  -15.1169   23.0278 H   0  0  0  0  0  0
  -27.7989  -22.8257   21.0810 H   0  0  0  0  0  0
  -28.0851  -22.7464   19.3832 H   0  0  0  0  0  0
  -30.0802  -24.3490   19.6642 H   0  0  0  0  0  0
  -29.6096  -24.5332   21.3486 H   0  0  0  0  0  0
  -27.2589  -25.0062   20.5152 H   0  0  0  0  0  0
  -27.9074  -25.0807   18.8778 H   0  0  0  0  0  0
  -29.3827  -17.2945   20.1940 H   0  0  0  0  0  0
  -30.8351  -16.7011   19.4636 H   0  0  0  0  0  0
  1 25  1  0  0  0
  1 30  2  0  0  0
  1 82  1  0  0  0
  2  3  1  0  0  0
  2 25  1  0  0  0
  2 87  1  0  0  0
  2 88  1  0  0  0
  3  4  1  0  0  0
  3 89  1  0  0  0
  3 90  1  0  0  0
  4  5  1  0  0  0
  4 91  1  0  0  0
  4 92  1  0  0  0
  5  6  1  0  0  0
  5 26  1  0  0  0
  5 93  1  0  0  0
  6 25  1  0  0  0
  6 94  1  0  0  0
  6 95  1  0  0  0
  7  8  2  0  0  0
  7 26  1  0  0  0
  7 29  1  0  0  0
  8  9  1  0  0  0
  8 22  1  0  0  0
  9 10  1  0  0  0
  9 27  2  0  0  0
 10 11  2  0  0  0
 10 15  1  0  0  0
 11 12  1  0  0  0
 11 96  1  0  0  0
 12 13  2  0  0  0
 12 97  1  0  0  0
 13 14  1  0  0  0
 13 31  1  0  0  0
 14 15  2  0  0  0
 14 98  1  0  0  0
 15 99  1  0  0  0
 16 17  2  0  0  0
 16 21  1  0  0  0
 16 31  1  0  0  0
 17 18  1  0  0  0
 17100  1  0  0  0
 18 19  2  0  0  0
 18101  1  0  0  0
 19 20  1  0  0  0
 19 24  1  0  0  0
 20 21  2  0  0  0
 20102  1  0  0  0
 21 23  1  0  0  0
 22 28  1  0  0  0
 22 32  2  0  0  0
 26 27  1  0  0  0
 28103  1  0  0  0
 28104  1  0  0  0
 29105  1  0  0  0
 29106  1  0  0  0
 33 34  1  0  0  0
 33 66  1  0  0  0
 33 70  2  0  0  0
 34 36  1  0  0  0
 34 59  1  0  0  0
 34107  1  0  0  0
 35 44  2  0  0  0
 35 45  1  0  0  0
 35 68  1  0  0  0
 36 56  1  0  0  0
 36108  1  0  0  0
 37 39  1  0  0  0
 37 47  1  0  0  0
 37 66  1  0  0  0
 37109  1  0  0  0
 38 43  2  0  0  0
 38 46  1  0  0  0
 38 47  1  0  0  0
 39 64  1  0  0  0
 39 67  2  0  0  0
 40 52  1  0  0  0
 40 53  2  0  0  0
 40 58  1  0  0  0
 41110  1  0  0  0
 41111  1  0  0  0
 41112  1  0  0  0
 41 48  1  0  0  0
 42 43  1  0  0  0
 42 66  1  0  0  0
 42113  1  0  0  0
 42114  1  0  0  0
 43 44  1  0  0  0
 44115  1  0  0  0
 45 46  2  0  0  0
 45116  1  0  0  0
 46117  1  0  0  0
 47118  1  0  0  0
 47119  1  0  0  0
 48 56  1  0  0  0
 48 65  1  0  0  0
 48120  1  0  0  0
 49 50  1  0  0  0
 49 53  1  0  0  0
 49 64  1  0  0  0
 49121  1  0  0  0
 50 51  1  0  0  0
 50122  1  0  0  0
 50123  1  0  0  0
 51 52  1  0  0  0
 51124  1  0  0  0
 51125  1  0  0  0
 52126  1  0  0  0
 52127  1  0  0  0
 53 54  1  0  0  0
 54 55  2  0  0  0
 54128  1  0  0  0
 55 57  1  0  0  0
 55129  1  0  0  0
 56 69  2  0  0  0
 57 58  2  0  0  0
 57130  1  0  0  0
 58131  1  0  0  0
 59 60  1  0  0  0
 59 61  1  0  0  0
 59 62  1  0  0  0
 60132  1  0  0  0
 60133  1  0  0  0
 60134  1  0  0  0
 61135  1  0  0  0
 61136  1  0  0  0
 61137  1  0  0  0
 62138  1  0  0  0
 62139  1  0  0  0
 62140  1  0  0  0
 63 65  1  0  0  0
 63141  1  0  0  0
 63142  1  0  0  0
 63143  1  0  0  0
 64144  1  0  0  0
 65145  1  0  0  0
 68 80  1  0  0  0
 71 72  2  0  0  0
 71 75  1  0  0  0
 71 84  1  0  0  0
 72 78  1  0  0  0
 72 83  1  0  0  0
 73 74  1  0  0  0
 73 76  1  0  0  0
 73 83  2  0  0  0
 74 84  2  0  0  0
 74 85  1  0  0  0
 75146  1  0  0  0
 75147  1  0  0  0
 75148  1  0  0  0
 76149  1  0  0  0
 76150  1  0  0  0
 76151  1  0  0  0
 77152  1  0  0  0
 77153  1  0  0  0
 77154  1  0  0  0
 77 82  1  0  0  0
 78 79  1  0  0  0
 78155  1  0  0  0
 78156  1  0  0  0
 79 80  1  0  0  0
 79157  1  0  0  0
 79158  1  0  0  0
 80159  1  0  0  0
 80160  1  0  0  0
 81 82  1  0  0  0
 81 85  1  0  0  0
 81161  1  0  0  0
 81162  1  0  0  0
 82 86  1  0  0  0
M  ISO  4   1 100  68 101  80 101  82 100
M  END
> <chiral flag>
0

> <version>
0

> <s_m_source_file>
/data/baiqing/PycharmProjects/Reinvent-master-3.2/result/LINK_invent/BTK/process_docking_weight1_custom_sum_contain_oxygen_bond_distance_aromatic_linkinvent_7_9_3/rearranged_h_0075.sdf

> <i_m_source_file_index>
83

> <r_mmod_Potential_Energy-OPLS-2005>
99.3654098510742

> <r_mmod_Stretch_Energy-OPLS-2005>
41.3031272888184

> <r_mmod_Bend_Energy-OPLS-2005>
137.162933349609

> <r_mmod_Torsional_Energy-OPLS-2005>
211.118377685547

> <r_mmod_Improper_Torsional_Energy-OPLS-2005>
2.83622169494629

> <r_mmod_Van_der_Waal_Energy-OPLS-2005>
184.991195678711

> <r_mmod_Electrostatic_Energy-OPLS-2005>
-280.335174560547

> <r_mmod_Solvation_Energy-OPLS-2005>
-211.363662719727

> <b_mmod_Minimization_Converged-OPLS-2005>
0

> <r_mmod_RMS_Derivative-OPLS-2005>
2.53059363365173

$$$$
84
                    3D
 Structure written by MMmdl.
165173  0  0  1  0            999 V2000
  -30.6917  -14.5648   20.5193 C   0  0  0  0  0  0
  -30.4194  -12.3465   19.4574 C   0  0  0  0  0  0
  -29.5006  -12.5019   18.2260 C   0  0  0  0  0  0
  -28.0211  -12.3572   18.6326 C   0  0  0  0  0  0
  -27.6535  -13.2247   19.8668 C   0  0  2  0  0  0
  -28.6987  -13.0672   20.9944 C   0  0  0  0  0  0
  -25.2549  -13.8195   20.5729 C   0  0  0  0  0  0
  -24.1819  -13.0448   20.9195 C   0  0  0  0  0  0
  -24.6392  -11.6918   20.8737 C   0  0  0  0  0  0
  -23.9064  -10.4296   21.0394 C   0  0  0  0  0  0
  -24.3617   -9.4213   21.9174 C   0  0  0  0  0  0
  -23.6297   -8.2247   22.0742 C   0  0  0  0  0  0
  -22.4276   -8.0285   21.3536 C   0  0  0  0  0  0
  -21.9913   -9.0256   20.4638 C   0  0  0  0  0  0
  -22.7237  -10.2135   20.3046 C   0  0  0  0  0  0
  -21.6855   -6.0741   22.5282 C   0  0  0  0  0  0
  -21.4012   -6.5641   23.8216 C   0  0  0  0  0  0
  -21.3659   -5.6793   24.9176 C   0  0  0  0  0  0
  -21.6044   -4.3057   24.7226 C   0  0  0  0  0  0
  -21.8819   -3.8150   23.4347 C   0  0  0  0  0  0
  -21.9191   -4.6969   22.3404 C   0  0  0  0  0  0
  -22.7838  -13.5224   21.1866 C   0  0  0  0  0  0
  -22.1662   -4.2158   21.0981 F   0  0  0  0  0  0
  -21.5629   -3.4537   25.7735 F   0  0  0  0  0  0
  -30.0223  -13.3747   20.4372 N   0  0  0  0  0  0
  -26.2993  -12.9404   20.3358 N   0  0  0  0  0  0
  -25.9326  -11.6544   20.5770 N   0  0  0  0  0  0
  -22.0485  -12.8204   22.0417 N   0  0  0  0  0  0
  -25.4260  -15.1925   20.4189 N   0  0  0  0  0  0
  -31.8456  -14.6598   20.0929 O   0  0  0  0  0  0
  -21.6637   -6.8884   21.4242 O   0  0  0  0  0  0
  -22.3514  -14.5533   20.6721 O   0  0  0  0  0  0
  -24.6199  -31.8666   23.2091 C   0  0  0  0  0  0
  -25.9072  -32.4806   23.8387 C   0  0  1  0  0  0
  -27.2057  -27.3684   20.0904 C   0  0  0  0  0  0
  -25.5918  -33.8607   24.2304 N   0  0  0  0  0  0
  -23.4098  -30.4978   21.5506 C   0  0  2  0  0  0
  -24.8508  -28.9739   20.1026 C   0  0  0  0  0  0
  -22.7445  -29.4679   22.4943 C   0  0  0  0  0  0
  -18.0291  -28.1395   22.8479 C   0  0  0  0  0  0
  -24.1478  -36.7336   23.2631 C   0  0  0  0  0  0
  -25.9480  -30.8104   21.3753 C   0  0  0  0  0  0
  -26.0179  -29.4441   20.7157 C   0  0  0  0  0  0
  -27.1981  -28.6486   20.7133 C   0  0  0  0  0  0
  -26.0199  -26.9653   19.4242 C   0  0  0  0  0  0
  -24.8514  -27.7371   19.4500 C   0  0  0  0  0  0
  -23.6159  -29.8452   20.1607 C   0  0  0  0  0  0
  -25.4096  -36.3108   24.0325 C   0  0  1  0  0  0
  -20.5886  -28.3705   23.1280 C   0  0  2  0  0  0
  -20.6783  -26.9433   22.5410 C   0  0  0  0  0  0
  -19.5765  -26.6393   21.5206 C   0  0  0  0  0  0
  -18.1938  -26.7939   22.1617 C   0  0  0  0  0  0
  -19.1546  -28.8859   23.2877 C   0  0  0  0  0  0
  -18.9471  -30.1459   23.8897 C   0  0  0  0  0  0
  -17.6472  -30.6589   24.0571 C   0  0  0  0  0  0
  -25.9048  -34.9472   23.5118 C   0  0  0  0  0  0
  -16.5361  -29.9094   23.6340 C   0  0  0  0  0  0
  -16.7280  -28.6520   23.0343 C   0  0  0  0  0  0
  -26.4455  -31.6605   25.0746 C   0  0  0  0  0  0
  -25.3717  -31.3749   26.1501 C   0  0  0  0  0  0
  -27.0270  -30.3027   24.6175 C   0  0  0  0  0  0
  -27.6010  -32.4335   25.7531 C   0  0  0  0  0  0
  -27.5572  -37.1804   24.8446 C   0  0  0  0  0  0
  -21.4172  -29.3065   22.3678 N   0  0  0  0  0  0
  -26.4279  -37.3791   23.9400 N   0  0  0  0  0  0
  -24.6778  -31.0731   22.1019 N   0  0  0  0  0  0
  -23.4198  -28.8195   23.2984 O   0  0  0  0  0  0
  -28.3175  -26.5201   20.1591 O   0  0  0  0  0  0
  -26.5617  -34.8928   22.4690 O   0  0  0  0  0  0
  -23.5377  -32.1447   23.7450 O   0  0  0  0  0  0
  -30.2506  -20.7889   19.4168 C   0  0  0  0  0  0
  -30.6294  -19.4238   19.4428 C   0  0  0  0  0  0
  -29.0360  -21.2045   19.9980 C   0  0  0  0  0  0
  -29.7651  -18.4686   20.0444 C   0  0  0  0  0  0
  -28.3019  -20.2032   20.6945 C   0  0  0  0  0  0
  -31.9124  -19.0232   18.7283 C   0  0  0  0  0  0
  -27.1354  -20.0704   22.9435 C   0  0  0  0  0  0
  -30.8167  -16.4835   22.1892 C   0  0  0  0  0  0
  -28.4575  -22.6017   19.6333 C   0  0  0  0  0  0
  -29.9062  -16.9350   19.8011 C   0  0  0  0  0  0
  -27.0255  -20.5041   21.4748 C   0  0  0  0  0  0
  -28.9723  -23.9346   20.2895 C   0  0  0  0  0  0
  -28.0632  -25.1206   19.8149 C   0  0  0  0  0  0
  -30.0296  -15.9068   20.9937 C   0  0  1  0  0  0
  -28.6430  -18.8844   20.6746 N   0  0  0  0  0  0
  -31.4667  -12.4246   19.1617 H   0  0  0  0  0  0
  -30.3127  -11.3530   19.8964 H   0  0  0  0  0  0
  -29.7554  -11.7596   17.4690 H   0  0  0  0  0  0
  -29.6601  -13.4791   17.7673 H   0  0  0  0  0  0
  -27.8418  -11.3043   18.8543 H   0  0  0  0  0  0
  -27.3719  -12.6044   17.7921 H   0  0  0  0  0  0
  -27.6773  -14.2631   19.5355 H   0  0  0  0  0  0
  -28.6904  -12.0435   21.3720 H   0  0  0  0  0  0
  -28.4589  -13.6934   21.8530 H   0  0  0  0  0  0
  -25.2757   -9.5694   22.4752 H   0  0  0  0  0  0
  -24.0012   -7.4634   22.7454 H   0  0  0  0  0  0
  -21.0851   -8.8768   19.8943 H   0  0  0  0  0  0
  -22.3690  -10.9672   19.6160 H   0  0  0  0  0  0
  -21.2003   -7.6145   23.9724 H   0  0  0  0  0  0
  -21.1482   -6.0517   25.9079 H   0  0  0  0  0  0
  -22.0599   -2.7614   23.2840 H   0  0  0  0  0  0
  -22.4109  -11.9860   22.4792 H   0  0  0  0  0  0
  -21.1103  -13.1221   22.2634 H   0  0  0  0  0  0
  -24.6648  -15.8504   20.5451 H   0  0  0  0  0  0
  -26.2938  -15.6390   20.1501 H   0  0  0  0  0  0
  -26.7142  -32.5475   23.1137 H   0  0  0  0  0  0
  -24.9989  -33.9740   25.0393 H   0  0  0  0  0  0
  -22.7001  -31.3175   21.4150 H   0  0  0  0  0  0
  -23.3716  -35.9693   23.3306 H   0  0  0  0  0  0
  -24.3577  -36.8975   22.2045 H   0  0  0  0  0  0
  -23.7251  -37.6546   23.6668 H   0  0  0  0  0  0
  -26.0712  -31.5758   20.6072 H   0  0  0  0  0  0
  -26.8310  -30.8568   22.0001 H   0  0  0  0  0  0
  -28.0898  -28.9978   21.2137 H   0  0  0  0  0  0
  -25.9432  -26.0406   18.8718 H   0  0  0  0  0  0
  -23.9622  -27.3811   18.9494 H   0  0  0  0  0  0
  -23.7217  -30.6249   19.4049 H   0  0  0  0  0  0
  -22.7345  -29.2724   19.8661 H   0  0  0  0  0  0
  -25.1259  -36.1972   25.0812 H   0  0  0  0  0  0
  -20.9978  -28.3288   24.1406 H   0  0  0  0  0  0
  -20.5697  -26.2315   23.3608 H   0  0  0  0  0  0
  -21.6650  -26.7482   22.1197 H   0  0  0  0  0  0
  -19.6953  -25.6306   21.1237 H   0  0  0  0  0  0
  -19.6707  -27.3211   20.6731 H   0  0  0  0  0  0
  -17.4214  -26.6686   21.4011 H   0  0  0  0  0  0
  -18.0345  -26.0078   22.9012 H   0  0  0  0  0  0
  -19.7957  -30.7264   24.2267 H   0  0  0  0  0  0
  -17.5042  -31.6270   24.5181 H   0  0  0  0  0  0
  -15.5371  -30.2988   23.7672 H   0  0  0  0  0  0
  -15.8685  -28.0841   22.7037 H   0  0  0  0  0  0
  -24.5881  -30.7084   25.7874 H   0  0  0  0  0  0
  -24.8895  -32.2915   26.4919 H   0  0  0  0  0  0
  -25.8067  -30.8957   27.0286 H   0  0  0  0  0  0
  -26.2833  -29.6804   24.1180 H   0  0  0  0  0  0
  -27.3926  -29.7236   25.4663 H   0  0  0  0  0  0
  -27.8732  -30.4281   23.9414 H   0  0  0  0  0  0
  -27.2601  -33.3613   26.2137 H   0  0  0  0  0  0
  -28.3821  -32.6950   25.0384 H   0  0  0  0  0  0
  -28.0694  -31.8462   26.5439 H   0  0  0  0  0  0
  -28.2563  -38.0113   24.7504 H   0  0  0  0  0  0
  -28.1091  -36.2650   24.6259 H   0  0  0  0  0  0
  -27.2318  -37.1471   25.8854 H   0  0  0  0  0  0
  -20.9340  -29.8823   21.6924 H   0  0  0  0  0  0
  -26.0175  -38.2872   24.1406 H   0  0  0  0  0  0
  -30.8463  -21.5049   18.8676 H   0  0  0  0  0  0
  -32.5748  -19.8811   18.6069 H   0  0  0  0  0  0
  -31.6914  -18.6322   17.7343 H   0  0  0  0  0  0
  -32.4656  -18.2673   19.2869 H   0  0  0  0  0  0
  -26.2572  -20.3801   23.5087 H   0  0  0  0  0  0
  -28.0126  -20.5132   23.4153 H   0  0  0  0  0  0
  -27.2202  -18.9863   23.0270 H   0  0  0  0  0  0
  -30.2735  -17.3005   22.6650 H   0  0  0  0  0  0
  -31.7892  -16.8678   21.8774 H   0  0  0  0  0  0
  -30.9921  -15.7249   22.9537 H   0  0  0  0  0  0
  -27.3710  -22.5608   19.7070 H   0  0  0  0  0  0
  -28.6145  -22.7063   18.5591 H   0  0  0  0  0  0
  -30.7421  -16.7778   19.1232 H   0  0  0  0  0  0
  -29.0448  -16.6388   19.2021 H   0  0  0  0  0  0
  -26.1780  -20.0107   20.9962 H   0  0  0  0  0  0
  -26.7990  -21.5681   21.4757 H   0  0  0  0  0  0
  -30.0133  -24.1158   20.0231 H   0  0  0  0  0  0
  -28.9278  -23.8605   21.3767 H   0  0  0  0  0  0
  -27.0856  -24.8392   20.2100 H   0  0  0  0  0  0
  -27.9971  -25.0760   18.7261 H   0  0  0  0  0  0
  -29.0203  -15.7213   21.3537 H   0  0  0  0  0  0
  1 25  1  0  0  0
  1 30  2  0  0  0
  1 84  1  0  0  0
  2  3  1  0  0  0
  2 25  1  0  0  0
  2 86  1  0  0  0
  2 87  1  0  0  0
  3  4  1  0  0  0
  3 88  1  0  0  0
  3 89  1  0  0  0
  4  5  1  0  0  0
  4 90  1  0  0  0
  4 91  1  0  0  0
  5  6  1  0  0  0
  5 26  1  0  0  0
  5 92  1  0  0  0
  6 25  1  0  0  0
  6 93  1  0  0  0
  6 94  1  0  0  0
  7  8  2  0  0  0
  7 26  1  0  0  0
  7 29  1  0  0  0
  8  9  1  0  0  0
  8 22  1  0  0  0
  9 10  1  0  0  0
  9 27  2  0  0  0
 10 11  2  0  0  0
 10 15  1  0  0  0
 11 12  1  0  0  0
 11 95  1  0  0  0
 12 13  2  0  0  0
 12 96  1  0  0  0
 13 14  1  0  0  0
 13 31  1  0  0  0
 14 15  2  0  0  0
 14 97  1  0  0  0
 15 98  1  0  0  0
 16 17  2  0  0  0
 16 21  1  0  0  0
 16 31  1  0  0  0
 17 18  1  0  0  0
 17 99  1  0  0  0
 18 19  2  0  0  0
 18100  1  0  0  0
 19 20  1  0  0  0
 19 24  1  0  0  0
 20 21  2  0  0  0
 20101  1  0  0  0
 21 23  1  0  0  0
 22 28  1  0  0  0
 22 32  2  0  0  0
 26 27  1  0  0  0
 28102  1  0  0  0
 28103  1  0  0  0
 29104  1  0  0  0
 29105  1  0  0  0
 33 34  1  0  0  0
 33 66  1  0  0  0
 33 70  2  0  0  0
 34 36  1  0  0  0
 34 59  1  0  0  0
 34106  1  0  0  0
 35 44  2  0  0  0
 35 45  1  0  0  0
 35 68  1  0  0  0
 36 56  1  0  0  0
 36107  1  0  0  0
 37 39  1  0  0  0
 37 47  1  0  0  0
 37 66  1  0  0  0
 37108  1  0  0  0
 38 43  2  0  0  0
 38 46  1  0  0  0
 38 47  1  0  0  0
 39 64  1  0  0  0
 39 67  2  0  0  0
 40 52  1  0  0  0
 40 53  2  0  0  0
 40 58  1  0  0  0
 41109  1  0  0  0
 41110  1  0  0  0
 41111  1  0  0  0
 41 48  1  0  0  0
 42 43  1  0  0  0
 42 66  1  0  0  0
 42112  1  0  0  0
 42113  1  0  0  0
 43 44  1  0  0  0
 44114  1  0  0  0
 45 46  2  0  0  0
 45115  1  0  0  0
 46116  1  0  0  0
 47117  1  0  0  0
 47118  1  0  0  0
 48 56  1  0  0  0
 48 65  1  0  0  0
 48119  1  0  0  0
 49 50  1  0  0  0
 49 53  1  0  0  0
 49 64  1  0  0  0
 49120  1  0  0  0
 50 51  1  0  0  0
 50121  1  0  0  0
 50122  1  0  0  0
 51 52  1  0  0  0
 51123  1  0  0  0
 51124  1  0  0  0
 52125  1  0  0  0
 52126  1  0  0  0
 53 54  1  0  0  0
 54 55  2  0  0  0
 54127  1  0  0  0
 55 57  1  0  0  0
 55128  1  0  0  0
 56 69  2  0  0  0
 57 58  2  0  0  0
 57129  1  0  0  0
 58130  1  0  0  0
 59 60  1  0  0  0
 59 61  1  0  0  0
 59 62  1  0  0  0
 60131  1  0  0  0
 60132  1  0  0  0
 60133  1  0  0  0
 61134  1  0  0  0
 61135  1  0  0  0
 61136  1  0  0  0
 62137  1  0  0  0
 62138  1  0  0  0
 62139  1  0  0  0
 63 65  1  0  0  0
 63140  1  0  0  0
 63141  1  0  0  0
 63142  1  0  0  0
 64143  1  0  0  0
 65144  1  0  0  0
 68 83  1  0  0  0
 71 72  2  0  0  0
 71 73  1  0  0  0
 71145  1  0  0  0
 72 74  1  0  0  0
 72 76  1  0  0  0
 73 75  2  0  0  0
 73 79  1  0  0  0
 74 80  1  0  0  0
 74 85  2  0  0  0
 75 81  1  0  0  0
 75 85  1  0  0  0
 76146  1  0  0  0
 76147  1  0  0  0
 76148  1  0  0  0
 77 81  1  0  0  0
 77149  1  0  0  0
 77150  1  0  0  0
 77151  1  0  0  0
 78152  1  0  0  0
 78153  1  0  0  0
 78154  1  0  0  0
 78 84  1  0  0  0
 79 82  1  0  0  0
 79155  1  0  0  0
 79156  1  0  0  0
 80 84  1  0  0  0
 80157  1  0  0  0
 80158  1  0  0  0
 81159  1  0  0  0
 81160  1  0  0  0
 82 83  1  0  0  0
 82161  1  0  0  0
 82162  1  0  0  0
 83163  1  0  0  0
 83164  1  0  0  0
 84165  1  0  0  0
M  ISO  4   1 100  68 101  83 101  84 100
M  END
> <chiral flag>
0

> <version>
0

> <s_m_source_file>
/data/baiqing/PycharmProjects/Reinvent-master-3.2/result/LINK_invent/BTK/process_docking_weight1_custom_sum_contain_oxygen_bond_distance_aromatic_linkinvent_7_9_3/rearranged_h_0075.sdf

> <i_m_source_file_index>
84

> <r_mmod_Potential_Energy-OPLS-2005>
-134.990432739258

> <r_mmod_Stretch_Energy-OPLS-2005>
58.6974792480469

> <r_mmod_Bend_Energy-OPLS-2005>
140.99983215332

> <r_mmod_Torsional_Energy-OPLS-2005>
182.523071289062

> <r_mmod_Improper_Torsional_Energy-OPLS-2005>
5.94323110580444

> <r_mmod_Van_der_Waal_Energy-OPLS-2005>
159.412338256836

> <r_mmod_Electrostatic_Energy-OPLS-2005>
-519.692138671875

> <r_mmod_Solvation_Energy-OPLS-2005>
-196.733047485352

> <b_mmod_Minimization_Converged-OPLS-2005>
0

> <r_mmod_RMS_Derivative-OPLS-2005>
2.35005760192871

$$$$
85
                    3D
 Structure written by MMmdl.
166174  0  0  1  0            999 V2000
  -30.7405  -14.4697   20.5863 C   0  0  0  0  0  0
  -30.4114  -12.3099   19.4134 C   0  0  0  0  0  0
  -29.4813  -12.5031   18.1987 C   0  0  0  0  0  0
  -28.0056  -12.3597   18.6153 C   0  0  0  0  0  0
  -27.6577  -13.2126   19.8621 C   0  0  2  0  0  0
  -28.7024  -13.0130   20.9822 C   0  0  0  0  0  0
  -25.2566  -13.8205   20.5670 C   0  0  0  0  0  0
  -24.1830  -13.0453   20.9146 C   0  0  0  0  0  0
  -24.6397  -11.6924   20.8727 C   0  0  0  0  0  0
  -23.9074  -10.4298   21.0403 C   0  0  0  0  0  0
  -24.3624   -9.4209   21.9186 C   0  0  0  0  0  0
  -23.6281   -8.2259   22.0777 C   0  0  0  0  0  0
  -22.4274   -8.0289   21.3572 C   0  0  0  0  0  0
  -21.9902   -9.0259   20.4672 C   0  0  0  0  0  0
  -22.7250  -10.2133   20.3057 C   0  0  0  0  0  0
  -21.6847   -6.0733   22.5287 C   0  0  0  0  0  0
  -21.4013   -6.5638   23.8208 C   0  0  0  0  0  0
  -21.3645   -5.6799   24.9178 C   0  0  0  0  0  0
  -21.6041   -4.3054   24.7235 C   0  0  0  0  0  0
  -21.8814   -3.8146   23.4361 C   0  0  0  0  0  0
  -21.9186   -4.6951   22.3412 C   0  0  0  0  0  0
  -22.7845  -13.5229   21.1790 C   0  0  0  0  0  0
  -22.1647   -4.2132   21.0984 F   0  0  0  0  0  0
  -21.5631   -3.4540   25.7754 F   0  0  0  0  0  0
  -30.0394  -13.3063   20.4346 N   0  0  0  0  0  0
  -26.3004  -12.9389   20.3336 N   0  0  0  0  0  0
  -25.9330  -11.6533   20.5782 N   0  0  0  0  0  0
  -22.0518  -12.8250   22.0388 N   0  0  0  0  0  0
  -25.4258  -15.1936   20.4102 N   0  0  0  0  0  0
  -31.8063  -14.6753   19.9971 O   0  0  0  0  0  0
  -21.6646   -6.8883   21.4254 O   0  0  0  0  0  0
  -22.3508  -14.5500   20.6605 O   0  0  0  0  0  0
  -24.6153  -31.8655   23.2124 C   0  0  0  0  0  0
  -25.9021  -32.4827   23.8451 C   0  0  1  0  0  0
  -27.2400  -27.4288   20.0954 C   0  0  0  0  0  0
  -25.5884  -33.8640   24.2364 N   0  0  0  0  0  0
  -23.4075  -30.4872   21.5538 C   0  0  2  0  0  0
  -24.8526  -28.9557   20.1103 C   0  0  0  0  0  0
  -22.7432  -29.4619   22.4994 C   0  0  0  0  0  0
  -18.0245  -28.1385   22.8476 C   0  0  0  0  0  0
  -24.1480  -36.7333   23.2651 C   0  0  0  0  0  0
  -25.9348  -30.8264   21.3709 C   0  0  0  0  0  0
  -26.0074  -29.4602   20.7189 C   0  0  0  0  0  0
  -27.1958  -28.6983   20.7179 C   0  0  0  0  0  0
  -26.0651  -26.9372   19.4823 C   0  0  0  0  0  0
  -24.8766  -27.6944   19.4905 C   0  0  0  0  0  0
  -23.6162  -29.8247   20.1652 C   0  0  0  0  0  0
  -25.4097  -36.3144   24.0360 C   0  0  1  0  0  0
  -20.5852  -28.3662   23.1325 C   0  0  2  0  0  0
  -20.6733  -26.9385   22.5429 C   0  0  0  0  0  0
  -19.5717  -26.6358   21.5235 C   0  0  0  0  0  0
  -18.1883  -26.7926   22.1616 C   0  0  0  0  0  0
  -19.1506  -28.8840   23.2895 C   0  0  0  0  0  0
  -18.9435  -30.1440   23.8900 C   0  0  0  0  0  0
  -17.6442  -30.6585   24.0564 C   0  0  0  0  0  0
  -25.9024  -34.9491   23.5180 C   0  0  0  0  0  0
  -16.5327  -29.9079   23.6343 C   0  0  0  0  0  0
  -16.7237  -28.6512   23.0347 C   0  0  0  0  0  0
  -26.4450  -31.6615   25.0794 C   0  0  0  0  0  0
  -25.3699  -31.3634   26.1531 C   0  0  0  0  0  0
  -27.0314  -30.3095   24.6145 C   0  0  0  0  0  0
  -27.6090  -32.4300   25.7490 C   0  0  0  0  0  0
  -27.5572  -37.1823   24.8472 C   0  0  0  0  0  0
  -21.4153  -29.3043   22.3762 N   0  0  0  0  0  0
  -26.4290  -37.3828   23.9416 N   0  0  0  0  0  0
  -24.6711  -31.0732   22.1047 N   0  0  0  0  0  0
  -23.4183  -28.8136   23.3027 O   0  0  0  0  0  0
  -28.4214  -26.7153   20.1375 O   0  0  0  0  0  0
  -26.5603  -34.8918   22.4740 O   0  0  0  0  0  0
  -23.5340  -32.1410   23.7482 O   0  0  0  0  0  0
  -27.9415  -21.2325   20.9188 C   0  0  0  0  0  0
  -29.0649  -22.0997   20.8210 C   0  0  0  0  0  0
  -30.4671  -20.2589   21.0885 C   0  0  0  0  0  0
  -29.3445  -19.3896   21.2028 C   0  0  0  0  0  0
  -26.5072  -21.7312   20.9106 C   0  0  0  0  0  0
  -32.6856  -19.6597   19.9856 C   0  0  0  0  0  0
  -30.1536  -15.3417   22.7507 C   0  0  0  0  0  0
  -31.9040  -19.8050   21.3006 C   0  0  0  0  0  0
  -28.9757  -23.6393   20.7671 C   0  0  0  0  0  0
  -29.4307  -17.9244   21.6777 C   0  0  0  0  0  0
  -28.2800  -24.2479   19.5256 C   0  0  0  0  0  0
  -30.1054  -16.8624   20.7474 C   0  0  0  0  0  0
  -28.6916  -25.7009   19.1607 C   0  0  0  0  0  0
  -28.0870  -19.8892   21.0764 N   0  0  0  0  0  0
  -30.3212  -21.5908   20.8644 N   0  0  0  0  0  0
  -30.1401  -15.4673   21.2875 N   0  0  0  0  0  0
  -31.4556  -12.3844   19.1047 H   0  0  0  0  0  0
  -30.2967  -11.3055   19.8213 H   0  0  0  0  0  0
  -29.7150  -11.7773   17.4180 H   0  0  0  0  0  0
  -29.6424  -13.4883   17.7585 H   0  0  0  0  0  0
  -27.8162  -11.3073   18.8244 H   0  0  0  0  0  0
  -27.3492  -12.6240   17.7855 H   0  0  0  0  0  0
  -27.6937  -14.2566   19.5473 H   0  0  0  0  0  0
  -28.6807  -11.9888   21.3523 H   0  0  0  0  0  0
  -28.4410  -13.6364   21.8334 H   0  0  0  0  0  0
  -25.2776   -9.5678   22.4743 H   0  0  0  0  0  0
  -23.9973   -7.4668   22.7526 H   0  0  0  0  0  0
  -21.0820   -8.8791   19.9002 H   0  0  0  0  0  0
  -22.3711  -10.9661   19.6148 H   0  0  0  0  0  0
  -21.2008   -7.6145   23.9709 H   0  0  0  0  0  0
  -21.1467   -6.0529   25.9071 H   0  0  0  0  0  0
  -22.0603   -2.7598   23.2875 H   0  0  0  0  0  0
  -22.4121  -11.9890   22.4740 H   0  0  0  0  0  0
  -21.1161  -13.1341   22.2668 H   0  0  0  0  0  0
  -24.6654  -15.8521   20.5337 H   0  0  0  0  0  0
  -26.2861  -15.6390   20.1186 H   0  0  0  0  0  0
  -26.7081  -32.5529   23.1200 H   0  0  0  0  0  0
  -25.0096  -33.9821   25.0556 H   0  0  0  0  0  0
  -22.7001  -31.3069   21.4131 H   0  0  0  0  0  0
  -23.3761  -35.9645   23.3337 H   0  0  0  0  0  0
  -24.3604  -36.8943   22.2070 H   0  0  0  0  0  0
  -23.7183  -37.6531   23.6640 H   0  0  0  0  0  0
  -26.0519  -31.5871   20.5998 H   0  0  0  0  0  0
  -26.8227  -30.8817   21.9904 H   0  0  0  0  0  0
  -28.0887  -29.0798   21.1944 H   0  0  0  0  0  0
  -26.0508  -25.9713   19.0031 H   0  0  0  0  0  0
  -23.9896  -27.3027   19.0122 H   0  0  0  0  0  0
  -23.7215  -30.6043   19.4090 H   0  0  0  0  0  0
  -22.7423  -29.2445   19.8671 H   0  0  0  0  0  0
  -25.1248  -36.2078   25.0852 H   0  0  0  0  0  0
  -20.9896  -28.3192   24.1471 H   0  0  0  0  0  0
  -20.5669  -26.2238   23.3610 H   0  0  0  0  0  0
  -21.6582  -26.7436   22.1196 H   0  0  0  0  0  0
  -19.6887  -25.6279   21.1263 H   0  0  0  0  0  0
  -19.6677  -27.3166   20.6784 H   0  0  0  0  0  0
  -17.4163  -26.6711   21.4002 H   0  0  0  0  0  0
  -18.0229  -26.0067   22.9006 H   0  0  0  0  0  0
  -19.7922  -30.7250   24.2255 H   0  0  0  0  0  0
  -17.5001  -31.6271   24.5155 H   0  0  0  0  0  0
  -15.5333  -30.2986   23.7665 H   0  0  0  0  0  0
  -15.8635  -28.0837   22.7058 H   0  0  0  0  0  0
  -24.5932  -30.6930   25.7814 H   0  0  0  0  0  0
  -24.8785  -32.2722   26.5024 H   0  0  0  0  0  0
  -25.8048  -30.8769   27.0272 H   0  0  0  0  0  0
  -26.2857  -29.6818   24.1260 H   0  0  0  0  0  0
  -27.4214  -29.7379   25.4574 H   0  0  0  0  0  0
  -27.8610  -30.4502   23.9215 H   0  0  0  0  0  0
  -27.2846  -33.3650   26.2058 H   0  0  0  0  0  0
  -28.3860  -32.6780   25.0241 H   0  0  0  0  0  0
  -28.0787  -31.8409   26.5377 H   0  0  0  0  0  0
  -28.2610  -38.0106   24.7550 H   0  0  0  0  0  0
  -28.1049  -36.2653   24.6261 H   0  0  0  0  0  0
  -27.2313  -37.1461   25.8882 H   0  0  0  0  0  0
  -20.9292  -29.8879   21.7094 H   0  0  0  0  0  0
  -26.0218  -38.2922   24.1415 H   0  0  0  0  0  0
  -26.4254  -22.7411   21.3116 H   0  0  0  0  0  0
  -25.8692  -21.0925   21.5246 H   0  0  0  0  0  0
  -26.1124  -21.7288   19.8940 H   0  0  0  0  0  0
  -33.6839  -19.2674   20.1780 H   0  0  0  0  0  0
  -32.8015  -20.6261   19.4925 H   0  0  0  0  0  0
  -32.1913  -18.9819   19.2890 H   0  0  0  0  0  0
  -30.4684  -14.3489   23.0815 H   0  0  0  0  0  0
  -29.1544  -15.5125   23.1528 H   0  0  0  0  0  0
  -30.8443  -16.0510   23.2083 H   0  0  0  0  0  0
  -31.9458  -18.8834   21.8794 H   0  0  0  0  0  0
  -32.4001  -20.5506   21.9233 H   0  0  0  0  0  0
  -29.9919  -24.0333   20.8180 H   0  0  0  0  0  0
  -28.4866  -24.0012   21.6705 H   0  0  0  0  0  0
  -28.4195  -17.5741   21.8942 H   0  0  0  0  0  0
  -29.9333  -17.9667   22.6424 H   0  0  0  0  0  0
  -27.1989  -24.1685   19.6214 H   0  0  0  0  0  0
  -28.5462  -23.6364   18.6635 H   0  0  0  0  0  0
  -31.1236  -17.1707   20.5124 H   0  0  0  0  0  0
  -29.5731  -16.8447   19.7944 H   0  0  0  0  0  0
  -28.2612  -25.9788   18.1966 H   0  0  0  0  0  0
  -29.7700  -25.7200   18.9995 H   0  0  0  0  0  0
  1 25  1  0  0  0
  1 30  2  0  0  0
  1 86  1  0  0  0
  2  3  1  0  0  0
  2 25  1  0  0  0
  2 87  1  0  0  0
  2 88  1  0  0  0
  3  4  1  0  0  0
  3 89  1  0  0  0
  3 90  1  0  0  0
  4  5  1  0  0  0
  4 91  1  0  0  0
  4 92  1  0  0  0
  5  6  1  0  0  0
  5 26  1  0  0  0
  5 93  1  0  0  0
  6 25  1  0  0  0
  6 94  1  0  0  0
  6 95  1  0  0  0
  7  8  2  0  0  0
  7 26  1  0  0  0
  7 29  1  0  0  0
  8  9  1  0  0  0
  8 22  1  0  0  0
  9 10  1  0  0  0
  9 27  2  0  0  0
 10 11  2  0  0  0
 10 15  1  0  0  0
 11 12  1  0  0  0
 11 96  1  0  0  0
 12 13  2  0  0  0
 12 97  1  0  0  0
 13 14  1  0  0  0
 13 31  1  0  0  0
 14 15  2  0  0  0
 14 98  1  0  0  0
 15 99  1  0  0  0
 16 17  2  0  0  0
 16 21  1  0  0  0
 16 31  1  0  0  0
 17 18  1  0  0  0
 17100  1  0  0  0
 18 19  2  0  0  0
 18101  1  0  0  0
 19 20  1  0  0  0
 19 24  1  0  0  0
 20 21  2  0  0  0
 20102  1  0  0  0
 21 23  1  0  0  0
 22 28  1  0  0  0
 22 32  2  0  0  0
 26 27  1  0  0  0
 28103  1  0  0  0
 28104  1  0  0  0
 29105  1  0  0  0
 29106  1  0  0  0
 33 34  1  0  0  0
 33 66  1  0  0  0
 33 70  2  0  0  0
 34 36  1  0  0  0
 34 59  1  0  0  0
 34107  1  0  0  0
 35 44  2  0  0  0
 35 45  1  0  0  0
 35 68  1  0  0  0
 36 56  1  0  0  0
 36108  1  0  0  0
 37 39  1  0  0  0
 37 47  1  0  0  0
 37 66  1  0  0  0
 37109  1  0  0  0
 38 43  2  0  0  0
 38 46  1  0  0  0
 38 47  1  0  0  0
 39 64  1  0  0  0
 39 67  2  0  0  0
 40 52  1  0  0  0
 40 53  2  0  0  0
 40 58  1  0  0  0
 41110  1  0  0  0
 41111  1  0  0  0
 41112  1  0  0  0
 41 48  1  0  0  0
 42 43  1  0  0  0
 42 66  1  0  0  0
 42113  1  0  0  0
 42114  1  0  0  0
 43 44  1  0  0  0
 44115  1  0  0  0
 45 46  2  0  0  0
 45116  1  0  0  0
 46117  1  0  0  0
 47118  1  0  0  0
 47119  1  0  0  0
 48 56  1  0  0  0
 48 65  1  0  0  0
 48120  1  0  0  0
 49 50  1  0  0  0
 49 53  1  0  0  0
 49 64  1  0  0  0
 49121  1  0  0  0
 50 51  1  0  0  0
 50122  1  0  0  0
 50123  1  0  0  0
 51 52  1  0  0  0
 51124  1  0  0  0
 51125  1  0  0  0
 52126  1  0  0  0
 52127  1  0  0  0
 53 54  1  0  0  0
 54 55  2  0  0  0
 54128  1  0  0  0
 55 57  1  0  0  0
 55129  1  0  0  0
 56 69  2  0  0  0
 57 58  2  0  0  0
 57130  1  0  0  0
 58131  1  0  0  0
 59 60  1  0  0  0
 59 61  1  0  0  0
 59 62  1  0  0  0
 60132  1  0  0  0
 60133  1  0  0  0
 60134  1  0  0  0
 61135  1  0  0  0
 61136  1  0  0  0
 61137  1  0  0  0
 62138  1  0  0  0
 62139  1  0  0  0
 62140  1  0  0  0
 63 65  1  0  0  0
 63141  1  0  0  0
 63142  1  0  0  0
 63143  1  0  0  0
 64144  1  0  0  0
 65145  1  0  0  0
 68 83  1  0  0  0
 71 72  2  0  0  0
 71 75  1  0  0  0
 71 84  1  0  0  0
 72 79  1  0  0  0
 72 85  1  0  0  0
 73 74  1  0  0  0
 73 78  1  0  0  0
 73 85  2  0  0  0
 74 80  1  0  0  0
 74 84  2  0  0  0
 75146  1  0  0  0
 75147  1  0  0  0
 75148  1  0  0  0
 76 78  1  0  0  0
 76149  1  0  0  0
 76150  1  0  0  0
 76151  1  0  0  0
 77 86  1  0  0  0
 77152  1  0  0  0
 77153  1  0  0  0
 77154  1  0  0  0
 78155  1  0  0  0
 78156  1  0  0  0
 79 81  1  0  0  0
 79157  1  0  0  0
 79158  1  0  0  0
 80 82  1  0  0  0
 80159  1  0  0  0
 80160  1  0  0  0
 81 83  1  0  0  0
 81161  1  0  0  0
 81162  1  0  0  0
 82 86  1  0  0  0
 82163  1  0  0  0
 82164  1  0  0  0
 83165  1  0  0  0
 83166  1  0  0  0
M  ISO  4   1 100  68 101  83 101  86 100
M  END
> <chiral flag>
0

> <version>
0

> <s_m_source_file>
/data/baiqing/PycharmProjects/Reinvent-master-3.2/result/LINK_invent/BTK/process_docking_weight1_custom_sum_contain_oxygen_bond_distance_aromatic_linkinvent_7_9_3/rearranged_h_0075.sdf

> <i_m_source_file_index>
85

> <r_mmod_Potential_Energy-OPLS-2005>
117.213363647461

> <r_mmod_Stretch_Energy-OPLS-2005>
47.3578033447266

> <r_mmod_Bend_Energy-OPLS-2005>
120.514724731445

> <r_mmod_Torsional_Energy-OPLS-2005>
271.042724609375

> <r_mmod_Improper_Torsional_Energy-OPLS-2005>
6.54296350479126

> <r_mmod_Van_der_Waal_Energy-OPLS-2005>
157.947082519531

> <r_mmod_Electrostatic_Energy-OPLS-2005>
-296.813262939453

> <r_mmod_Solvation_Energy-OPLS-2005>
-202.927169799805

> <b_mmod_Minimization_Converged-OPLS-2005>
0

> <r_mmod_RMS_Derivative-OPLS-2005>
3.98360013961792

$$$$
86
                    3D
 Structure written by MMmdl.
162170  0  0  1  0            999 V2000
  -30.6772  -14.5305   20.5710 C   0  0  0  0  0  0
  -30.4306  -12.3415   19.4353 C   0  0  0  0  0  0
  -29.5081  -12.5264   18.2137 C   0  0  0  0  0  0
  -28.0265  -12.3703   18.6158 C   0  0  0  0  0  0
  -27.6594  -13.2098   19.8698 C   0  0  2  0  0  0
  -28.7014  -13.0107   20.9959 C   0  0  0  0  0  0
  -25.2524  -13.8115   20.5585 C   0  0  0  0  0  0
  -24.1813  -13.0397   20.9158 C   0  0  0  0  0  0
  -24.6391  -11.6881   20.8734 C   0  0  0  0  0  0
  -23.9057  -10.4284   21.0406 C   0  0  0  0  0  0
  -24.3618   -9.4207   21.9180 C   0  0  0  0  0  0
  -23.6299   -8.2242   22.0754 C   0  0  0  0  0  0
  -22.4281   -8.0276   21.3545 C   0  0  0  0  0  0
  -21.9911   -9.0251   20.4653 C   0  0  0  0  0  0
  -22.7233  -10.2126   20.3058 C   0  0  0  0  0  0
  -21.6855   -6.0746   22.5293 C   0  0  0  0  0  0
  -21.4016   -6.5654   23.8224 C   0  0  0  0  0  0
  -21.3657   -5.6796   24.9181 C   0  0  0  0  0  0
  -21.6041   -4.3056   24.7224 C   0  0  0  0  0  0
  -21.8820   -3.8156   23.4343 C   0  0  0  0  0  0
  -21.9193   -4.6979   22.3408 C   0  0  0  0  0  0
  -22.7840  -13.5207   21.1828 C   0  0  0  0  0  0
  -22.1646   -4.2176   21.0979 F   0  0  0  0  0  0
  -21.5641   -3.4528   25.7726 F   0  0  0  0  0  0
  -30.0298  -13.3345   20.4471 N   0  0  0  0  0  0
  -26.2996  -12.9317   20.3298 N   0  0  0  0  0  0
  -25.9323  -11.6476   20.5744 N   0  0  0  0  0  0
  -22.0451  -12.8251   22.0401 N   0  0  0  0  0  0
  -25.4102  -15.1815   20.3906 N   0  0  0  0  0  0
  -31.8063  -14.7235   20.1127 O   0  0  0  0  0  0
  -21.6640   -6.8881   21.4247 O   0  0  0  0  0  0
  -22.3546  -14.5511   20.6663 O   0  0  0  0  0  0
  -24.6187  -31.8651   23.2059 C   0  0  0  0  0  0
  -25.9065  -32.4809   23.8374 C   0  0  1  0  0  0
  -27.2330  -27.3982   20.1175 C   0  0  0  0  0  0
  -25.5906  -33.8602   24.2299 N   0  0  0  0  0  0
  -23.4098  -30.4884   21.5454 C   0  0  2  0  0  0
  -24.8610  -28.9515   20.1114 C   0  0  0  0  0  0
  -22.7441  -29.4648   22.4949 C   0  0  0  0  0  0
  -18.0280  -28.1385   22.8497 C   0  0  0  0  0  0
  -24.1489  -36.7309   23.2638 C   0  0  0  0  0  0
  -25.9426  -30.8226   21.3650 C   0  0  0  0  0  0
  -26.0227  -29.4545   20.7117 C   0  0  0  0  0  0
  -27.2160  -28.6863   20.7101 C   0  0  0  0  0  0
  -26.0588  -26.9242   19.4976 C   0  0  0  0  0  0
  -24.8752  -27.6879   19.4966 C   0  0  0  0  0  0
  -23.6225  -29.8202   20.1604 C   0  0  0  0  0  0
  -25.4110  -36.3099   24.0331 C   0  0  1  0  0  0
  -20.5878  -28.3681   23.1303 C   0  0  2  0  0  0
  -20.6774  -26.9406   22.5418 C   0  0  0  0  0  0
  -19.5746  -26.6386   21.5221 C   0  0  0  0  0  0
  -18.1928  -26.7932   22.1630 C   0  0  0  0  0  0
  -19.1533  -28.8844   23.2900 C   0  0  0  0  0  0
  -18.9456  -30.1457   23.8913 C   0  0  0  0  0  0
  -17.6458  -30.6585   24.0567 C   0  0  0  0  0  0
  -25.9042  -34.9466   23.5112 C   0  0  0  0  0  0
  -16.5348  -29.9093   23.6325 C   0  0  0  0  0  0
  -16.7273  -28.6505   23.0346 C   0  0  0  0  0  0
  -26.4477  -31.6599   25.0715 C   0  0  0  0  0  0
  -25.3731  -31.3723   26.1457 C   0  0  0  0  0  0
  -27.0312  -30.3034   24.6120 C   0  0  0  0  0  0
  -27.6045  -32.4325   25.7483 C   0  0  0  0  0  0
  -27.5579  -37.1809   24.8459 C   0  0  0  0  0  0
  -21.4157  -29.3041   22.3690 N   0  0  0  0  0  0
  -26.4293  -37.3785   23.9400 N   0  0  0  0  0  0
  -24.6750  -31.0738   22.0968 N   0  0  0  0  0  0
  -23.4195  -28.8190   23.3001 O   0  0  0  0  0  0
  -28.3475  -26.5759   20.1519 O   0  0  0  0  0  0
  -26.5604  -34.8923   22.4674 O   0  0  0  0  0  0
  -23.5367  -32.1408   23.7438 O   0  0  0  0  0  0
  -28.6843  -20.4315   20.0549 C   0  0  0  0  0  0
  -29.2867  -21.6456   20.2928 C   0  0  0  0  0  0
  -30.5564  -21.2422   20.8089 C   0  0  0  0  0  0
  -31.7006  -22.1132   21.2359 C   0  0  0  0  0  0
  -27.8772  -17.5613   20.4827 C   0  0  0  0  0  0
  -29.7009  -17.5913   18.7655 C   0  0  0  0  0  0
  -28.7113  -23.0492   19.9945 C   0  0  0  0  0  0
  -29.1625  -24.2271   20.9182 C   0  0  0  0  0  0
  -30.2560  -17.0011   21.1581 C   0  0  0  0  0  0
  -28.1931  -25.4521   21.0572 C   0  0  0  0  0  0
  -29.3577  -17.9139   20.2304 C   0  0  0  0  0  0
  -30.6985  -19.9164   20.8714 N   0  0  0  0  0  0
  -29.5323  -19.3878   20.4289 N   0  0  0  0  0  0
  -29.9453  -15.5402   21.0924 N   0  0  0  0  0  0
  -31.4755  -12.4479   19.1407 H   0  0  0  0  0  0
  -30.3344  -11.3318   19.8385 H   0  0  0  0  0  0
  -29.7666  -11.8077   17.4353 H   0  0  0  0  0  0
  -29.6697  -13.5152   17.7808 H   0  0  0  0  0  0
  -27.8445  -11.3114   18.8057 H   0  0  0  0  0  0
  -27.3829  -12.6412   17.7777 H   0  0  0  0  0  0
  -27.6938  -14.2553   19.5645 H   0  0  0  0  0  0
  -28.6916  -11.9759   21.3414 H   0  0  0  0  0  0
  -28.4541  -13.6133   21.8702 H   0  0  0  0  0  0
  -25.2765   -9.5708   22.4739 H   0  0  0  0  0  0
  -24.0028   -7.4650   22.7480 H   0  0  0  0  0  0
  -21.0840   -8.8775   19.8964 H   0  0  0  0  0  0
  -22.3696  -10.9668   19.6168 H   0  0  0  0  0  0
  -21.1993   -7.6159   23.9741 H   0  0  0  0  0  0
  -21.1473   -6.0514   25.9088 H   0  0  0  0  0  0
  -22.0597   -2.7622   23.2829 H   0  0  0  0  0  0
  -22.4022  -11.9939   22.4879 H   0  0  0  0  0  0
  -21.1075  -13.1324   22.2548 H   0  0  0  0  0  0
  -24.6326  -15.8246   20.4901 H   0  0  0  0  0  0
  -26.2501  -15.6286   20.0486 H   0  0  0  0  0  0
  -26.7138  -32.5513   23.1139 H   0  0  0  0  0  0
  -25.0059  -33.9754   25.0448 H   0  0  0  0  0  0
  -22.7005  -31.3064   21.4029 H   0  0  0  0  0  0
  -23.3742  -35.9652   23.3308 H   0  0  0  0  0  0
  -24.3584  -36.8917   22.2051 H   0  0  0  0  0  0
  -23.7255  -37.6520   23.6651 H   0  0  0  0  0  0
  -26.0607  -31.5880   20.5969 H   0  0  0  0  0  0
  -26.8271  -30.8753   21.9878 H   0  0  0  0  0  0
  -28.1086  -29.0644   21.1886 H   0  0  0  0  0  0
  -26.0543  -25.9487   19.0321 H   0  0  0  0  0  0
  -23.9839  -27.2947   19.0277 H   0  0  0  0  0  0
  -23.7309  -30.5937   19.3993 H   0  0  0  0  0  0
  -22.7471  -29.2404   19.8642 H   0  0  0  0  0  0
  -25.1292  -36.1955   25.0826 H   0  0  0  0  0  0
  -20.9990  -28.3256   24.1416 H   0  0  0  0  0  0
  -20.5687  -26.2285   23.3614 H   0  0  0  0  0  0
  -21.6642  -26.7447   22.1200 H   0  0  0  0  0  0
  -19.6904  -25.6301   21.1242 H   0  0  0  0  0  0
  -19.6689  -27.3206   20.6758 H   0  0  0  0  0  0
  -17.4201  -26.6696   21.4026 H   0  0  0  0  0  0
  -18.0317  -26.0075   22.9022 H   0  0  0  0  0  0
  -19.7934  -30.7270   24.2289 H   0  0  0  0  0  0
  -17.5011  -31.6269   24.5167 H   0  0  0  0  0  0
  -15.5352  -30.2993   23.7640 H   0  0  0  0  0  0
  -15.8677  -28.0834   22.7044 H   0  0  0  0  0  0
  -24.5886  -30.7099   25.7779 H   0  0  0  0  0  0
  -24.8952  -32.2893   26.4913 H   0  0  0  0  0  0
  -25.8071  -30.8868   27.0208 H   0  0  0  0  0  0
  -26.2870  -29.6797   24.1156 H   0  0  0  0  0  0
  -27.4046  -29.7272   25.4594 H   0  0  0  0  0  0
  -27.8717  -30.4332   23.9300 H   0  0  0  0  0  0
  -27.2654  -33.3609   26.2088 H   0  0  0  0  0  0
  -28.3845  -32.6915   25.0311 H   0  0  0  0  0  0
  -28.0731  -31.8439   26.5381 H   0  0  0  0  0  0
  -28.2597  -38.0106   24.7500 H   0  0  0  0  0  0
  -28.1078  -36.2637   24.6290 H   0  0  0  0  0  0
  -27.2299  -37.1460   25.8864 H   0  0  0  0  0  0
  -20.9319  -29.8763   21.6910 H   0  0  0  0  0  0
  -26.0179  -38.2861   24.1400 H   0  0  0  0  0  0
  -27.7139  -20.2352   19.6213 H   0  0  0  0  0  0
  -31.8858  -22.8955   20.5004 H   0  0  0  0  0  0
  -32.6251  -21.5447   21.3455 H   0  0  0  0  0  0
  -31.4891  -22.5946   22.1911 H   0  0  0  0  0  0
  -27.6965  -16.5034   20.3237 H   0  0  0  0  0  0
  -27.2032  -18.0850   19.8058 H   0  0  0  0  0  0
  -27.5764  -17.7960   21.5040 H   0  0  0  0  0  0
  -29.5236  -16.5430   18.5300 H   0  0  0  0  0  0
  -30.7514  -17.7982   18.5596 H   0  0  0  0  0  0
  -29.1018  -18.1853   18.0746 H   0  0  0  0  0  0
  -27.6229  -22.9957   20.0328 H   0  0  0  0  0  0
  -28.9350  -23.3312   18.9655 H   0  0  0  0  0  0
  -30.1670  -24.5659   20.6661 H   0  0  0  0  0  0
  -29.2437  -23.8104   21.9227 H   0  0  0  0  0  0
  -30.1177  -17.3090   22.1955 H   0  0  0  0  0  0
  -31.3124  -17.1760   20.9431 H   0  0  0  0  0  0
  -28.3511  -25.8711   22.0533 H   0  0  0  0  0  0
  -27.1670  -25.0814   21.0763 H   0  0  0  0  0  0
  -29.0370  -15.2677   21.4370 H   0  0  0  0  0  0
  1 25  1  0  0  0
  1 30  2  0  0  0
  1 84  1  0  0  0
  2  3  1  0  0  0
  2 25  1  0  0  0
  2 85  1  0  0  0
  2 86  1  0  0  0
  3  4  1  0  0  0
  3 87  1  0  0  0
  3 88  1  0  0  0
  4  5  1  0  0  0
  4 89  1  0  0  0
  4 90  1  0  0  0
  5  6  1  0  0  0
  5 26  1  0  0  0
  5 91  1  0  0  0
  6 25  1  0  0  0
  6 92  1  0  0  0
  6 93  1  0  0  0
  7  8  2  0  0  0
  7 26  1  0  0  0
  7 29  1  0  0  0
  8  9  1  0  0  0
  8 22  1  0  0  0
  9 10  1  0  0  0
  9 27  2  0  0  0
 10 11  2  0  0  0
 10 15  1  0  0  0
 11 12  1  0  0  0
 11 94  1  0  0  0
 12 13  2  0  0  0
 12 95  1  0  0  0
 13 14  1  0  0  0
 13 31  1  0  0  0
 14 15  2  0  0  0
 14 96  1  0  0  0
 15 97  1  0  0  0
 16 17  2  0  0  0
 16 21  1  0  0  0
 16 31  1  0  0  0
 17 18  1  0  0  0
 17 98  1  0  0  0
 18 19  2  0  0  0
 18 99  1  0  0  0
 19 20  1  0  0  0
 19 24  1  0  0  0
 20 21  2  0  0  0
 20100  1  0  0  0
 21 23  1  0  0  0
 22 28  1  0  0  0
 22 32  2  0  0  0
 26 27  1  0  0  0
 28101  1  0  0  0
 28102  1  0  0  0
 29103  1  0  0  0
 29104  1  0  0  0
 33 34  1  0  0  0
 33 66  1  0  0  0
 33 70  2  0  0  0
 34 36  1  0  0  0
 34 59  1  0  0  0
 34105  1  0  0  0
 35 44  2  0  0  0
 35 45  1  0  0  0
 35 68  1  0  0  0
 36 56  1  0  0  0
 36106  1  0  0  0
 37 39  1  0  0  0
 37 47  1  0  0  0
 37 66  1  0  0  0
 37107  1  0  0  0
 38 43  2  0  0  0
 38 46  1  0  0  0
 38 47  1  0  0  0
 39 64  1  0  0  0
 39 67  2  0  0  0
 40 52  1  0  0  0
 40 53  2  0  0  0
 40 58  1  0  0  0
 41108  1  0  0  0
 41109  1  0  0  0
 41110  1  0  0  0
 41 48  1  0  0  0
 42 43  1  0  0  0
 42 66  1  0  0  0
 42111  1  0  0  0
 42112  1  0  0  0
 43 44  1  0  0  0
 44113  1  0  0  0
 45 46  2  0  0  0
 45114  1  0  0  0
 46115  1  0  0  0
 47116  1  0  0  0
 47117  1  0  0  0
 48 56  1  0  0  0
 48 65  1  0  0  0
 48118  1  0  0  0
 49 50  1  0  0  0
 49 53  1  0  0  0
 49 64  1  0  0  0
 49119  1  0  0  0
 50 51  1  0  0  0
 50120  1  0  0  0
 50121  1  0  0  0
 51 52  1  0  0  0
 51122  1  0  0  0
 51123  1  0  0  0
 52124  1  0  0  0
 52125  1  0  0  0
 53 54  1  0  0  0
 54 55  2  0  0  0
 54126  1  0  0  0
 55 57  1  0  0  0
 55127  1  0  0  0
 56 69  2  0  0  0
 57 58  2  0  0  0
 57128  1  0  0  0
 58129  1  0  0  0
 59 60  1  0  0  0
 59 61  1  0  0  0
 59 62  1  0  0  0
 60130  1  0  0  0
 60131  1  0  0  0
 60132  1  0  0  0
 61133  1  0  0  0
 61134  1  0  0  0
 61135  1  0  0  0
 62136  1  0  0  0
 62137  1  0  0  0
 62138  1  0  0  0
 63 65  1  0  0  0
 63139  1  0  0  0
 63140  1  0  0  0
 63141  1  0  0  0
 64142  1  0  0  0
 65143  1  0  0  0
 68 80  1  0  0  0
 71 72  2  0  0  0
 71 83  1  0  0  0
 71144  1  0  0  0
 72 73  1  0  0  0
 72 77  1  0  0  0
 73 74  1  0  0  0
 73 82  2  0  0  0
 74145  1  0  0  0
 74146  1  0  0  0
 74147  1  0  0  0
 75148  1  0  0  0
 75149  1  0  0  0
 75150  1  0  0  0
 75 81  1  0  0  0
 76 81  1  0  0  0
 76151  1  0  0  0
 76152  1  0  0  0
 76153  1  0  0  0
 77 78  1  0  0  0
 77154  1  0  0  0
 77155  1  0  0  0
 78 80  1  0  0  0
 78156  1  0  0  0
 78157  1  0  0  0
 79 81  1  0  0  0
 79 84  1  0  0  0
 79158  1  0  0  0
 79159  1  0  0  0
 80160  1  0  0  0
 80161  1  0  0  0
 81 83  1  0  0  0
 82 83  1  0  0  0
 84162  1  0  0  0
M  ISO  4   1 100  68 101  80 101  84 100
M  END
> <chiral flag>
0

> <version>
0

> <s_m_source_file>
/data/baiqing/PycharmProjects/Reinvent-master-3.2/result/LINK_invent/BTK/process_docking_weight1_custom_sum_contain_oxygen_bond_distance_aromatic_linkinvent_7_9_3/rearranged_h_0075.sdf

> <i_m_source_file_index>
86

> <r_mmod_Potential_Energy-OPLS-2005>
-84.249137878418

> <r_mmod_Stretch_Energy-OPLS-2005>
51.6935768127441

> <r_mmod_Bend_Energy-OPLS-2005>
115.167526245117

> <r_mmod_Torsional_Energy-OPLS-2005>
266.377288818359

> <r_mmod_Improper_Torsional_Energy-OPLS-2005>
4.21348476409912

> <r_mmod_Van_der_Waal_Energy-OPLS-2005>
121.248840332031

> <r_mmod_Electrostatic_Energy-OPLS-2005>
-447.934204101562

> <r_mmod_Solvation_Energy-OPLS-2005>
-217.044189453125

> <b_mmod_Minimization_Converged-OPLS-2005>
0

> <r_mmod_RMS_Derivative-OPLS-2005>
2.02137541770935

$$$$
87
                    3D
 Structure written by MMmdl.
170178  0  0  1  0            999 V2000
  -30.7138  -14.5016   20.6667 C   0  0  0  0  0  0
  -30.4374  -12.3742   19.4044 C   0  0  0  0  0  0
  -29.4927  -12.5546   18.1972 C   0  0  0  0  0  0
  -28.0134  -12.3937   18.6037 C   0  0  0  0  0  0
  -27.6669  -13.1948   19.8858 C   0  0  2  0  0  0
  -28.7163  -12.9007   20.9790 C   0  0  0  0  0  0
  -25.2614  -13.8100   20.5669 C   0  0  0  0  0  0
  -24.1852  -13.0398   20.9162 C   0  0  0  0  0  0
  -24.6398  -11.6864   20.8728 C   0  0  0  0  0  0
  -23.9046  -10.4269   21.0406 C   0  0  0  0  0  0
  -24.3594   -9.4193   21.9188 C   0  0  0  0  0  0
  -23.6274   -8.2228   22.0755 C   0  0  0  0  0  0
  -22.4257   -8.0268   21.3539 C   0  0  0  0  0  0
  -21.9888   -9.0242   20.4643 C   0  0  0  0  0  0
  -22.7219  -10.2123   20.3054 C   0  0  0  0  0  0
  -21.6849   -6.0728   22.5270 C   0  0  0  0  0  0
  -21.4005   -6.5634   23.8207 C   0  0  0  0  0  0
  -21.3668   -5.6782   24.9169 C   0  0  0  0  0  0
  -21.6051   -4.3046   24.7223 C   0  0  0  0  0  0
  -21.8822   -3.8144   23.4345 C   0  0  0  0  0  0
  -21.9195   -4.6956   22.3398 C   0  0  0  0  0  0
  -22.7882  -13.5229   21.1815 C   0  0  0  0  0  0
  -22.1661   -4.2147   21.0978 F   0  0  0  0  0  0
  -21.5643   -3.4532   25.7741 F   0  0  0  0  0  0
  -30.0279  -13.3262   20.4627 N   0  0  0  0  0  0
  -26.3056  -12.9253   20.3418 N   0  0  0  0  0  0
  -25.9322  -11.6415   20.5764 N   0  0  0  0  0  0
  -22.0497  -12.8240   22.0367 N   0  0  0  0  0  0
  -25.4285  -15.1812   20.4047 N   0  0  0  0  0  0
  -31.7670  -14.6893   20.0480 O   0  0  0  0  0  0
  -21.6623   -6.8871   21.4234 O   0  0  0  0  0  0
  -22.3583  -14.5547   20.6688 O   0  0  0  0  0  0
  -24.6154  -31.8687   23.2136 C   0  0  0  0  0  0
  -25.9051  -32.4824   23.8422 C   0  0  1  0  0  0
  -27.2255  -27.4029   20.0800 C   0  0  0  0  0  0
  -25.5924  -33.8630   24.2342 N   0  0  0  0  0  0
  -23.4026  -30.4974   21.5567 C   0  0  2  0  0  0
  -24.8446  -28.9692   20.1155 C   0  0  0  0  0  0
  -22.7393  -29.4684   22.5008 C   0  0  0  0  0  0
  -18.0261  -28.1353   22.8512 C   0  0  0  0  0  0
  -24.1484  -36.7293   23.2640 C   0  0  0  0  0  0
  -25.9387  -30.8214   21.3762 C   0  0  0  0  0  0
  -26.0111  -29.4587   20.7133 C   0  0  0  0  0  0
  -27.1984  -28.6823   20.6973 C   0  0  0  0  0  0
  -26.0217  -26.9442   19.4830 C   0  0  0  0  0  0
  -24.8474  -27.7111   19.5022 C   0  0  0  0  0  0
  -23.6077  -29.8354   20.1705 C   0  0  0  0  0  0
  -25.4111  -36.3106   24.0337 C   0  0  1  0  0  0
  -20.5854  -28.3657   23.1312 C   0  0  2  0  0  0
  -20.6754  -26.9399   22.5398 C   0  0  0  0  0  0
  -19.5729  -26.6376   21.5201 C   0  0  0  0  0  0
  -18.1912  -26.7906   22.1626 C   0  0  0  0  0  0
  -19.1514  -28.8819   23.2907 C   0  0  0  0  0  0
  -18.9441  -30.1425   23.8916 C   0  0  0  0  0  0
  -17.6449  -30.6576   24.0562 C   0  0  0  0  0  0
  -25.9038  -34.9477   23.5129 C   0  0  0  0  0  0
  -16.5339  -29.9077   23.6334 C   0  0  0  0  0  0
  -16.7247  -28.6472   23.0388 C   0  0  0  0  0  0
  -26.4484  -31.6620   25.0760 C   0  0  0  0  0  0
  -25.3750  -31.3747   26.1511 C   0  0  0  0  0  0
  -27.0333  -30.3057   24.6183 C   0  0  0  0  0  0
  -27.6047  -32.4372   25.7507 C   0  0  0  0  0  0
  -27.5582  -37.1805   24.8464 C   0  0  0  0  0  0
  -21.4126  -29.3042   22.3734 N   0  0  0  0  0  0
  -26.4296  -37.3786   23.9410 N   0  0  0  0  0  0
  -24.6705  -31.0758   22.1056 N   0  0  0  0  0  0
  -23.4166  -28.8205   23.3030 O   0  0  0  0  0  0
  -28.4070  -26.6640   20.1115 O   0  0  0  0  0  0
  -26.5572  -34.8925   22.4673 O   0  0  0  0  0  0
  -23.5348  -32.1472   23.7504 O   0  0  0  0  0  0
  -28.9994  -20.2910   20.0555 C   0  0  0  0  0  0
  -30.8601  -21.4358   19.6829 C   0  0  0  0  0  0
  -29.5119  -21.6025   19.8263 C   0  0  0  0  0  0
  -29.9896  -19.3430   19.9200 C   0  0  0  0  0  0
  -30.3554  -17.2299   18.5691 C   0  0  0  0  0  0
  -28.3402  -17.4714   19.9413 C   0  0  0  0  0  0
  -28.9390  -15.6401   22.3582 C   0  0  0  0  0  0
  -31.3311  -15.4819   22.8531 C   0  0  0  0  0  0
  -32.5190  -19.5816   19.5095 C   0  0  0  0  0  0
  -28.6725  -22.8646   19.6497 C   0  0  0  0  0  0
  -29.1969  -24.2336   20.1745 C   0  0  0  0  0  0
  -30.6116  -17.1298   21.1169 C   0  0  0  0  0  0
  -28.5205  -25.4052   19.4036 C   0  0  0  0  0  0
  -29.8476  -17.8019   19.9089 C   0  0  0  0  0  0
  -30.3342  -15.6625   21.6822 C   0  0  0  0  0  0
  -31.1665  -20.0783   19.7173 N   0  0  0  0  0  0
  -31.4708  -12.5099   19.0818 H   0  0  0  0  0  0
  -30.3941  -11.3486   19.7741 H   0  0  0  0  0  0
  -29.7445  -11.8419   17.4107 H   0  0  0  0  0  0
  -29.6446  -13.5472   17.7686 H   0  0  0  0  0  0
  -27.8194  -11.3329   18.7637 H   0  0  0  0  0  0
  -27.3644  -12.7021   17.7832 H   0  0  0  0  0  0
  -27.7252  -14.2480   19.6251 H   0  0  0  0  0  0
  -28.7328  -11.8257   21.1662 H   0  0  0  0  0  0
  -28.4427  -13.2927   21.9472 H   0  0  0  0  0  0
  -25.2740   -9.5679   22.4754 H   0  0  0  0  0  0
  -23.9999   -7.4623   22.7463 H   0  0  0  0  0  0
  -21.0830   -8.8762   19.8935 H   0  0  0  0  0  0
  -22.3689  -10.9662   19.6162 H   0  0  0  0  0  0
  -21.1975   -7.6131   23.9716 H   0  0  0  0  0  0
  -21.1493   -6.0504   25.9077 H   0  0  0  0  0  0
  -22.0596   -2.7600   23.2844 H   0  0  0  0  0  0
  -22.4105  -11.9934   22.4821 H   0  0  0  0  0  0
  -21.1117  -13.1290   22.2521 H   0  0  0  0  0  0
  -24.6562  -15.8293   20.5137 H   0  0  0  0  0  0
  -26.2804  -15.6257   20.0892 H   0  0  0  0  0  0
  -26.7109  -32.5517   23.1173 H   0  0  0  0  0  0
  -25.0143  -33.9806   25.0536 H   0  0  0  0  0  0
  -22.6927  -31.3171   21.4207 H   0  0  0  0  0  0
  -23.3755  -35.9613   23.3295 H   0  0  0  0  0  0
  -24.3571  -36.8914   22.2055 H   0  0  0  0  0  0
  -23.7251  -37.6503   23.6656 H   0  0  0  0  0  0
  -26.0668  -31.5930   20.6159 H   0  0  0  0  0  0
  -26.8202  -30.8622   22.0043 H   0  0  0  0  0  0
  -28.0959  -29.0599   21.1677 H   0  0  0  0  0  0
  -25.9097  -25.9929   18.9927 H   0  0  0  0  0  0
  -23.9459  -27.3260   19.0442 H   0  0  0  0  0  0
  -23.7054  -30.6115   19.4097 H   0  0  0  0  0  0
  -22.7315  -29.2516   19.8802 H   0  0  0  0  0  0
  -25.1289  -36.1974   25.0833 H   0  0  0  0  0  0
  -20.9937  -28.3212   24.1440 H   0  0  0  0  0  0
  -20.5659  -26.2267   23.3579 H   0  0  0  0  0  0
  -21.6624  -26.7440   22.1197 H   0  0  0  0  0  0
  -19.6891  -25.6285   21.1235 H   0  0  0  0  0  0
  -19.6666  -27.3171   20.6720 H   0  0  0  0  0  0
  -17.4184  -26.6668   21.4024 H   0  0  0  0  0  0
  -18.0312  -26.0030   22.9005 H   0  0  0  0  0  0
  -19.7923  -30.7230   24.2310 H   0  0  0  0  0  0
  -17.5012  -31.6272   24.5133 H   0  0  0  0  0  0
  -15.5343  -30.2993   23.7634 H   0  0  0  0  0  0
  -15.8646  -28.0773   22.7143 H   0  0  0  0  0  0
  -24.5870  -30.7146   25.7854 H   0  0  0  0  0  0
  -24.8988  -32.2911   26.5008 H   0  0  0  0  0  0
  -25.8090  -30.8874   27.0249 H   0  0  0  0  0  0
  -26.2891  -29.6818   24.1209 H   0  0  0  0  0  0
  -27.4059  -29.7313   25.4678 H   0  0  0  0  0  0
  -27.8748  -30.4353   23.9370 H   0  0  0  0  0  0
  -27.2634  -33.3665   26.2085 H   0  0  0  0  0  0
  -28.3834  -32.6979   25.0320 H   0  0  0  0  0  0
  -28.0741  -31.8526   26.5433 H   0  0  0  0  0  0
  -28.2604  -38.0098   24.7518 H   0  0  0  0  0  0
  -28.1088  -36.2642   24.6280 H   0  0  0  0  0  0
  -27.2292  -37.1421   25.8863 H   0  0  0  0  0  0
  -20.9275  -29.8787   21.6982 H   0  0  0  0  0  0
  -26.0186  -38.2866   24.1414 H   0  0  0  0  0  0
  -27.9548  -20.0628   20.2153 H   0  0  0  0  0  0
  -31.6336  -22.1696   19.4902 H   0  0  0  0  0  0
  -29.9609  -17.8001   17.7266 H   0  0  0  0  0  0
  -30.0490  -16.1936   18.4291 H   0  0  0  0  0  0
  -31.4390  -17.2346   18.4926 H   0  0  0  0  0  0
  -27.8021  -17.9831   19.1426 H   0  0  0  0  0  0
  -27.8776  -17.7614   20.8851 H   0  0  0  0  0  0
  -28.1551  -16.4143   19.7771 H   0  0  0  0  0  0
  -28.7127  -16.6035   22.8131 H   0  0  0  0  0  0
  -28.8868  -14.9281   23.1824 H   0  0  0  0  0  0
  -28.1199  -15.4304   21.6770 H   0  0  0  0  0  0
  -31.2206  -14.5012   23.3198 H   0  0  0  0  0  0
  -31.1748  -16.2255   23.6359 H   0  0  0  0  0  0
  -32.3701  -15.5671   22.5280 H   0  0  0  0  0  0
  -33.2169  -20.4159   19.4311 H   0  0  0  0  0  0
  -32.5847  -19.0248   18.5772 H   0  0  0  0  0  0
  -32.8382  -18.9605   20.3428 H   0  0  0  0  0  0
  -27.6873  -22.6852   20.0819 H   0  0  0  0  0  0
  -28.5101  -22.9430   18.5743 H   0  0  0  0  0  0
  -30.2769  -24.3116   20.0543 H   0  0  0  0  0  0
  -28.9974  -24.3082   21.2434 H   0  0  0  0  0  0
  -30.4767  -17.8126   21.9583 H   0  0  0  0  0  0
  -31.6756  -17.1972   20.9000 H   0  0  0  0  0  0
  -27.5785  -25.0103   19.0506 H   0  0  0  0  0  0
  -29.0894  -25.5965   18.4939 H   0  0  0  0  0  0
  1 25  1  0  0  0
  1 30  2  0  0  0
  1 85  1  0  0  0
  2  3  1  0  0  0
  2 25  1  0  0  0
  2 87  1  0  0  0
  2 88  1  0  0  0
  3  4  1  0  0  0
  3 89  1  0  0  0
  3 90  1  0  0  0
  4  5  1  0  0  0
  4 91  1  0  0  0
  4 92  1  0  0  0
  5  6  1  0  0  0
  5 26  1  0  0  0
  5 93  1  0  0  0
  6 25  1  0  0  0
  6 94  1  0  0  0
  6 95  1  0  0  0
  7  8  2  0  0  0
  7 26  1  0  0  0
  7 29  1  0  0  0
  8  9  1  0  0  0
  8 22  1  0  0  0
  9 10  1  0  0  0
  9 27  2  0  0  0
 10 11  2  0  0  0
 10 15  1  0  0  0
 11 12  1  0  0  0
 11 96  1  0  0  0
 12 13  2  0  0  0
 12 97  1  0  0  0
 13 14  1  0  0  0
 13 31  1  0  0  0
 14 15  2  0  0  0
 14 98  1  0  0  0
 15 99  1  0  0  0
 16 17  2  0  0  0
 16 21  1  0  0  0
 16 31  1  0  0  0
 17 18  1  0  0  0
 17100  1  0  0  0
 18 19  2  0  0  0
 18101  1  0  0  0
 19 20  1  0  0  0
 19 24  1  0  0  0
 20 21  2  0  0  0
 20102  1  0  0  0
 21 23  1  0  0  0
 22 28  1  0  0  0
 22 32  2  0  0  0
 26 27  1  0  0  0
 28103  1  0  0  0
 28104  1  0  0  0
 29105  1  0  0  0
 29106  1  0  0  0
 33 34  1  0  0  0
 33 66  1  0  0  0
 33 70  2  0  0  0
 34 36  1  0  0  0
 34 59  1  0  0  0
 34107  1  0  0  0
 35 44  2  0  0  0
 35 45  1  0  0  0
 35 68  1  0  0  0
 36 56  1  0  0  0
 36108  1  0  0  0
 37 39  1  0  0  0
 37 47  1  0  0  0
 37 66  1  0  0  0
 37109  1  0  0  0
 38 43  2  0  0  0
 38 46  1  0  0  0
 38 47  1  0  0  0
 39 64  1  0  0  0
 39 67  2  0  0  0
 40 52  1  0  0  0
 40 53  2  0  0  0
 40 58  1  0  0  0
 41110  1  0  0  0
 41111  1  0  0  0
 41112  1  0  0  0
 41 48  1  0  0  0
 42 43  1  0  0  0
 42 66  1  0  0  0
 42113  1  0  0  0
 42114  1  0  0  0
 43 44  1  0  0  0
 44115  1  0  0  0
 45 46  2  0  0  0
 45116  1  0  0  0
 46117  1  0  0  0
 47118  1  0  0  0
 47119  1  0  0  0
 48 56  1  0  0  0
 48 65  1  0  0  0
 48120  1  0  0  0
 49 50  1  0  0  0
 49 53  1  0  0  0
 49 64  1  0  0  0
 49121  1  0  0  0
 50 51  1  0  0  0
 50122  1  0  0  0
 50123  1  0  0  0
 51 52  1  0  0  0
 51124  1  0  0  0
 51125  1  0  0  0
 52126  1  0  0  0
 52127  1  0  0  0
 53 54  1  0  0  0
 54 55  2  0  0  0
 54128  1  0  0  0
 55 57  1  0  0  0
 55129  1  0  0  0
 56 69  2  0  0  0
 57 58  2  0  0  0
 57130  1  0  0  0
 58131  1  0  0  0
 59 60  1  0  0  0
 59 61  1  0  0  0
 59 62  1  0  0  0
 60132  1  0  0  0
 60133  1  0  0  0
 60134  1  0  0  0
 61135  1  0  0  0
 61136  1  0  0  0
 61137  1  0  0  0
 62138  1  0  0  0
 62139  1  0  0  0
 62140  1  0  0  0
 63 65  1  0  0  0
 63141  1  0  0  0
 63142  1  0  0  0
 63143  1  0  0  0
 64144  1  0  0  0
 65145  1  0  0  0
 68 83  1  0  0  0
 71 73  1  0  0  0
 71 74  2  0  0  0
 71146  1  0  0  0
 72 73  2  0  0  0
 72 86  1  0  0  0
 72147  1  0  0  0
 73 80  1  0  0  0
 74 84  1  0  0  0
 74 86  1  0  0  0
 75148  1  0  0  0
 75149  1  0  0  0
 75150  1  0  0  0
 75 84  1  0  0  0
 76 84  1  0  0  0
 76151  1  0  0  0
 76152  1  0  0  0
 76153  1  0  0  0
 77154  1  0  0  0
 77155  1  0  0  0
 77156  1  0  0  0
 77 85  1  0  0  0
 78 85  1  0  0  0
 78157  1  0  0  0
 78158  1  0  0  0
 78159  1  0  0  0
 79 86  1  0  0  0
 79160  1  0  0  0
 79161  1  0  0  0
 79162  1  0  0  0
 80 81  1  0  0  0
 80163  1  0  0  0
 80164  1  0  0  0
 81 83  1  0  0  0
 81165  1  0  0  0
 81166  1  0  0  0
 82 84  1  0  0  0
 82 85  1  0  0  0
 82167  1  0  0  0
 82168  1  0  0  0
 83169  1  0  0  0
 83170  1  0  0  0
M  ISO  4   1 100  68 101  83 101  85 100
M  END
> <chiral flag>
0

> <version>
0

> <s_m_source_file>
/data/baiqing/PycharmProjects/Reinvent-master-3.2/result/LINK_invent/BTK/process_docking_weight1_custom_sum_contain_oxygen_bond_distance_aromatic_linkinvent_7_9_3/rearranged_h_0075.sdf

> <i_m_source_file_index>
87

> <r_mmod_Potential_Energy-OPLS-2005>
76.4055938720703

> <r_mmod_Stretch_Energy-OPLS-2005>
60.3755760192871

> <r_mmod_Bend_Energy-OPLS-2005>
186.337448120117

> <r_mmod_Torsional_Energy-OPLS-2005>
203.803146362305

> <r_mmod_Improper_Torsional_Energy-OPLS-2005>
2.64718985557556

> <r_mmod_Van_der_Waal_Energy-OPLS-2005>
154.629867553711

> <r_mmod_Electrostatic_Energy-OPLS-2005>
-370.377380371094

> <r_mmod_Solvation_Energy-OPLS-2005>
-177.803375244141

> <b_mmod_Minimization_Converged-OPLS-2005>
0

> <r_mmod_RMS_Derivative-OPLS-2005>
2.49353981018066

$$$$
88
                    3D
 Structure written by MMmdl.
174182  0  0  1  0            999 V2000
  -30.7505  -14.5625   20.5544 C   0  0  0  0  0  0
  -30.3998  -12.3581   19.4626 C   0  0  0  0  0  0
  -29.4943  -12.4972   18.2235 C   0  0  0  0  0  0
  -28.0174  -12.3461   18.6264 C   0  0  0  0  0  0
  -27.6424  -13.2297   19.8447 C   0  0  2  0  0  0
  -28.6830  -13.1302   20.9801 C   0  0  0  0  0  0
  -25.2504  -13.8225   20.5655 C   0  0  0  0  0  0
  -24.1808  -13.0451   20.9227 C   0  0  0  0  0  0
  -24.6411  -11.6940   20.8782 C   0  0  0  0  0  0
  -23.9090  -10.4306   21.0442 C   0  0  0  0  0  0
  -24.3638   -9.4211   21.9207 C   0  0  0  0  0  0
  -23.6308   -8.2246   22.0764 C   0  0  0  0  0  0
  -22.4287   -8.0289   21.3554 C   0  0  0  0  0  0
  -21.9931   -9.0267   20.4656 C   0  0  0  0  0  0
  -22.7270  -10.2146   20.3077 C   0  0  0  0  0  0
  -21.6851   -6.0747   22.5284 C   0  0  0  0  0  0
  -21.4015   -6.5654   23.8218 C   0  0  0  0  0  0
  -21.3648   -5.6806   24.9178 C   0  0  0  0  0  0
  -21.6045   -4.3068   24.7234 C   0  0  0  0  0  0
  -21.8821   -3.8159   23.4353 C   0  0  0  0  0  0
  -21.9188   -4.6973   22.3409 C   0  0  0  0  0  0
  -22.7822  -13.5211   21.1870 C   0  0  0  0  0  0
  -22.1652   -4.2162   21.0984 F   0  0  0  0  0  0
  -21.5630   -3.4547   25.7745 F   0  0  0  0  0  0
  -30.0129  -13.4121   20.4279 N   0  0  0  0  0  0
  -26.2933  -12.9428   20.3241 N   0  0  0  0  0  0
  -25.9332  -11.6575   20.5763 N   0  0  0  0  0  0
  -22.0467  -12.8199   22.0439 N   0  0  0  0  0  0
  -25.4145  -15.1940   20.3987 N   0  0  0  0  0  0
  -31.8734  -14.6053   20.0475 O   0  0  0  0  0  0
  -21.6641   -6.8890   21.4247 O   0  0  0  0  0  0
  -22.3487  -14.5492   20.6695 O   0  0  0  0  0  0
  -24.6252  -31.8617   23.2094 C   0  0  0  0  0  0
  -25.9122  -32.4777   23.8380 C   0  0  1  0  0  0
  -27.2055  -27.3331   20.0962 C   0  0  0  0  0  0
  -25.5950  -33.8582   24.2295 N   0  0  0  0  0  0
  -23.4158  -30.4922   21.5535 C   0  0  2  0  0  0
  -24.8551  -28.9599   20.1106 C   0  0  0  0  0  0
  -22.7458  -29.4646   22.4962 C   0  0  0  0  0  0
  -18.0286  -28.1398   22.8499 C   0  0  0  0  0  0
  -24.1504  -36.7297   23.2642 C   0  0  0  0  0  0
  -25.9600  -30.7932   21.3833 C   0  0  0  0  0  0
  -26.0278  -29.4271   20.7162 C   0  0  0  0  0  0
  -27.2042  -28.6217   20.7097 C   0  0  0  0  0  0
  -26.0103  -26.9348   19.4454 C   0  0  0  0  0  0
  -24.8463  -27.7158   19.4723 C   0  0  0  0  0  0
  -23.6264  -29.8395   20.1655 C   0  0  0  0  0  0
  -25.4125  -36.3074   24.0326 C   0  0  1  0  0  0
  -20.5894  -28.3678   23.1307 C   0  0  2  0  0  0
  -20.6789  -26.9405   22.5422 C   0  0  0  0  0  0
  -19.5760  -26.6391   21.5230 C   0  0  0  0  0  0
  -18.1931  -26.7948   22.1635 C   0  0  0  0  0  0
  -19.1546  -28.8851   23.2895 C   0  0  0  0  0  0
  -18.9474  -30.1462   23.8901 C   0  0  0  0  0  0
  -17.6478  -30.6604   24.0568 C   0  0  0  0  0  0
  -25.9062  -34.9446   23.5103 C   0  0  0  0  0  0
  -16.5363  -29.9101   23.6353 C   0  0  0  0  0  0
  -16.7274  -28.6522   23.0369 C   0  0  0  0  0  0
  -26.4519  -31.6583   25.0739 C   0  0  0  0  0  0
  -25.3757  -31.3713   26.1460 C   0  0  0  0  0  0
  -27.0369  -30.3003   24.6208 C   0  0  0  0  0  0
  -27.6064  -32.4328   25.7515 C   0  0  0  0  0  0
  -27.5581  -37.1800   24.8461 C   0  0  0  0  0  0
  -21.4175  -29.3033   22.3688 N   0  0  0  0  0  0
  -26.4296  -37.3767   23.9406 N   0  0  0  0  0  0
  -24.6861  -31.0660   22.1041 N   0  0  0  0  0  0
  -23.4186  -28.8154   23.3002 O   0  0  0  0  0  0
  -28.3081  -26.4644   20.1616 O   0  0  0  0  0  0
  -26.5613  -34.8903   22.4663 O   0  0  0  0  0  0
  -23.5424  -32.1412   23.7432 O   0  0  0  0  0  0
  -28.1115  -20.4393   21.2212 C   0  0  0  0  0  0
  -28.2143  -19.0385   21.4300 C   0  0  0  0  0  0
  -29.0327  -18.2486   20.5716 C   0  0  0  0  0  0
  -28.8067  -21.0644   20.1679 C   0  0  0  0  0  0
  -29.7517  -18.9790   19.5783 C   0  0  0  0  0  0
  -27.3691  -18.4116   22.5253 C   0  0  0  0  0  0
  -30.6694  -18.2892   18.5801 C   0  0  0  0  0  0
  -29.6343  -16.0013   25.1030 C   0  0  0  0  0  0
  -30.3223  -13.8688   23.9790 C   0  0  0  0  0  0
  -32.1039  -16.1186   23.0486 C   0  0  0  0  0  0
  -29.0275  -16.6709   20.6332 C   0  0  0  0  0  0
  -28.4019  -22.4852   19.6635 C   0  0  0  0  0  0
  -28.9408  -23.8355   20.2917 C   0  0  0  0  0  0
  -28.0448  -25.0514   19.8292 C   0  0  0  0  0  0
  -30.2914  -15.9310   21.2102 C   0  0  1  0  0  0
  -29.7687  -15.2895   23.7444 C   0  0  0  0  0  0
  -30.5894  -16.1400   22.7336 C   0  0  1  0  0  0
  -29.6458  -20.3295   19.3956 N   0  0  0  0  0  0
  -31.4486  -12.4028   19.1656 H   0  0  0  0  0  0
  -30.2733  -11.3734   19.9142 H   0  0  0  0  0  0
  -29.7581  -11.7473   17.4770 H   0  0  0  0  0  0
  -29.6518  -13.4673   17.7508 H   0  0  0  0  0  0
  -27.8441  -11.2953   18.8602 H   0  0  0  0  0  0
  -27.3699  -12.5785   17.7799 H   0  0  0  0  0  0
  -27.6475  -14.2564   19.4820 H   0  0  0  0  0  0
  -28.6695  -12.1402   21.4389 H   0  0  0  0  0  0
  -28.4196  -13.8320   21.7637 H   0  0  0  0  0  0
  -25.2789   -9.5679   22.4769 H   0  0  0  0  0  0
  -24.0029   -7.4628   22.7467 H   0  0  0  0  0  0
  -21.0875   -8.8789   19.8941 H   0  0  0  0  0  0
  -22.3749  -10.9685   19.6174 H   0  0  0  0  0  0
  -21.2010   -7.6161   23.9731 H   0  0  0  0  0  0
  -21.1462   -6.0531   25.9083 H   0  0  0  0  0  0
  -22.0608   -2.7623   23.2850 H   0  0  0  0  0  0
  -22.4082  -11.9887   22.4874 H   0  0  0  0  0  0
  -21.1066  -13.1197   22.2592 H   0  0  0  0  0  0
  -24.6375  -15.8384   20.4953 H   0  0  0  0  0  0
  -26.2432  -15.6330   20.0203 H   0  0  0  0  0  0
  -26.7161  -32.5434   23.1094 H   0  0  0  0  0  0
  -25.0086  -33.9729   25.0430 H   0  0  0  0  0  0
  -22.7094  -31.3134   21.4177 H   0  0  0  0  0  0
  -23.3761  -35.9637   23.3306 H   0  0  0  0  0  0
  -24.3583  -36.8915   22.2052 H   0  0  0  0  0  0
  -23.7262  -37.6502   23.6666 H   0  0  0  0  0  0
  -26.1018  -31.5641   20.6248 H   0  0  0  0  0  0
  -26.8374  -30.8262   22.0166 H   0  0  0  0  0  0
  -28.1005  -28.9684   21.2054 H   0  0  0  0  0  0
  -25.9246  -25.9988   18.9153 H   0  0  0  0  0  0
  -23.9457  -27.3544   18.9951 H   0  0  0  0  0  0
  -23.7477  -30.6228   19.4169 H   0  0  0  0  0  0
  -22.7429  -29.2758   19.8601 H   0  0  0  0  0  0
  -25.1311  -36.1925   25.0816 H   0  0  0  0  0  0
  -20.9977  -28.3257   24.1432 H   0  0  0  0  0  0
  -20.5749  -26.2270   23.3611 H   0  0  0  0  0  0
  -21.6648  -26.7472   22.1187 H   0  0  0  0  0  0
  -19.6923  -25.6310   21.1236 H   0  0  0  0  0  0
  -19.6718  -27.3222   20.6783 H   0  0  0  0  0  0
  -17.4209  -26.6707   21.4025 H   0  0  0  0  0  0
  -18.0308  -26.0094   22.9031 H   0  0  0  0  0  0
  -19.7949  -30.7278   24.2262 H   0  0  0  0  0  0
  -17.5043  -31.6295   24.5149 H   0  0  0  0  0  0
  -15.5372  -30.3005   23.7695 H   0  0  0  0  0  0
  -15.8675  -28.0842   22.7093 H   0  0  0  0  0  0
  -24.5950  -30.7035   25.7800 H   0  0  0  0  0  0
  -24.8932  -32.2875   26.4877 H   0  0  0  0  0  0
  -25.8091  -30.8907   27.0235 H   0  0  0  0  0  0
  -26.2946  -29.6727   24.1255 H   0  0  0  0  0  0
  -27.4078  -29.7280   25.4723 H   0  0  0  0  0  0
  -27.8818  -30.4286   23.9431 H   0  0  0  0  0  0
  -27.2665  -33.3634   26.2075 H   0  0  0  0  0  0
  -28.3892  -32.6872   25.0358 H   0  0  0  0  0  0
  -28.0712  -31.8461   26.5447 H   0  0  0  0  0  0
  -28.2589  -38.0104   24.7508 H   0  0  0  0  0  0
  -28.1078  -36.2627   24.6297 H   0  0  0  0  0  0
  -27.2280  -37.1453   25.8856 H   0  0  0  0  0  0
  -20.9330  -29.8730   21.6893 H   0  0  0  0  0  0
  -26.0180  -38.2844   24.1401 H   0  0  0  0  0  0
  -27.4204  -21.0223   21.8151 H   0  0  0  0  0  0
  -26.9774  -19.1699   23.2038 H   0  0  0  0  0  0
  -27.9552  -17.7148   23.1202 H   0  0  0  0  0  0
  -26.5189  -17.8778   22.0978 H   0  0  0  0  0  0
  -30.3072  -17.3038   18.2923 H   0  0  0  0  0  0
  -31.6703  -18.1731   18.9953 H   0  0  0  0  0  0
  -30.7559  -18.8711   17.6616 H   0  0  0  0  0  0
  -28.9975  -15.4307   25.7790 H   0  0  0  0  0  0
  -29.1892  -16.9911   24.9988 H   0  0  0  0  0  0
  -30.5985  -16.1251   25.5965 H   0  0  0  0  0  0
  -29.6407  -13.2794   24.5920 H   0  0  0  0  0  0
  -31.2793  -13.8937   24.5010 H   0  0  0  0  0  0
  -30.4801  -13.3122   23.0602 H   0  0  0  0  0  0
  -32.6430  -16.8463   22.4419 H   0  0  0  0  0  0
  -32.5512  -15.1425   22.8589 H   0  0  0  0  0  0
  -32.3017  -16.3773   24.0884 H   0  0  0  0  0  0
  -28.1537  -16.3279   21.1835 H   0  0  0  0  0  0
  -28.8485  -16.3082   19.6214 H   0  0  0  0  0  0
  -27.3138  -22.5058   19.7311 H   0  0  0  0  0  0
  -28.6018  -22.5229   18.5911 H   0  0  0  0  0  0
  -29.9820  -23.9907   20.0102 H   0  0  0  0  0  0
  -28.9117  -23.7709   21.3799 H   0  0  0  0  0  0
  -27.0690  -24.7878   20.2382 H   0  0  0  0  0  0
  -27.9610  -25.0003   18.7427 H   0  0  0  0  0  0
  -31.0474  -16.5840   20.7745 H   0  0  0  0  0  0
  -28.7520  -15.2110   23.3621 H   0  0  0  0  0  0
  -30.2932  -17.1738   22.9136 H   0  0  0  0  0  0
  1 25  1  0  0  0
  1 30  2  0  0  0
  1 85  1  0  0  0
  2  3  1  0  0  0
  2 25  1  0  0  0
  2 89  1  0  0  0
  2 90  1  0  0  0
  3  4  1  0  0  0
  3 91  1  0  0  0
  3 92  1  0  0  0
  4  5  1  0  0  0
  4 93  1  0  0  0
  4 94  1  0  0  0
  5  6  1  0  0  0
  5 26  1  0  0  0
  5 95  1  0  0  0
  6 25  1  0  0  0
  6 96  1  0  0  0
  6 97  1  0  0  0
  7  8  2  0  0  0
  7 26  1  0  0  0
  7 29  1  0  0  0
  8  9  1  0  0  0
  8 22  1  0  0  0
  9 10  1  0  0  0
  9 27  2  0  0  0
 10 11  2  0  0  0
 10 15  1  0  0  0
 11 12  1  0  0  0
 11 98  1  0  0  0
 12 13  2  0  0  0
 12 99  1  0  0  0
 13 14  1  0  0  0
 13 31  1  0  0  0
 14 15  2  0  0  0
 14100  1  0  0  0
 15101  1  0  0  0
 16 17  2  0  0  0
 16 21  1  0  0  0
 16 31  1  0  0  0
 17 18  1  0  0  0
 17102  1  0  0  0
 18 19  2  0  0  0
 18103  1  0  0  0
 19 20  1  0  0  0
 19 24  1  0  0  0
 20 21  2  0  0  0
 20104  1  0  0  0
 21 23  1  0  0  0
 22 28  1  0  0  0
 22 32  2  0  0  0
 26 27  1  0  0  0
 28105  1  0  0  0
 28106  1  0  0  0
 29107  1  0  0  0
 29108  1  0  0  0
 33 34  1  0  0  0
 33 66  1  0  0  0
 33 70  2  0  0  0
 34 36  1  0  0  0
 34 59  1  0  0  0
 34109  1  0  0  0
 35 44  2  0  0  0
 35 45  1  0  0  0
 35 68  1  0  0  0
 36 56  1  0  0  0
 36110  1  0  0  0
 37 39  1  0  0  0
 37 47  1  0  0  0
 37 66  1  0  0  0
 37111  1  0  0  0
 38 43  2  0  0  0
 38 46  1  0  0  0
 38 47  1  0  0  0
 39 64  1  0  0  0
 39 67  2  0  0  0
 40 52  1  0  0  0
 40 53  2  0  0  0
 40 58  1  0  0  0
 41112  1  0  0  0
 41113  1  0  0  0
 41114  1  0  0  0
 41 48  1  0  0  0
 42 43  1  0  0  0
 42 66  1  0  0  0
 42115  1  0  0  0
 42116  1  0  0  0
 43 44  1  0  0  0
 44117  1  0  0  0
 45 46  2  0  0  0
 45118  1  0  0  0
 46119  1  0  0  0
 47120  1  0  0  0
 47121  1  0  0  0
 48 56  1  0  0  0
 48 65  1  0  0  0
 48122  1  0  0  0
 49 50  1  0  0  0
 49 53  1  0  0  0
 49 64  1  0  0  0
 49123  1  0  0  0
 50 51  1  0  0  0
 50124  1  0  0  0
 50125  1  0  0  0
 51 52  1  0  0  0
 51126  1  0  0  0
 51127  1  0  0  0
 52128  1  0  0  0
 52129  1  0  0  0
 53 54  1  0  0  0
 54 55  2  0  0  0
 54130  1  0  0  0
 55 57  1  0  0  0
 55131  1  0  0  0
 56 69  2  0  0  0
 57 58  2  0  0  0
 57132  1  0  0  0
 58133  1  0  0  0
 59 60  1  0  0  0
 59 61  1  0  0  0
 59 62  1  0  0  0
 60134  1  0  0  0
 60135  1  0  0  0
 60136  1  0  0  0
 61137  1  0  0  0
 61138  1  0  0  0
 61139  1  0  0  0
 62140  1  0  0  0
 62141  1  0  0  0
 62142  1  0  0  0
 63 65  1  0  0  0
 63143  1  0  0  0
 63144  1  0  0  0
 63145  1  0  0  0
 64146  1  0  0  0
 65147  1  0  0  0
 68 84  1  0  0  0
 71 72  2  0  0  0
 71 74  1  0  0  0
 71148  1  0  0  0
 72 73  1  0  0  0
 72 76  1  0  0  0
 73 75  2  0  0  0
 73 81  1  0  0  0
 74 82  1  0  0  0
 74 88  2  0  0  0
 75 77  1  0  0  0
 75 88  1  0  0  0
 76149  1  0  0  0
 76150  1  0  0  0
 76151  1  0  0  0
 77152  1  0  0  0
 77153  1  0  0  0
 77154  1  0  0  0
 78155  1  0  0  0
 78156  1  0  0  0
 78157  1  0  0  0
 78 86  1  0  0  0
 79 86  1  0  0  0
 79158  1  0  0  0
 79159  1  0  0  0
 79160  1  0  0  0
 80161  1  0  0  0
 80162  1  0  0  0
 80163  1  0  0  0
 80 87  1  0  0  0
 81164  1  0  0  0
 81165  1  0  0  0
 81 85  1  0  0  0
 82 83  1  0  0  0
 82166  1  0  0  0
 82167  1  0  0  0
 83 84  1  0  0  0
 83168  1  0  0  0
 83169  1  0  0  0
 84170  1  0  0  0
 84171  1  0  0  0
 85 87  1  0  0  0
 85172  1  0  0  0
 86 87  1  0  0  0
 86173  1  0  0  0
 87174  1  0  0  0
M  ISO  4   1 100  68 101  84 101  85 100
M  END
> <chiral flag>
0

> <version>
0

> <s_m_source_file>
/data/baiqing/PycharmProjects/Reinvent-master-3.2/result/LINK_invent/BTK/process_docking_weight1_custom_sum_contain_oxygen_bond_distance_aromatic_linkinvent_7_9_3/rearranged_h_0075.sdf

> <i_m_source_file_index>
88

> <r_mmod_Potential_Energy-OPLS-2005>
-11.2987632751465

> <r_mmod_Stretch_Energy-OPLS-2005>
75.1130142211914

> <r_mmod_Bend_Energy-OPLS-2005>
187.656814575195

> <r_mmod_Torsional_Energy-OPLS-2005>
196.031845092773

> <r_mmod_Improper_Torsional_Energy-OPLS-2005>
4.93908929824829

> <r_mmod_Van_der_Waal_Energy-OPLS-2005>
147.570266723633

> <r_mmod_Electrostatic_Energy-OPLS-2005>
-472.983612060547

> <r_mmod_Solvation_Energy-OPLS-2005>
-191.928649902344

> <b_mmod_Minimization_Converged-OPLS-2005>
0

> <r_mmod_RMS_Derivative-OPLS-2005>
1.91828632354736

$$$$
89
                    3D
 Structure written by MMmdl.
164172  0  0  1  0            999 V2000
  -30.6179  -14.5375   20.5195 C   0  0  0  0  0  0
  -30.4368  -12.3263   19.4233 C   0  0  0  0  0  0
  -29.4978  -12.4966   18.2052 C   0  0  0  0  0  0
  -28.0191  -12.3398   18.6177 C   0  0  0  0  0  0
  -27.6523  -13.1887   19.8621 C   0  0  2  0  0  0
  -28.6979  -12.9762   20.9813 C   0  0  0  0  0  0
  -25.2580  -13.8111   20.5642 C   0  0  0  0  0  0
  -24.1820  -13.0432   20.9168 C   0  0  0  0  0  0
  -24.6335  -11.6886   20.8723 C   0  0  0  0  0  0
  -23.8992  -10.4298   21.0427 C   0  0  0  0  0  0
  -24.3566   -9.4202   21.9190 C   0  0  0  0  0  0
  -23.6256   -8.2227   22.0743 C   0  0  0  0  0  0
  -22.4242   -8.0272   21.3547 C   0  0  0  0  0  0
  -21.9873   -9.0240   20.4650 C   0  0  0  0  0  0
  -22.7175  -10.2121   20.3080 C   0  0  0  0  0  0
  -21.6847   -6.0744   22.5295 C   0  0  0  0  0  0
  -21.4024   -6.5654   23.8233 C   0  0  0  0  0  0
  -21.3654   -5.6803   24.9186 C   0  0  0  0  0  0
  -21.6025   -4.3058   24.7230 C   0  0  0  0  0  0
  -21.8805   -3.8151   23.4348 C   0  0  0  0  0  0
  -21.9186   -4.6969   22.3405 C   0  0  0  0  0  0
  -22.7847  -13.5271   21.1845 C   0  0  0  0  0  0
  -22.1654   -4.2161   21.0980 F   0  0  0  0  0  0
  -21.5626   -3.4546   25.7737 F   0  0  0  0  0  0
  -30.0216  -13.3144   20.4286 N   0  0  0  0  0  0
  -26.2958  -12.9209   20.3262 N   0  0  0  0  0  0
  -25.9236  -11.6406   20.5703 N   0  0  0  0  0  0
  -22.0463  -12.8291   22.0404 N   0  0  0  0  0  0
  -25.4350  -15.1822   20.4046 N   0  0  0  0  0  0
  -31.7860  -14.7452   20.1846 O   0  0  0  0  0  0
  -21.6596   -6.8867   21.4261 O   0  0  0  0  0  0
  -22.3546  -14.5557   20.6669 O   0  0  0  0  0  0
  -24.6168  -31.8672   23.2123 C   0  0  0  0  0  0
  -25.9024  -32.4838   23.8426 C   0  0  1  0  0  0
  -27.2155  -27.3967   20.0968 C   0  0  0  0  0  0
  -25.5867  -33.8636   24.2341 N   0  0  0  0  0  0
  -23.4060  -30.4933   21.5551 C   0  0  2  0  0  0
  -24.8474  -28.9635   20.1129 C   0  0  0  0  0  0
  -22.7422  -29.4629   22.4990 C   0  0  0  0  0  0
  -18.0272  -28.1376   22.8496 C   0  0  0  0  0  0
  -24.1478  -36.7316   23.2650 C   0  0  0  0  0  0
  -25.9401  -30.8226   21.3703 C   0  0  0  0  0  0
  -26.0143  -29.4574   20.7090 C   0  0  0  0  0  0
  -27.2052  -28.6874   20.6882 C   0  0  0  0  0  0
  -26.0287  -26.9350   19.4840 C   0  0  0  0  0  0
  -24.8517  -27.7040   19.4928 C   0  0  0  0  0  0
  -23.6144  -29.8364   20.1669 C   0  0  0  0  0  0
  -25.4102  -36.3127   24.0353 C   0  0  1  0  0  0
  -20.5862  -28.3654   23.1316 C   0  0  2  0  0  0
  -20.6748  -26.9386   22.5416 C   0  0  0  0  0  0
  -19.5733  -26.6373   21.5207 C   0  0  0  0  0  0
  -18.1915  -26.7922   22.1623 C   0  0  0  0  0  0
  -19.1517  -28.8827   23.2902 C   0  0  0  0  0  0
  -18.9455  -30.1439   23.8919 C   0  0  0  0  0  0
  -17.6456  -30.6585   24.0561 C   0  0  0  0  0  0
  -25.9022  -34.9490   23.5154 C   0  0  0  0  0  0
  -16.5348  -29.9091   23.6332 C   0  0  0  0  0  0
  -16.7254  -28.6499   23.0364 C   0  0  0  0  0  0
  -26.4443  -31.6630   25.0766 C   0  0  0  0  0  0
  -25.3691  -31.3751   26.1513 C   0  0  0  0  0  0
  -27.0295  -30.3083   24.6146 C   0  0  0  0  0  0
  -27.6038  -32.4350   25.7495 C   0  0  0  0  0  0
  -27.5580  -37.1815   24.8468 C   0  0  0  0  0  0
  -21.4148  -29.3031   22.3731 N   0  0  0  0  0  0
  -26.4293  -37.3806   23.9416 N   0  0  0  0  0  0
  -24.6731  -31.0732   22.1048 N   0  0  0  0  0  0
  -23.4178  -28.8159   23.3016 O   0  0  0  0  0  0
  -28.3652  -26.6178   20.0958 O   0  0  0  0  0  0
  -26.5606  -34.8926   22.4721 O   0  0  0  0  0  0
  -23.5339  -32.1441   23.7482 O   0  0  0  0  0  0
  -27.9246  -21.5876   19.4970 C   0  0  0  0  0  0
  -29.9406  -20.4918   20.2556 C   0  0  0  0  0  0
  -29.1532  -21.6769   20.1771 C   0  0  0  0  0  0
  -27.5183  -20.3462   18.9780 C   0  0  0  0  0  0
  -29.4738  -19.2705   19.6920 C   0  0  0  0  0  0
  -26.2051  -20.1981   18.2351 C   0  0  0  0  0  0
  -31.7803  -18.1838   19.9126 C   0  0  0  0  0  0
  -30.1127  -17.2034   18.3603 C   0  0  0  0  0  0
  -29.5856  -22.9761   20.8859 C   0  0  0  0  0  0
  -29.4610  -24.3506   20.1408 C   0  0  0  0  0  0
  -29.7867  -17.0068   20.9248 C   0  0  0  0  0  0
  -28.2068  -25.2163   20.4526 C   0  0  0  0  0  0
  -30.2667  -17.9155   19.7288 C   0  0  0  0  0  0
  -28.2588  -19.2202   19.0935 N   0  0  0  0  0  0
  -29.7399  -15.5245   20.8017 N   0  0  0  0  0  0
  -31.4789  -12.4620   19.1299 H   0  0  0  0  0  0
  -30.3678  -11.3161   19.8310 H   0  0  0  0  0  0
  -29.7428  -11.7754   17.4228 H   0  0  0  0  0  0
  -29.6474  -13.4860   17.7686 H   0  0  0  0  0  0
  -27.8383  -11.2831   18.8205 H   0  0  0  0  0  0
  -27.3654  -12.5987   17.7863 H   0  0  0  0  0  0
  -27.6790  -14.2280   19.5376 H   0  0  0  0  0  0
  -28.6864  -11.9343   21.3034 H   0  0  0  0  0  0
  -28.4602  -13.5558   21.8752 H   0  0  0  0  0  0
  -25.2738   -9.5660   22.4727 H   0  0  0  0  0  0
  -23.9991   -7.4608   22.7442 H   0  0  0  0  0  0
  -21.0827   -8.8733   19.8927 H   0  0  0  0  0  0
  -22.3665  -10.9646   19.6148 H   0  0  0  0  0  0
  -21.2031   -7.6169   23.9749 H   0  0  0  0  0  0
  -21.1484   -6.0523   25.9089 H   0  0  0  0  0  0
  -22.0580   -2.7621   23.2839 H   0  0  0  0  0  0
  -22.4095  -12.0004   22.4880 H   0  0  0  0  0  0
  -21.1060  -13.1311   22.2537 H   0  0  0  0  0  0
  -24.6661  -15.8365   20.5032 H   0  0  0  0  0  0
  -26.2769  -15.6155   20.0490 H   0  0  0  0  0  0
  -26.7091  -32.5523   23.1178 H   0  0  0  0  0  0
  -24.9972  -33.9810   25.0456 H   0  0  0  0  0  0
  -22.6962  -31.3121   21.4226 H   0  0  0  0  0  0
  -23.3746  -35.9642   23.3330 H   0  0  0  0  0  0
  -24.3564  -36.8908   22.2060 H   0  0  0  0  0  0
  -23.7214  -37.6522   23.6645 H   0  0  0  0  0  0
  -26.0583  -31.5937   20.6075 H   0  0  0  0  0  0
  -26.8258  -30.8689   21.9916 H   0  0  0  0  0  0
  -28.1078  -29.0712   21.1425 H   0  0  0  0  0  0
  -25.9910  -25.9831   18.9752 H   0  0  0  0  0  0
  -23.9555  -27.3297   19.0167 H   0  0  0  0  0  0
  -23.7288  -30.6206   19.4174 H   0  0  0  0  0  0
  -22.7341  -29.2672   19.8640 H   0  0  0  0  0  0
  -25.1270  -36.2020   25.0850 H   0  0  0  0  0  0
  -20.9944  -28.3214   24.1437 H   0  0  0  0  0  0
  -20.5623  -26.2272   23.3610 H   0  0  0  0  0  0
  -21.6631  -26.7411   22.1230 H   0  0  0  0  0  0
  -19.6898  -25.6282   21.1244 H   0  0  0  0  0  0
  -19.6683  -27.3179   20.6735 H   0  0  0  0  0  0
  -17.4184  -26.6671   21.4031 H   0  0  0  0  0  0
  -18.0316  -26.0057   22.9012 H   0  0  0  0  0  0
  -19.7929  -30.7239   24.2311 H   0  0  0  0  0  0
  -17.5019  -31.6275   24.5148 H   0  0  0  0  0  0
  -15.5351  -30.3008   23.7639 H   0  0  0  0  0  0
  -15.8655  -28.0820   22.7092 H   0  0  0  0  0  0
  -24.5828  -30.7149   25.7834 H   0  0  0  0  0  0
  -24.8920  -32.2924   26.4983 H   0  0  0  0  0  0
  -25.8009  -30.8883   27.0268 H   0  0  0  0  0  0
  -26.2875  -29.6850   24.1151 H   0  0  0  0  0  0
  -27.4042  -29.7310   25.4607 H   0  0  0  0  0  0
  -27.8702  -30.4445   23.9340 H   0  0  0  0  0  0
  -27.2682  -33.3642   26.2104 H   0  0  0  0  0  0
  -28.3797  -32.6924   25.0276 H   0  0  0  0  0  0
  -28.0756  -31.8464   26.5367 H   0  0  0  0  0  0
  -28.2619  -38.0094   24.7505 H   0  0  0  0  0  0
  -28.1058  -36.2631   24.6301 H   0  0  0  0  0  0
  -27.2306  -37.1471   25.8874 H   0  0  0  0  0  0
  -20.9303  -29.8791   21.6997 H   0  0  0  0  0  0
  -26.0196  -38.2893   24.1408 H   0  0  0  0  0  0
  -27.2875  -22.4556   19.3902 H   0  0  0  0  0  0
  -30.8917  -20.5243   20.7662 H   0  0  0  0  0  0
  -25.5110  -20.9983   18.4899 H   0  0  0  0  0  0
  -25.7180  -19.2522   18.4745 H   0  0  0  0  0  0
  -26.3802  -20.2319   17.1602 H   0  0  0  0  0  0
  -32.1572  -18.8808   19.1624 H   0  0  0  0  0  0
  -32.3585  -17.2662   19.8173 H   0  0  0  0  0  0
  -32.0122  -18.5984   20.8950 H   0  0  0  0  0  0
  -30.3494  -17.8801   17.5389 H   0  0  0  0  0  0
  -29.0985  -16.8390   18.2006 H   0  0  0  0  0  0
  -30.7780  -16.3475   18.2622 H   0  0  0  0  0  0
  -30.6395  -22.8476   21.1287 H   0  0  0  0  0  0
  -29.0789  -23.0263   21.8519 H   0  0  0  0  0  0
  -29.5980  -24.2287   19.0672 H   0  0  0  0  0  0
  -30.3122  -24.9469   20.4745 H   0  0  0  0  0  0
  -28.7376  -17.2564   21.0966 H   0  0  0  0  0  0
  -30.2857  -17.2813   21.8541 H   0  0  0  0  0  0
  -27.9903  -25.1747   21.5214 H   0  0  0  0  0  0
  -27.3596  -24.7479   19.9580 H   0  0  0  0  0  0
  -28.8201  -15.1547   20.9872 H   0  0  0  0  0  0
  1 25  1  0  0  0
  1 30  2  0  0  0
  1 85  1  0  0  0
  2  3  1  0  0  0
  2 25  1  0  0  0
  2 86  1  0  0  0
  2 87  1  0  0  0
  3  4  1  0  0  0
  3 88  1  0  0  0
  3 89  1  0  0  0
  4  5  1  0  0  0
  4 90  1  0  0  0
  4 91  1  0  0  0
  5  6  1  0  0  0
  5 26  1  0  0  0
  5 92  1  0  0  0
  6 25  1  0  0  0
  6 93  1  0  0  0
  6 94  1  0  0  0
  7  8  2  0  0  0
  7 26  1  0  0  0
  7 29  1  0  0  0
  8  9  1  0  0  0
  8 22  1  0  0  0
  9 10  1  0  0  0
  9 27  2  0  0  0
 10 11  2  0  0  0
 10 15  1  0  0  0
 11 12  1  0  0  0
 11 95  1  0  0  0
 12 13  2  0  0  0
 12 96  1  0  0  0
 13 14  1  0  0  0
 13 31  1  0  0  0
 14 15  2  0  0  0
 14 97  1  0  0  0
 15 98  1  0  0  0
 16 17  2  0  0  0
 16 21  1  0  0  0
 16 31  1  0  0  0
 17 18  1  0  0  0
 17 99  1  0  0  0
 18 19  2  0  0  0
 18100  1  0  0  0
 19 20  1  0  0  0
 19 24  1  0  0  0
 20 21  2  0  0  0
 20101  1  0  0  0
 21 23  1  0  0  0
 22 28  1  0  0  0
 22 32  2  0  0  0
 26 27  1  0  0  0
 28102  1  0  0  0
 28103  1  0  0  0
 29104  1  0  0  0
 29105  1  0  0  0
 33 34  1  0  0  0
 33 66  1  0  0  0
 33 70  2  0  0  0
 34 36  1  0  0  0
 34 59  1  0  0  0
 34106  1  0  0  0
 35 44  2  0  0  0
 35 45  1  0  0  0
 35 68  1  0  0  0
 36 56  1  0  0  0
 36107  1  0  0  0
 37 39  1  0  0  0
 37 47  1  0  0  0
 37 66  1  0  0  0
 37108  1  0  0  0
 38 43  2  0  0  0
 38 46  1  0  0  0
 38 47  1  0  0  0
 39 64  1  0  0  0
 39 67  2  0  0  0
 40 52  1  0  0  0
 40 53  2  0  0  0
 40 58  1  0  0  0
 41109  1  0  0  0
 41110  1  0  0  0
 41111  1  0  0  0
 41 48  1  0  0  0
 42 43  1  0  0  0
 42 66  1  0  0  0
 42112  1  0  0  0
 42113  1  0  0  0
 43 44  1  0  0  0
 44114  1  0  0  0
 45 46  2  0  0  0
 45115  1  0  0  0
 46116  1  0  0  0
 47117  1  0  0  0
 47118  1  0  0  0
 48 56  1  0  0  0
 48 65  1  0  0  0
 48119  1  0  0  0
 49 50  1  0  0  0
 49 53  1  0  0  0
 49 64  1  0  0  0
 49120  1  0  0  0
 50 51  1  0  0  0
 50121  1  0  0  0
 50122  1  0  0  0
 51 52  1  0  0  0
 51123  1  0  0  0
 51124  1  0  0  0
 52125  1  0  0  0
 52126  1  0  0  0
 53 54  1  0  0  0
 54 55  2  0  0  0
 54127  1  0  0  0
 55 57  1  0  0  0
 55128  1  0  0  0
 56 69  2  0  0  0
 57 58  2  0  0  0
 57129  1  0  0  0
 58130  1  0  0  0
 59 60  1  0  0  0
 59 61  1  0  0  0
 59 62  1  0  0  0
 60131  1  0  0  0
 60132  1  0  0  0
 60133  1  0  0  0
 61134  1  0  0  0
 61135  1  0  0  0
 61136  1  0  0  0
 62137  1  0  0  0
 62138  1  0  0  0
 62139  1  0  0  0
 63 65  1  0  0  0
 63140  1  0  0  0
 63141  1  0  0  0
 63142  1  0  0  0
 64143  1  0  0  0
 65144  1  0  0  0
 68 82  1  0  0  0
 71 73  2  0  0  0
 71 74  1  0  0  0
 71145  1  0  0  0
 72 73  1  0  0  0
 72 75  2  0  0  0
 72146  1  0  0  0
 73 79  1  0  0  0
 74 76  1  0  0  0
 74 84  2  0  0  0
 75 83  1  0  0  0
 75 84  1  0  0  0
 76147  1  0  0  0
 76148  1  0  0  0
 76149  1  0  0  0
 77150  1  0  0  0
 77151  1  0  0  0
 77152  1  0  0  0
 77 83  1  0  0  0
 78 83  1  0  0  0
 78153  1  0  0  0
 78154  1  0  0  0
 78155  1  0  0  0
 79 80  1  0  0  0
 79156  1  0  0  0
 79157  1  0  0  0
 80 82  1  0  0  0
 80158  1  0  0  0
 80159  1  0  0  0
 81 83  1  0  0  0
 81 85  1  0  0  0
 81160  1  0  0  0
 81161  1  0  0  0
 82162  1  0  0  0
 82163  1  0  0  0
 85164  1  0  0  0
M  ISO  4   1 100  68 101  82 101  85 100
M  END
> <chiral flag>
0

> <version>
0

> <s_m_source_file>
/data/baiqing/PycharmProjects/Reinvent-master-3.2/result/LINK_invent/BTK/process_docking_weight1_custom_sum_contain_oxygen_bond_distance_aromatic_linkinvent_7_9_3/rearranged_h_0075.sdf

> <i_m_source_file_index>
89

> <r_mmod_Potential_Energy-OPLS-2005>
-200.777633666992

> <r_mmod_Stretch_Energy-OPLS-2005>
52.2596321105957

> <r_mmod_Bend_Energy-OPLS-2005>
137.157363891602

> <r_mmod_Torsional_Energy-OPLS-2005>
230.71467590332

> <r_mmod_Improper_Torsional_Energy-OPLS-2005>
5.19595241546631

> <r_mmod_Van_der_Waal_Energy-OPLS-2005>
153.367477416992

> <r_mmod_Electrostatic_Energy-OPLS-2005>
-598.195251464844

> <r_mmod_Solvation_Energy-OPLS-2005>
-205.461807250977

> <b_mmod_Minimization_Converged-OPLS-2005>
0

> <r_mmod_RMS_Derivative-OPLS-2005>
3.96649384498596

$$$$
90
                    3D
 Structure written by MMmdl.
165173  0  0  1  0            999 V2000
  -30.4721  -15.1455   20.3985 C   0  0  0  0  0  0
  -30.4397  -12.7171   19.5241 C   0  0  0  0  0  0
  -29.5311  -12.5780   18.2759 C   0  0  0  0  0  0
  -28.0645  -12.3348   18.6795 C   0  0  0  0  0  0
  -27.6211  -13.2656   19.8353 C   0  0  2  0  0  0
  -28.6631  -13.3187   20.9705 C   0  0  0  0  0  0
  -25.2398  -13.8228   20.5706 C   0  0  0  0  0  0
  -24.1738  -13.0421   20.9225 C   0  0  0  0  0  0
  -24.6394  -11.6928   20.8732 C   0  0  0  0  0  0
  -23.9080  -10.4291   21.0412 C   0  0  0  0  0  0
  -24.3626   -9.4207   21.9186 C   0  0  0  0  0  0
  -23.6312   -8.2234   22.0755 C   0  0  0  0  0  0
  -22.4285   -8.0272   21.3543 C   0  0  0  0  0  0
  -21.9918   -9.0248   20.4642 C   0  0  0  0  0  0
  -22.7257  -10.2130   20.3057 C   0  0  0  0  0  0
  -21.6841   -6.0734   22.5289 C   0  0  0  0  0  0
  -21.3999   -6.5632   23.8226 C   0  0  0  0  0  0
  -21.3665   -5.6781   24.9189 C   0  0  0  0  0  0
  -21.6051   -4.3055   24.7229 C   0  0  0  0  0  0
  -21.8809   -3.8147   23.4351 C   0  0  0  0  0  0
  -21.9195   -4.6960   22.3412 C   0  0  0  0  0  0
  -22.7751  -13.5188   21.1871 C   0  0  0  0  0  0
  -22.1659   -4.2150   21.0985 F   0  0  0  0  0  0
  -21.5636   -3.4537   25.7748 F   0  0  0  0  0  0
  -29.9139  -13.8372   20.3877 N   0  0  0  0  0  0
  -26.2838  -12.9495   20.3219 N   0  0  0  0  0  0
  -25.9337  -11.6609   20.5711 N   0  0  0  0  0  0
  -22.0427  -12.8167   22.0451 N   0  0  0  0  0  0
  -25.4053  -15.1943   20.4101 N   0  0  0  0  0  0
  -31.6527  -15.1339   20.0223 O   0  0  0  0  0  0
  -21.6629   -6.8878   21.4257 O   0  0  0  0  0  0
  -22.3429  -14.5508   20.6784 O   0  0  0  0  0  0
  -24.6554  -31.8326   23.1747 C   0  0  0  0  0  0
  -25.9296  -32.4618   23.8186 C   0  0  1  0  0  0
  -27.2034  -27.0021   20.1408 C   0  0  0  0  0  0
  -25.6001  -33.8427   24.2100 N   0  0  0  0  0  0
  -23.4650  -30.4468   21.5269 C   0  0  2  0  0  0
  -24.9141  -28.8593   20.1017 C   0  0  0  0  0  0
  -22.7627  -29.4494   22.4825 C   0  0  0  0  0  0
  -18.0336  -28.1351   22.8455 C   0  0  0  0  0  0
  -24.1522  -36.7212   23.2646 C   0  0  0  0  0  0
  -26.0327  -30.6538   21.4029 C   0  0  0  0  0  0
  -26.0980  -29.2581   20.7352 C   0  0  0  0  0  0
  -27.2412  -28.3489   20.7358 C   0  0  0  0  0  0
  -25.9906  -26.7481   19.4614 C   0  0  0  0  0  0
  -24.8805  -27.6228   19.4494 C   0  0  0  0  0  0
  -23.6944  -29.7724   20.1494 C   0  0  0  0  0  0
  -25.4151  -36.2973   24.0299 C   0  0  1  0  0  0
  -20.5967  -28.3719   23.1193 C   0  0  2  0  0  0
  -20.6847  -26.9419   22.5399 C   0  0  0  0  0  0
  -19.5824  -26.6361   21.5212 C   0  0  0  0  0  0
  -18.1982  -26.7898   22.1585 C   0  0  0  0  0  0
  -19.1593  -28.8852   23.2796 C   0  0  0  0  0  0
  -18.9508  -30.1447   23.8826 C   0  0  0  0  0  0
  -17.6499  -30.6554   24.0547 C   0  0  0  0  0  0
  -25.9117  -34.9361   23.5011 C   0  0  0  0  0  0
  -16.5390  -29.9045   23.6333 C   0  0  0  0  0  0
  -16.7325  -28.6457   23.0365 C   0  0  0  0  0  0
  -26.4546  -31.6542   25.0693 C   0  0  0  0  0  0
  -25.3667  -31.3753   26.1322 C   0  0  0  0  0  0
  -27.0468  -30.2913   24.6457 C   0  0  0  0  0  0
  -27.6030  -32.4381   25.7459 C   0  0  0  0  0  0
  -27.5592  -37.1755   24.8454 C   0  0  0  0  0  0
  -21.4322  -29.3020   22.3527 N   0  0  0  0  0  0
  -26.4293  -37.3710   23.9404 N   0  0  0  0  0  0
  -24.7383  -31.0030   22.0874 N   0  0  0  0  0  0
  -23.4201  -28.8080   23.3053 O   0  0  0  0  0  0
  -28.1921  -25.9055   20.2068 O   0  0  0  0  0  0
  -26.5722  -34.8899   22.4604 O   0  0  0  0  0  0
  -23.5644  -32.1286   23.6879 O   0  0  0  0  0  0
  -29.2771  -22.1557   19.0196 C   0  0  0  0  0  0
  -29.6177  -20.7246   18.9689 C   0  0  0  0  0  0
  -28.5232  -22.8294   20.0474 C   0  0  0  0  0  0
  -29.2501  -19.7477   19.9897 C   0  0  0  0  0  0
  -28.2015  -21.7889   21.0192 C   0  0  0  0  0  0
  -27.3944  -22.1655   22.2440 C   0  0  0  0  0  0
  -29.4497  -20.2113   16.4602 C   0  0  0  0  0  0
  -28.0978  -17.5637   19.0531 C   0  0  0  0  0  0
  -28.6887  -16.4971   21.8352 C   0  0  0  0  0  0
  -30.9694  -17.3585   21.6955 C   0  0  0  0  0  0
  -30.3568  -20.2907   17.7004 C   0  0  0  0  0  0
  -27.7945  -24.3793   19.8768 C   0  0  0  0  0  0
  -29.3610  -18.0258   19.8034 C   0  0  2  0  0  0
  -29.8508  -16.7128   20.8486 C   0  0  0  0  0  0
  -28.5197  -20.3996   20.9813 N   0  0  0  0  0  0
  -31.4670  -12.8907   19.2003 H   0  0  0  0  0  0
  -30.4776  -11.7775   20.0790 H   0  0  0  0  0  0
  -29.8822  -11.7703   17.6317 H   0  0  0  0  0  0
  -29.5987  -13.4902   17.6834 H   0  0  0  0  0  0
  -27.9721  -11.2930   18.9878 H   0  0  0  0  0  0
  -27.4099  -12.4575   17.8165 H   0  0  0  0  0  0
  -27.5700  -14.2627   19.4000 H   0  0  0  0  0  0
  -28.8012  -12.3232   21.3964 H   0  0  0  0  0  0
  -28.3179  -13.9287   21.7994 H   0  0  0  0  0  0
  -25.2775   -9.5676   22.4750 H   0  0  0  0  0  0
  -24.0025   -7.4610   22.7469 H   0  0  0  0  0  0
  -21.0841   -8.8762   19.8951 H   0  0  0  0  0  0
  -22.3715  -10.9651   19.6148 H   0  0  0  0  0  0
  -21.1964   -7.6132   23.9728 H   0  0  0  0  0  0
  -21.1495   -6.0511   25.9093 H   0  0  0  0  0  0
  -22.0581   -2.7606   23.2856 H   0  0  0  0  0  0
  -22.4048  -11.9817   22.4793 H   0  0  0  0  0  0
  -21.1062  -13.1192   22.2708 H   0  0  0  0  0  0
  -24.6519  -15.8597   20.5388 H   0  0  0  0  0  0
  -26.2652  -15.6257   20.1015 H   0  0  0  0  0  0
  -26.7353  -32.5140   23.0882 H   0  0  0  0  0  0
  -25.0113  -33.9542   25.0224 H   0  0  0  0  0  0
  -22.7739  -31.2758   21.3673 H   0  0  0  0  0  0
  -23.3826  -35.9499   23.3243 H   0  0  0  0  0  0
  -24.3605  -36.8935   22.2077 H   0  0  0  0  0  0
  -23.7276  -37.6373   23.6758 H   0  0  0  0  0  0
  -26.2290  -31.4094   20.6413 H   0  0  0  0  0  0
  -26.8821  -30.6788   22.0709 H   0  0  0  0  0  0
  -28.1360  -28.6525   21.2597 H   0  0  0  0  0  0
  -25.8442  -25.8116   18.9472 H   0  0  0  0  0  0
  -23.9808  -27.3183   18.9324 H   0  0  0  0  0  0
  -23.8267  -30.5439   19.3911 H   0  0  0  0  0  0
  -22.8041  -29.2165   19.8439 H   0  0  0  0  0  0
  -25.1361  -36.1739   25.0795 H   0  0  0  0  0  0
  -21.0009  -28.3331   24.1335 H   0  0  0  0  0  0
  -20.5778  -26.2326   23.3617 H   0  0  0  0  0  0
  -21.6709  -26.7418   22.1195 H   0  0  0  0  0  0
  -19.7009  -25.6265   21.1277 H   0  0  0  0  0  0
  -19.6784  -27.3135   20.6710 H   0  0  0  0  0  0
  -17.4286  -26.6637   21.3962 H   0  0  0  0  0  0
  -18.0346  -26.0008   22.8935 H   0  0  0  0  0  0
  -19.8000  -30.7264   24.2146 H   0  0  0  0  0  0
  -17.5082  -31.6241   24.5151 H   0  0  0  0  0  0
  -15.5404  -30.2927   23.7709 H   0  0  0  0  0  0
  -15.8722  -28.0773   22.7109 H   0  0  0  0  0  0
  -24.5927  -30.7020   25.7629 H   0  0  0  0  0  0
  -24.8736  -32.2909   26.4579 H   0  0  0  0  0  0
  -25.7875  -30.9050   27.0217 H   0  0  0  0  0  0
  -26.3139  -29.6549   24.1479 H   0  0  0  0  0  0
  -27.4014  -29.7308   25.5123 H   0  0  0  0  0  0
  -27.9070  -30.4096   23.9865 H   0  0  0  0  0  0
  -27.2619  -33.3765   26.1827 H   0  0  0  0  0  0
  -28.3882  -32.6826   25.0303 H   0  0  0  0  0  0
  -28.0642  -31.8672   26.5521 H   0  0  0  0  0  0
  -28.2549  -38.0125   24.7581 H   0  0  0  0  0  0
  -28.1180  -36.2650   24.6191 H   0  0  0  0  0  0
  -27.2307  -37.1257   25.8861 H   0  0  0  0  0  0
  -20.9550  -29.8623   21.6602 H   0  0  0  0  0  0
  -26.0143  -38.2763   24.1459 H   0  0  0  0  0  0
  -29.5497  -22.7536   18.1611 H   0  0  0  0  0  0
  -27.2432  -23.2420   22.3308 H   0  0  0  0  0  0
  -27.9224  -21.8459   23.1405 H   0  0  0  0  0  0
  -26.4171  -21.6857   22.2311 H   0  0  0  0  0  0
  -30.0142  -19.8692   15.5925 H   0  0  0  0  0  0
  -29.0386  -21.1862   16.2051 H   0  0  0  0  0  0
  -28.6147  -19.5277   16.5943 H   0  0  0  0  0  0
  -27.9466  -18.1383   18.1436 H   0  0  0  0  0  0
  -27.2032  -17.6894   19.6626 H   0  0  0  0  0  0
  -28.1667  -16.5183   18.7600 H   0  0  0  0  0  0
  -28.3437  -17.4424   22.2544 H   0  0  0  0  0  0
  -28.9930  -15.8719   22.6759 H   0  0  0  0  0  0
  -27.8272  -16.0397   21.3556 H   0  0  0  0  0  0
  -30.6042  -18.2302   22.2412 H   0  0  0  0  0  0
  -31.7939  -17.6968   21.0668 H   0  0  0  0  0  0
  -31.3776  -16.6642   22.4321 H   0  0  0  0  0  0
  -30.9014  -19.3600   17.8288 H   0  0  0  0  0  0
  -31.1387  -21.0220   17.4946 H   0  0  0  0  0  0
  -26.8100  -24.2447   20.3217 H   0  0  0  0  0  0
  -27.5920  -24.4112   18.8034 H   0  0  0  0  0  0
  -30.1452  -17.9206   19.0622 H   0  0  0  0  0  0
  1 25  1  0  0  0
  1 30  2  0  0  0
  1 84  1  0  0  0
  2  3  1  0  0  0
  2 25  1  0  0  0
  2 86  1  0  0  0
  2 87  1  0  0  0
  3  4  1  0  0  0
  3 88  1  0  0  0
  3 89  1  0  0  0
  4  5  1  0  0  0
  4 90  1  0  0  0
  4 91  1  0  0  0
  5  6  1  0  0  0
  5 26  1  0  0  0
  5 92  1  0  0  0
  6 25  1  0  0  0
  6 93  1  0  0  0
  6 94  1  0  0  0
  7  8  2  0  0  0
  7 26  1  0  0  0
  7 29  1  0  0  0
  8  9  1  0  0  0
  8 22  1  0  0  0
  9 10  1  0  0  0
  9 27  2  0  0  0
 10 11  2  0  0  0
 10 15  1  0  0  0
 11 12  1  0  0  0
 11 95  1  0  0  0
 12 13  2  0  0  0
 12 96  1  0  0  0
 13 14  1  0  0  0
 13 31  1  0  0  0
 14 15  2  0  0  0
 14 97  1  0  0  0
 15 98  1  0  0  0
 16 17  2  0  0  0
 16 21  1  0  0  0
 16 31  1  0  0  0
 17 18  1  0  0  0
 17 99  1  0  0  0
 18 19  2  0  0  0
 18100  1  0  0  0
 19 20  1  0  0  0
 19 24  1  0  0  0
 20 21  2  0  0  0
 20101  1  0  0  0
 21 23  1  0  0  0
 22 28  1  0  0  0
 22 32  2  0  0  0
 26 27  1  0  0  0
 28102  1  0  0  0
 28103  1  0  0  0
 29104  1  0  0  0
 29105  1  0  0  0
 33 34  1  0  0  0
 33 66  1  0  0  0
 33 70  2  0  0  0
 34 36  1  0  0  0
 34 59  1  0  0  0
 34106  1  0  0  0
 35 44  2  0  0  0
 35 45  1  0  0  0
 35 68  1  0  0  0
 36 56  1  0  0  0
 36107  1  0  0  0
 37 39  1  0  0  0
 37 47  1  0  0  0
 37 66  1  0  0  0
 37108  1  0  0  0
 38 43  2  0  0  0
 38 46  1  0  0  0
 38 47  1  0  0  0
 39 64  1  0  0  0
 39 67  2  0  0  0
 40 52  1  0  0  0
 40 53  2  0  0  0
 40 58  1  0  0  0
 41109  1  0  0  0
 41110  1  0  0  0
 41111  1  0  0  0
 41 48  1  0  0  0
 42 43  1  0  0  0
 42 66  1  0  0  0
 42112  1  0  0  0
 42113  1  0  0  0
 43 44  1  0  0  0
 44114  1  0  0  0
 45 46  2  0  0  0
 45115  1  0  0  0
 46116  1  0  0  0
 47117  1  0  0  0
 47118  1  0  0  0
 48 56  1  0  0  0
 48 65  1  0  0  0
 48119  1  0  0  0
 49 50  1  0  0  0
 49 53  1  0  0  0
 49 64  1  0  0  0
 49120  1  0  0  0
 50 51  1  0  0  0
 50121  1  0  0  0
 50122  1  0  0  0
 51 52  1  0  0  0
 51123  1  0  0  0
 51124  1  0  0  0
 52125  1  0  0  0
 52126  1  0  0  0
 53 54  1  0  0  0
 54 55  2  0  0  0
 54127  1  0  0  0
 55 57  1  0  0  0
 55128  1  0  0  0
 56 69  2  0  0  0
 57 58  2  0  0  0
 57129  1  0  0  0
 58130  1  0  0  0
 59 60  1  0  0  0
 59 61  1  0  0  0
 59 62  1  0  0  0
 60131  1  0  0  0
 60132  1  0  0  0
 60133  1  0  0  0
 61134  1  0  0  0
 61135  1  0  0  0
 61136  1  0  0  0
 62137  1  0  0  0
 62138  1  0  0  0
 62139  1  0  0  0
 63 65  1  0  0  0
 63140  1  0  0  0
 63141  1  0  0  0
 63142  1  0  0  0
 64143  1  0  0  0
 65144  1  0  0  0
 68 82  1  0  0  0
 71 72  2  0  0  0
 71 73  1  0  0  0
 71145  1  0  0  0
 72 74  1  0  0  0
 72 81  1  0  0  0
 73 75  2  0  0  0
 73 82  1  0  0  0
 74 83  1  0  0  0
 74 85  2  0  0  0
 75 76  1  0  0  0
 75 85  1  0  0  0
 76146  1  0  0  0
 76147  1  0  0  0
 76148  1  0  0  0
 77 81  1  0  0  0
 77149  1  0  0  0
 77150  1  0  0  0
 77151  1  0  0  0
 78152  1  0  0  0
 78153  1  0  0  0
 78154  1  0  0  0
 78 83  1  0  0  0
 79155  1  0  0  0
 79156  1  0  0  0
 79157  1  0  0  0
 79 84  1  0  0  0
 80 84  1  0  0  0
 80158  1  0  0  0
 80159  1  0  0  0
 80160  1  0  0  0
 81161  1  0  0  0
 81162  1  0  0  0
 82163  1  0  0  0
 82164  1  0  0  0
 83 84  1  0  0  0
 83165  1  0  0  0
M  ISO  4   1 100  68 101  82 101  84 100
M  END
> <chiral flag>
0

> <version>
0

> <s_m_source_file>
/data/baiqing/PycharmProjects/Reinvent-master-3.2/result/LINK_invent/BTK/process_docking_weight1_custom_sum_contain_oxygen_bond_distance_aromatic_linkinvent_7_9_3/rearranged_h_0075.sdf

> <i_m_source_file_index>
90

> <r_mmod_Potential_Energy-OPLS-2005>
908.438171386719

> <r_mmod_Stretch_Energy-OPLS-2005>
447.324249267578

> <r_mmod_Bend_Energy-OPLS-2005>
424.901702880859

> <r_mmod_Torsional_Energy-OPLS-2005>
198.488693237305

> <r_mmod_Improper_Torsional_Energy-OPLS-2005>
7.70905065536499

> <r_mmod_Van_der_Waal_Energy-OPLS-2005>
137.811477661133

> <r_mmod_Electrostatic_Energy-OPLS-2005>
-448.272491455078

> <r_mmod_Solvation_Energy-OPLS-2005>
-197.602737426758

> <b_mmod_Minimization_Converged-OPLS-2005>
0

> <r_mmod_RMS_Derivative-OPLS-2005>
4.27724838256836

$$$$
91
                    3D
 Structure written by MMmdl.
167175  0  0  1  0            999 V2000
  -30.7275  -14.6447   20.3074 C   0  0  0  0  0  0
  -30.3997  -12.3699   19.4575 C   0  0  0  0  0  0
  -29.4875  -12.3907   18.2199 C   0  0  0  0  0  0
  -28.0122  -12.2605   18.6352 C   0  0  0  0  0  0
  -27.6265  -13.1852   19.8193 C   0  0  2  0  0  0
  -28.6849  -13.2305   20.9323 C   0  0  0  0  0  0
  -25.2478  -13.7993   20.5769 C   0  0  0  0  0  0
  -24.1731  -13.0352   20.9252 C   0  0  0  0  0  0
  -24.6294  -11.6816   20.8834 C   0  0  0  0  0  0
  -23.8989  -10.4212   21.0426 C   0  0  0  0  0  0
  -24.3541   -9.4118   21.9189 C   0  0  0  0  0  0
  -23.6213   -8.2154   22.0747 C   0  0  0  0  0  0
  -22.4197   -8.0197   21.3545 C   0  0  0  0  0  0
  -21.9839   -9.0179   20.4673 C   0  0  0  0  0  0
  -22.7169  -10.2056   20.3068 C   0  0  0  0  0  0
  -21.6831   -6.0636   22.5231 C   0  0  0  0  0  0
  -21.4018   -6.5559   23.8164 C   0  0  0  0  0  0
  -21.3690   -5.6741   24.9141 C   0  0  0  0  0  0
  -21.6056   -4.2995   24.7209 C   0  0  0  0  0  0
  -21.8835   -3.8071   23.4334 C   0  0  0  0  0  0
  -21.9196   -4.6867   22.3389 C   0  0  0  0  0  0
  -22.7742  -13.5177   21.1883 C   0  0  0  0  0  0
  -22.1650   -4.2057   21.0961 F   0  0  0  0  0  0
  -21.5685   -3.4504   25.7736 F   0  0  0  0  0  0
  -29.9816  -13.4977   20.3047 N   0  0  0  0  0  0
  -26.2862  -12.9149   20.3275 N   0  0  0  0  0  0
  -25.9227  -11.6359   20.5886 N   0  0  0  0  0  0
  -22.0320  -12.8265   22.0436 N   0  0  0  0  0  0
  -25.4237  -15.1688   20.4242 N   0  0  0  0  0  0
  -31.9467  -14.5055   20.3991 O   0  0  0  0  0  0
  -21.6598   -6.8768   21.4194 O   0  0  0  0  0  0
  -22.3488  -14.5467   20.6633 O   0  0  0  0  0  0
  -24.6118  -31.8726   23.2199 C   0  0  0  0  0  0
  -25.9019  -32.4860   23.8457 C   0  0  1  0  0  0
  -27.2267  -27.4474   20.0598 C   0  0  0  0  0  0
  -25.5912  -33.8662   24.2371 N   0  0  0  0  0  0
  -23.4009  -30.4978   21.5600 C   0  0  2  0  0  0
  -24.8455  -28.9756   20.1309 C   0  0  0  0  0  0
  -22.7397  -29.4641   22.5009 C   0  0  0  0  0  0
  -18.0262  -28.1343   22.8496 C   0  0  0  0  0  0
  -24.1473  -36.7319   23.2631 C   0  0  0  0  0  0
  -25.9342  -30.8329   21.3853 C   0  0  0  0  0  0
  -26.0093  -29.4751   20.7241 C   0  0  0  0  0  0
  -27.2033  -28.7118   20.7021 C   0  0  0  0  0  0
  -26.0356  -26.9898   19.4378 C   0  0  0  0  0  0
  -24.8494  -27.7275   19.5027 C   0  0  0  0  0  0
  -23.6144  -29.8448   20.1724 C   0  0  0  0  0  0
  -25.4112  -36.3144   24.0308 C   0  0  1  0  0  0
  -20.5845  -28.3615   23.1319 C   0  0  2  0  0  0
  -20.6715  -26.9349   22.5408 C   0  0  0  0  0  0
  -19.5707  -26.6361   21.5189 C   0  0  0  0  0  0
  -18.1905  -26.7893   22.1614 C   0  0  0  0  0  0
  -19.1504  -28.8801   23.2910 C   0  0  0  0  0  0
  -18.9444  -30.1415   23.8910 C   0  0  0  0  0  0
  -17.6444  -30.6559   24.0561 C   0  0  0  0  0  0
  -25.9032  -34.9488   23.5123 C   0  0  0  0  0  0
  -16.5333  -29.9052   23.6347 C   0  0  0  0  0  0
  -16.7249  -28.6471   23.0360 C   0  0  0  0  0  0
  -26.4473  -31.6644   25.0777 C   0  0  0  0  0  0
  -25.3763  -31.3733   26.1540 C   0  0  0  0  0  0
  -27.0290  -30.3061   24.6205 C   0  0  0  0  0  0
  -27.6055  -32.4354   25.7538 C   0  0  0  0  0  0
  -27.5593  -37.1831   24.8468 C   0  0  0  0  0  0
  -21.4111  -29.3027   22.3781 N   0  0  0  0  0  0
  -26.4312  -37.3825   23.9417 N   0  0  0  0  0  0
  -24.6656  -31.0806   22.1133 N   0  0  0  0  0  0
  -23.4169  -28.8139   23.2997 O   0  0  0  0  0  0
  -28.3886  -26.6912   20.0524 O   0  0  0  0  0  0
  -26.5592  -34.8891   22.4681 O   0  0  0  0  0  0
  -23.5300  -32.1477   23.7598 O   0  0  0  0  0  0
  -29.2314  -19.5290   19.9250 C   0  0  0  0  0  0
  -29.8606  -18.6787   21.8843 C   0  0  0  0  0  0
  -29.3400  -18.3080   20.6790 C   0  0  0  0  0  0
  -29.7803  -20.5612   20.6401 C   0  0  0  0  0  0
  -27.7932  -17.0167   19.2874 C   0  0  0  0  0  0
  -30.1605  -15.8683   18.1441 C   0  0  0  0  0  0
  -31.5735  -16.9960   19.7870 C   0  0  0  0  0  0
  -30.7562  -20.7294   22.9749 C   0  0  0  0  0  0
  -30.1177  -21.9891   20.2695 C   0  0  0  0  0  0
  -28.9923  -22.9116   19.7754 C   0  0  0  0  0  0
  -29.3810  -24.4044   19.9781 C   0  0  0  0  0  0
  -28.2882  -25.3648   19.4966 C   0  0  0  0  0  0
  -29.0203  -16.8688   20.2352 C   0  0  2  0  0  0
  -30.3007  -16.0661   19.6752 C   0  0  0  0  0  0
  -30.1420  -20.0275   21.8686 N   0  0  0  0  0  0
  -31.4443  -12.4271   19.1507 H   0  0  0  0  0  0
  -30.2967  -11.4280   19.9993 H   0  0  0  0  0  0
  -29.7496  -11.5798   17.5432 H   0  0  0  0  0  0
  -29.6348  -13.2988   17.6466 H   0  0  0  0  0  0
  -27.8516  -11.2170   18.9056 H   0  0  0  0  0  0
  -27.3596  -12.4505   17.7807 H   0  0  0  0  0  0
  -27.6045  -14.1687   19.3840 H   0  0  0  0  0  0
  -28.7181  -12.2951   21.4911 H   0  0  0  0  0  0
  -28.4431  -14.0158   21.6467 H   0  0  0  0  0  0
  -25.2660   -9.5580   22.4804 H   0  0  0  0  0  0
  -23.9925   -7.4513   22.7432 H   0  0  0  0  0  0
  -21.0782   -8.8664   19.8974 H   0  0  0  0  0  0
  -22.3584  -10.9582   19.6200 H   0  0  0  0  0  0
  -21.1975   -7.6067   23.9633 H   0  0  0  0  0  0
  -21.1553   -6.0477   25.9056 H   0  0  0  0  0  0
  -22.0610   -2.7525   23.2851 H   0  0  0  0  0  0
  -22.3893  -11.9988   22.4978 H   0  0  0  0  0  0
  -21.0912  -13.1316   22.2572 H   0  0  0  0  0  0
  -24.6643  -15.8300   20.5308 H   0  0  0  0  0  0
  -26.3007  -15.5979   20.1650 H   0  0  0  0  0  0
  -26.7074  -32.5555   23.1208 H   0  0  0  0  0  0
  -25.0173  -33.9860   25.0583 H   0  0  0  0  0  0
  -22.6927  -31.3183   21.4251 H   0  0  0  0  0  0
  -23.3771  -35.9618   23.3324 H   0  0  0  0  0  0
  -24.3602  -36.8938   22.2062 H   0  0  0  0  0  0
  -23.7170  -37.6489   23.6636 H   0  0  0  0  0  0
  -26.0595  -31.6103   20.6302 H   0  0  0  0  0  0
  -26.8106  -30.8691   22.0185 H   0  0  0  0  0  0
  -28.0938  -29.0964   21.1824 H   0  0  0  0  0  0
  -25.9694  -26.0721   18.8703 H   0  0  0  0  0  0
  -23.9520  -27.3470   19.0362 H   0  0  0  0  0  0
  -23.7481  -30.6253   19.4235 H   0  0  0  0  0  0
  -22.7356  -29.2795   19.8553 H   0  0  0  0  0  0
  -25.1294  -36.2049   25.0798 H   0  0  0  0  0  0
  -20.9919  -28.3116   24.1435 H   0  0  0  0  0  0
  -20.5580  -26.2204   23.3582 H   0  0  0  0  0  0
  -21.6597  -26.7376   22.1231 H   0  0  0  0  0  0
  -19.6851  -25.6286   21.1195 H   0  0  0  0  0  0
  -19.6616  -27.3188   20.6736 H   0  0  0  0  0  0
  -17.4160  -26.6657   21.4023 H   0  0  0  0  0  0
  -18.0318  -25.9994   22.8969 H   0  0  0  0  0  0
  -19.7911  -30.7217   24.2292 H   0  0  0  0  0  0
  -17.5004  -31.6244   24.5154 H   0  0  0  0  0  0
  -15.5348  -30.2963   23.7646 H   0  0  0  0  0  0
  -15.8643  -28.0786   22.7084 H   0  0  0  0  0  0
  -24.5934  -30.7071   25.7938 H   0  0  0  0  0  0
  -24.8937  -32.2843   26.5035 H   0  0  0  0  0  0
  -25.8124  -30.8909   27.0290 H   0  0  0  0  0  0
  -26.2826  -29.6852   24.1236 H   0  0  0  0  0  0
  -27.3997  -29.7290   25.4702 H   0  0  0  0  0  0
  -27.8690  -30.4392   23.9395 H   0  0  0  0  0  0
  -27.2711  -33.3675   26.2100 H   0  0  0  0  0  0
  -28.3863  -32.6909   25.0369 H   0  0  0  0  0  0
  -28.0698  -31.8492   26.5477 H   0  0  0  0  0  0
  -28.2634  -38.0127   24.7577 H   0  0  0  0  0  0
  -28.1052  -36.2653   24.6223 H   0  0  0  0  0  0
  -27.2286  -37.1437   25.8863 H   0  0  0  0  0  0
  -20.9250  -29.8932   21.7184 H   0  0  0  0  0  0
  -26.0195  -38.2881   24.1470 H   0  0  0  0  0  0
  -28.8605  -19.6365   18.9146 H   0  0  0  0  0  0
  -30.1265  -18.0836   22.7445 H   0  0  0  0  0  0
  -28.0242  -17.6218   18.4070 H   0  0  0  0  0  0
  -26.9795  -17.5315   19.8036 H   0  0  0  0  0  0
  -27.3822  -16.0952   18.9038 H   0  0  0  0  0  0
  -30.1948  -16.8232   17.6154 H   0  0  0  0  0  0
  -29.2301  -15.3781   17.8733 H   0  0  0  0  0  0
  -30.9680  -15.2628   17.7282 H   0  0  0  0  0  0
  -31.4519  -17.9710   19.3107 H   0  0  0  0  0  0
  -32.4601  -16.5793   19.3063 H   0  0  0  0  0  0
  -31.8521  -17.1714   20.8287 H   0  0  0  0  0  0
  -30.9265  -20.0339   23.7975 H   0  0  0  0  0  0
  -30.0829  -21.5195   23.3117 H   0  0  0  0  0  0
  -31.7190  -21.1438   22.6706 H   0  0  0  0  0  0
  -30.8763  -21.9606   19.4874 H   0  0  0  0  0  0
  -30.5942  -22.4830   21.1139 H   0  0  0  0  0  0
  -28.0676  -22.7029   20.3224 H   0  0  0  0  0  0
  -28.7765  -22.6907   18.7277 H   0  0  0  0  0  0
  -30.3214  -24.6330   19.4741 H   0  0  0  0  0  0
  -29.5548  -24.5780   21.0432 H   0  0  0  0  0  0
  -27.3586  -24.8842   19.8006 H   0  0  0  0  0  0
  -28.2844  -25.4363   18.4058 H   0  0  0  0  0  0
  -28.6676  -16.3431   21.1251 H   0  0  0  0  0  0
  1 25  1  0  0  0
  1 30  2  0  0  0
  1 84  1  0  0  0
  2  3  1  0  0  0
  2 25  1  0  0  0
  2 86  1  0  0  0
  2 87  1  0  0  0
  3  4  1  0  0  0
  3 88  1  0  0  0
  3 89  1  0  0  0
  4  5  1  0  0  0
  4 90  1  0  0  0
  4 91  1  0  0  0
  5  6  1  0  0  0
  5 26  1  0  0  0
  5 92  1  0  0  0
  6 25  1  0  0  0
  6 93  1  0  0  0
  6 94  1  0  0  0
  7  8  2  0  0  0
  7 26  1  0  0  0
  7 29  1  0  0  0
  8  9  1  0  0  0
  8 22  1  0  0  0
  9 10  1  0  0  0
  9 27  2  0  0  0
 10 11  2  0  0  0
 10 15  1  0  0  0
 11 12  1  0  0  0
 11 95  1  0  0  0
 12 13  2  0  0  0
 12 96  1  0  0  0
 13 14  1  0  0  0
 13 31  1  0  0  0
 14 15  2  0  0  0
 14 97  1  0  0  0
 15 98  1  0  0  0
 16 17  2  0  0  0
 16 21  1  0  0  0
 16 31  1  0  0  0
 17 18  1  0  0  0
 17 99  1  0  0  0
 18 19  2  0  0  0
 18100  1  0  0  0
 19 20  1  0  0  0
 19 24  1  0  0  0
 20 21  2  0  0  0
 20101  1  0  0  0
 21 23  1  0  0  0
 22 28  1  0  0  0
 22 32  2  0  0  0
 26 27  1  0  0  0
 28102  1  0  0  0
 28103  1  0  0  0
 29104  1  0  0  0
 29105  1  0  0  0
 33 34  1  0  0  0
 33 66  1  0  0  0
 33 70  2  0  0  0
 34 36  1  0  0  0
 34 59  1  0  0  0
 34106  1  0  0  0
 35 44  2  0  0  0
 35 45  1  0  0  0
 35 68  1  0  0  0
 36 56  1  0  0  0
 36107  1  0  0  0
 37 39  1  0  0  0
 37 47  1  0  0  0
 37 66  1  0  0  0
 37108  1  0  0  0
 38 43  2  0  0  0
 38 46  1  0  0  0
 38 47  1  0  0  0
 39 64  1  0  0  0
 39 67  2  0  0  0
 40 52  1  0  0  0
 40 53  2  0  0  0
 40 58  1  0  0  0
 41109  1  0  0  0
 41110  1  0  0  0
 41111  1  0  0  0
 41 48  1  0  0  0
 42 43  1  0  0  0
 42 66  1  0  0  0
 42112  1  0  0  0
 42113  1  0  0  0
 43 44  1  0  0  0
 44114  1  0  0  0
 45 46  2  0  0  0
 45115  1  0  0  0
 46116  1  0  0  0
 47117  1  0  0  0
 47118  1  0  0  0
 48 56  1  0  0  0
 48 65  1  0  0  0
 48119  1  0  0  0
 49 50  1  0  0  0
 49 53  1  0  0  0
 49 64  1  0  0  0
 49120  1  0  0  0
 50 51  1  0  0  0
 50121  1  0  0  0
 50122  1  0  0  0
 51 52  1  0  0  0
 51123  1  0  0  0
 51124  1  0  0  0
 52125  1  0  0  0
 52126  1  0  0  0
 53 54  1  0  0  0
 54 55  2  0  0  0
 54127  1  0  0  0
 55 57  1  0  0  0
 55128  1  0  0  0
 56 69  2  0  0  0
 57 58  2  0  0  0
 57129  1  0  0  0
 58130  1  0  0  0
 59 60  1  0  0  0
 59 61  1  0  0  0
 59 62  1  0  0  0
 60131  1  0  0  0
 60132  1  0  0  0
 60133  1  0  0  0
 61134  1  0  0  0
 61135  1  0  0  0
 61136  1  0  0  0
 62137  1  0  0  0
 62138  1  0  0  0
 62139  1  0  0  0
 63 65  1  0  0  0
 63140  1  0  0  0
 63141  1  0  0  0
 63142  1  0  0  0
 64143  1  0  0  0
 65144  1  0  0  0
 68 82  1  0  0  0
 71 73  1  0  0  0
 71 74  2  0  0  0
 71145  1  0  0  0
 72 73  2  0  0  0
 72 85  1  0  0  0
 72146  1  0  0  0
 73 83  1  0  0  0
 74 79  1  0  0  0
 74 85  1  0  0  0
 75147  1  0  0  0
 75148  1  0  0  0
 75149  1  0  0  0
 75 83  1  0  0  0
 76150  1  0  0  0
 76151  1  0  0  0
 76152  1  0  0  0
 76 84  1  0  0  0
 77 84  1  0  0  0
 77153  1  0  0  0
 77154  1  0  0  0
 77155  1  0  0  0
 78 85  1  0  0  0
 78156  1  0  0  0
 78157  1  0  0  0
 78158  1  0  0  0
 79 80  1  0  0  0
 79159  1  0  0  0
 79160  1  0  0  0
 80 81  1  0  0  0
 80161  1  0  0  0
 80162  1  0  0  0
 81 82  1  0  0  0
 81163  1  0  0  0
 81164  1  0  0  0
 82165  1  0  0  0
 82166  1  0  0  0
 83 84  1  0  0  0
 83167  1  0  0  0
M  ISO  4   1 100  68 101  82 101  84 100
M  END
> <chiral flag>
0

> <version>
0

> <s_m_source_file>
/data/baiqing/PycharmProjects/Reinvent-master-3.2/result/LINK_invent/BTK/process_docking_weight1_custom_sum_contain_oxygen_bond_distance_aromatic_linkinvent_7_9_3/rearranged_h_0075.sdf

> <i_m_source_file_index>
91

> <r_mmod_Potential_Energy-OPLS-2005>
201.974609375

> <r_mmod_Stretch_Energy-OPLS-2005>
58.9325332641602

> <r_mmod_Bend_Energy-OPLS-2005>
151.311004638672

> <r_mmod_Torsional_Energy-OPLS-2005>
243.86506652832

> <r_mmod_Improper_Torsional_Energy-OPLS-2005>
16.18186378479

> <r_mmod_Van_der_Waal_Energy-OPLS-2005>
172.765884399414

> <r_mmod_Electrostatic_Energy-OPLS-2005>
-331.164581298828

> <r_mmod_Solvation_Energy-OPLS-2005>
-184.026718139648

> <b_mmod_Minimization_Converged-OPLS-2005>
0

> <r_mmod_RMS_Derivative-OPLS-2005>
7.74546384811401

$$$$
92
                    3D
 Structure written by MMmdl.
159167  0  0  1  0            999 V2000
  -30.6005  -14.7703   20.3820 C   0  0  0  0  0  0
  -30.4514  -12.4574   19.4662 C   0  0  0  0  0  0
  -29.5166  -12.4635   18.2357 C   0  0  0  0  0  0
  -28.0378  -12.3037   18.6474 C   0  0  0  0  0  0
  -27.6374  -13.2020   19.8469 C   0  0  2  0  0  0
  -28.6944  -13.1324   20.9641 C   0  0  0  0  0  0
  -25.2501  -13.8100   20.5675 C   0  0  0  0  0  0
  -24.1781  -13.0384   20.9227 C   0  0  0  0  0  0
  -24.6362  -11.6873   20.8783 C   0  0  0  0  0  0
  -23.9035  -10.4282   21.0471 C   0  0  0  0  0  0
  -24.3603   -9.4195   21.9226 C   0  0  0  0  0  0
  -23.6284   -8.2238   22.0772 C   0  0  0  0  0  0
  -22.4275   -8.0282   21.3565 C   0  0  0  0  0  0
  -21.9903   -9.0261   20.4658 C   0  0  0  0  0  0
  -22.7226  -10.2132   20.3094 C   0  0  0  0  0  0
  -21.6852   -6.0759   22.5309 C   0  0  0  0  0  0
  -21.4034   -6.5653   23.8237 C   0  0  0  0  0  0
  -21.3654   -5.6778   24.9180 C   0  0  0  0  0  0
  -21.6038   -4.3053   24.7208 C   0  0  0  0  0  0
  -21.8808   -3.8167   23.4327 C   0  0  0  0  0  0
  -21.9190   -4.6996   22.3389 C   0  0  0  0  0  0
  -22.7819  -13.5230   21.1847 C   0  0  0  0  0  0
  -22.1652   -4.2202   21.0966 F   0  0  0  0  0  0
  -21.5610   -3.4526   25.7720 F   0  0  0  0  0  0
  -29.9890  -13.5264   20.3826 N   0  0  0  0  0  0
  -26.2910  -12.9246   20.3288 N   0  0  0  0  0  0
  -25.9271  -11.6440   20.5778 N   0  0  0  0  0  0
  -22.0406  -12.8292   22.0397 N   0  0  0  0  0  0
  -25.4083  -15.1822   20.4055 N   0  0  0  0  0  0
  -31.8183  -14.7815   20.1960 O   0  0  0  0  0  0
  -21.6621   -6.8907   21.4272 O   0  0  0  0  0  0
  -22.3562  -14.5551   20.6658 O   0  0  0  0  0  0
  -24.6243  -31.8620   23.2015 C   0  0  0  0  0  0
  -25.9080  -32.4808   23.8370 C   0  0  1  0  0  0
  -27.2158  -27.3177   20.1384 C   0  0  0  0  0  0
  -25.5880  -33.8604   24.2284 N   0  0  0  0  0  0
  -23.4183  -30.4826   21.5467 C   0  0  2  0  0  0
  -24.8640  -28.9363   20.1120 C   0  0  0  0  0  0
  -22.7471  -29.4605   22.4956 C   0  0  0  0  0  0
  -18.0283  -28.1371   22.8490 C   0  0  0  0  0  0
  -24.1475  -36.7324   23.2639 C   0  0  0  0  0  0
  -25.9573  -30.7962   21.3658 C   0  0  0  0  0  0
  -26.0331  -29.4207   20.7158 C   0  0  0  0  0  0
  -27.2153  -28.6229   20.7190 C   0  0  0  0  0  0
  -26.0316  -26.8887   19.5050 C   0  0  0  0  0  0
  -24.8642  -27.6751   19.4968 C   0  0  0  0  0  0
  -23.6329  -29.8184   20.1607 C   0  0  0  0  0  0
  -25.4101  -36.3101   24.0331 C   0  0  1  0  0  0
  -20.5878  -28.3657   23.1303 C   0  0  2  0  0  0
  -20.6761  -26.9381   22.5420 C   0  0  0  0  0  0
  -19.5729  -26.6365   21.5226 C   0  0  0  0  0  0
  -18.1911  -26.7914   22.1638 C   0  0  0  0  0  0
  -19.1530  -28.8835   23.2889 C   0  0  0  0  0  0
  -18.9463  -30.1450   23.8896 C   0  0  0  0  0  0
  -17.6463  -30.6573   24.0563 C   0  0  0  0  0  0
  -25.9035  -34.9470   23.5115 C   0  0  0  0  0  0
  -16.5357  -29.9080   23.6316 C   0  0  0  0  0  0
  -16.7276  -28.6495   23.0337 C   0  0  0  0  0  0
  -26.4444  -31.6620   25.0745 C   0  0  0  0  0  0
  -25.3693  -31.3768   26.1489 C   0  0  0  0  0  0
  -27.0269  -30.3051   24.6164 C   0  0  0  0  0  0
  -27.5989  -32.4359   25.7533 C   0  0  0  0  0  0
  -27.5588  -37.1802   24.8449 C   0  0  0  0  0  0
  -21.4183  -29.3031   22.3717 N   0  0  0  0  0  0
  -26.4268  -37.3814   23.9426 N   0  0  0  0  0  0
  -24.6867  -31.0625   22.0963 N   0  0  0  0  0  0
  -23.4197  -28.8134   23.3010 O   0  0  0  0  0  0
  -28.3186  -26.4524   20.1681 O   0  0  0  0  0  0
  -26.5629  -34.8938   22.4693 O   0  0  0  0  0  0
  -23.5404  -32.1412   23.7342 O   0  0  0  0  0  0
  -29.8614  -20.0732   21.1793 C   0  0  0  0  0  0
  -29.9290  -19.0047   20.2930 C   0  0  0  0  0  0
  -31.8130  -17.6953   19.3098 C   0  0  0  0  0  0
  -28.9817  -16.2747   19.0070 C   0  0  0  0  0  0
  -28.8641  -16.2929   21.5517 C   0  0  0  0  0  0
  -28.9094  -23.8310   20.2101 C   0  0  0  0  0  0
  -28.7253  -22.4757   21.0426 C   0  0  0  0  0  0
  -28.0919  -25.0976   20.7369 C   0  0  0  0  0  0
  -30.6735  -17.6043   20.3608 C   0  0  2  0  0  0
  -29.8110  -16.2072   20.3278 C   0  0  0  0  0  0
  -29.3046  -19.4878   19.1305 N   0  0  0  0  0  0
  -28.8743  -20.7155   19.2826 N   0  0  0  0  0  0
  -29.2180  -21.1436   20.5219 N   0  0  0  0  0  0
  -31.4782  -12.6065   19.1335 H   0  0  0  0  0  0
  -30.4503  -11.4853   19.9601 H   0  0  0  0  0  0
  -29.7960  -11.6577   17.5543 H   0  0  0  0  0  0
  -29.6532  -13.3864   17.6718 H   0  0  0  0  0  0
  -27.8893  -11.2568   18.9135 H   0  0  0  0  0  0
  -27.3825  -12.4916   17.7976 H   0  0  0  0  0  0
  -27.6024  -14.2122   19.4686 H   0  0  0  0  0  0
  -28.7505  -12.1139   21.3527 H   0  0  0  0  0  0
  -28.4162  -13.7409   21.8190 H   0  0  0  0  0  0
  -25.2755   -9.5680   22.4783 H   0  0  0  0  0  0
  -24.0004   -7.4629   22.7482 H   0  0  0  0  0  0
  -21.0841   -8.8807   19.8939 H   0  0  0  0  0  0
  -22.3743  -10.9694   19.6200 H   0  0  0  0  0  0
  -21.2066   -7.6172   23.9794 H   0  0  0  0  0  0
  -21.1471   -6.0474   25.9079 H   0  0  0  0  0  0
  -22.0601   -2.7642   23.2789 H   0  0  0  0  0  0
  -22.3969  -11.9975   22.4870 H   0  0  0  0  0  0
  -21.1045  -13.1415   22.2559 H   0  0  0  0  0  0
  -24.6299  -15.8184   20.5304 H   0  0  0  0  0  0
  -26.2512  -15.6503   20.1013 H   0  0  0  0  0  0
  -26.7163  -32.5472   23.1140 H   0  0  0  0  0  0
  -24.9977  -33.9762   25.0390 H   0  0  0  0  0  0
  -22.7105  -31.3012   21.4044 H   0  0  0  0  0  0
  -23.3739  -35.9651   23.3256 H   0  0  0  0  0  0
  -24.3586  -36.8996   22.2065 H   0  0  0  0  0  0
  -23.7206  -37.6503   23.6696 H   0  0  0  0  0  0
  -26.0746  -31.5529   20.5882 H   0  0  0  0  0  0
  -26.8440  -30.8578   21.9848 H   0  0  0  0  0  0
  -28.1110  -28.9890   21.2009 H   0  0  0  0  0  0
  -25.9968  -25.9224   19.0229 H   0  0  0  0  0  0
  -23.9693  -27.2944   19.0228 H   0  0  0  0  0  0
  -23.7556  -30.5974   19.4069 H   0  0  0  0  0  0
  -22.7509  -29.2522   19.8560 H   0  0  0  0  0  0
  -25.1263  -36.1964   25.0823 H   0  0  0  0  0  0
  -20.9985  -28.3224   24.1418 H   0  0  0  0  0  0
  -20.5637  -26.2276   23.3622 H   0  0  0  0  0  0
  -21.6630  -26.7382   22.1231 H   0  0  0  0  0  0
  -19.6876  -25.6274   21.1253 H   0  0  0  0  0  0
  -19.6662  -27.3178   20.6757 H   0  0  0  0  0  0
  -17.4185  -26.6672   21.4042 H   0  0  0  0  0  0
  -18.0290  -26.0061   22.9031 H   0  0  0  0  0  0
  -19.7941  -30.7264   24.2254 H   0  0  0  0  0  0
  -17.5016  -31.6246   24.5166 H   0  0  0  0  0  0
  -15.5351  -30.2982   23.7630 H   0  0  0  0  0  0
  -15.8679  -28.0826   22.7032 H   0  0  0  0  0  0
  -24.5813  -30.7174   25.7832 H   0  0  0  0  0  0
  -24.8948  -32.2948   26.4973 H   0  0  0  0  0  0
  -25.8028  -30.8899   27.0236 H   0  0  0  0  0  0
  -26.2843  -29.6850   24.1133 H   0  0  0  0  0  0
  -27.3917  -29.7255   25.4650 H   0  0  0  0  0  0
  -27.8721  -30.4352   23.9405 H   0  0  0  0  0  0
  -27.2564  -33.3629   26.2151 H   0  0  0  0  0  0
  -28.3793  -32.6989   25.0379 H   0  0  0  0  0  0
  -28.0667  -31.8479   26.5439 H   0  0  0  0  0  0
  -28.2549  -38.0153   24.7566 H   0  0  0  0  0  0
  -28.1132  -36.2690   24.6157 H   0  0  0  0  0  0
  -27.2330  -37.1315   25.8854 H   0  0  0  0  0  0
  -20.9355  -29.8816   21.6994 H   0  0  0  0  0  0
  -26.0142  -38.2873   24.1483 H   0  0  0  0  0  0
  -30.2210  -20.1673   22.1972 H   0  0  0  0  0  0
  -32.4178  -18.5878   19.4780 H   0  0  0  0  0  0
  -31.4145  -17.7813   18.3009 H   0  0  0  0  0  0
  -32.5079  -16.8608   19.3157 H   0  0  0  0  0  0
  -27.9230  -16.4620   19.1838 H   0  0  0  0  0  0
  -29.0621  -15.3784   18.3989 H   0  0  0  0  0  0
  -29.3066  -17.0679   18.3363 H   0  0  0  0  0  0
  -29.2753  -15.7923   22.4279 H   0  0  0  0  0  0
  -27.8979  -15.8458   21.3424 H   0  0  0  0  0  0
  -28.6589  -17.3184   21.8578 H   0  0  0  0  0  0
  -28.6320  -23.6503   19.1725 H   0  0  0  0  0  0
  -29.9664  -24.0929   20.2062 H   0  0  0  0  0  0
  -27.6570  -22.3495   21.2184 H   0  0  0  0  0  0
  -29.1628  -22.6303   22.0294 H   0  0  0  0  0  0
  -28.2904  -25.1892   21.8055 H   0  0  0  0  0  0
  -27.0382  -24.8256   20.6824 H   0  0  0  0  0  0
  -31.1885  -17.5780   21.3218 H   0  0  0  0  0  0
  1 25  1  0  0  0
  1 30  2  0  0  0
  1 80  1  0  0  0
  2  3  1  0  0  0
  2 25  1  0  0  0
  2 84  1  0  0  0
  2 85  1  0  0  0
  3  4  1  0  0  0
  3 86  1  0  0  0
  3 87  1  0  0  0
  4  5  1  0  0  0
  4 88  1  0  0  0
  4 89  1  0  0  0
  5  6  1  0  0  0
  5 26  1  0  0  0
  5 90  1  0  0  0
  6 25  1  0  0  0
  6 91  1  0  0  0
  6 92  1  0  0  0
  7  8  2  0  0  0
  7 26  1  0  0  0
  7 29  1  0  0  0
  8  9  1  0  0  0
  8 22  1  0  0  0
  9 10  1  0  0  0
  9 27  2  0  0  0
 10 11  2  0  0  0
 10 15  1  0  0  0
 11 12  1  0  0  0
 11 93  1  0  0  0
 12 13  2  0  0  0
 12 94  1  0  0  0
 13 14  1  0  0  0
 13 31  1  0  0  0
 14 15  2  0  0  0
 14 95  1  0  0  0
 15 96  1  0  0  0
 16 17  2  0  0  0
 16 21  1  0  0  0
 16 31  1  0  0  0
 17 18  1  0  0  0
 17 97  1  0  0  0
 18 19  2  0  0  0
 18 98  1  0  0  0
 19 20  1  0  0  0
 19 24  1  0  0  0
 20 21  2  0  0  0
 20 99  1  0  0  0
 21 23  1  0  0  0
 22 28  1  0  0  0
 22 32  2  0  0  0
 26 27  1  0  0  0
 28100  1  0  0  0
 28101  1  0  0  0
 29102  1  0  0  0
 29103  1  0  0  0
 33 34  1  0  0  0
 33 66  1  0  0  0
 33 70  2  0  0  0
 34 36  1  0  0  0
 34 59  1  0  0  0
 34104  1  0  0  0
 35 44  2  0  0  0
 35 45  1  0  0  0
 35 68  1  0  0  0
 36 56  1  0  0  0
 36105  1  0  0  0
 37 39  1  0  0  0
 37 47  1  0  0  0
 37 66  1  0  0  0
 37106  1  0  0  0
 38 43  2  0  0  0
 38 46  1  0  0  0
 38 47  1  0  0  0
 39 64  1  0  0  0
 39 67  2  0  0  0
 40 52  1  0  0  0
 40 53  2  0  0  0
 40 58  1  0  0  0
 41107  1  0  0  0
 41108  1  0  0  0
 41109  1  0  0  0
 41 48  1  0  0  0
 42 43  1  0  0  0
 42 66  1  0  0  0
 42110  1  0  0  0
 42111  1  0  0  0
 43 44  1  0  0  0
 44112  1  0  0  0
 45 46  2  0  0  0
 45113  1  0  0  0
 46114  1  0  0  0
 47115  1  0  0  0
 47116  1  0  0  0
 48 56  1  0  0  0
 48 65  1  0  0  0
 48117  1  0  0  0
 49 50  1  0  0  0
 49 53  1  0  0  0
 49 64  1  0  0  0
 49118  1  0  0  0
 50 51  1  0  0  0
 50119  1  0  0  0
 50120  1  0  0  0
 51 52  1  0  0  0
 51121  1  0  0  0
 51122  1  0  0  0
 52123  1  0  0  0
 52124  1  0  0  0
 53 54  1  0  0  0
 54 55  2  0  0  0
 54125  1  0  0  0
 55 57  1  0  0  0
 55126  1  0  0  0
 56 69  2  0  0  0
 57 58  2  0  0  0
 57127  1  0  0  0
 58128  1  0  0  0
 59 60  1  0  0  0
 59 61  1  0  0  0
 59 62  1  0  0  0
 60129  1  0  0  0
 60130  1  0  0  0
 60131  1  0  0  0
 61132  1  0  0  0
 61133  1  0  0  0
 61134  1  0  0  0
 62135  1  0  0  0
 62136  1  0  0  0
 62137  1  0  0  0
 63 65  1  0  0  0
 63138  1  0  0  0
 63139  1  0  0  0
 63140  1  0  0  0
 64141  1  0  0  0
 65142  1  0  0  0
 68 78  1  0  0  0
 71 72  2  0  0  0
 71 83  1  0  0  0
 71143  1  0  0  0
 72 79  1  0  0  0
 72 81  1  0  0  0
 73144  1  0  0  0
 73145  1  0  0  0
 73146  1  0  0  0
 73 79  1  0  0  0
 74147  1  0  0  0
 74148  1  0  0  0
 74149  1  0  0  0
 74 80  1  0  0  0
 75 80  1  0  0  0
 75150  1  0  0  0
 75151  1  0  0  0
 75152  1  0  0  0
 76 77  1  0  0  0
 76 78  1  0  0  0
 76153  1  0  0  0
 76154  1  0  0  0
 77 83  1  0  0  0
 77155  1  0  0  0
 77156  1  0  0  0
 78157  1  0  0  0
 78158  1  0  0  0
 79 80  1  0  0  0
 79159  1  0  0  0
 81 82  2  0  0  0
 82 83  1  0  0  0
M  ISO  4   1 100  68 101  78 101  80 100
M  END
> <chiral flag>
0

> <version>
0

> <s_m_source_file>
/data/baiqing/PycharmProjects/Reinvent-master-3.2/result/LINK_invent/BTK/process_docking_weight1_custom_sum_contain_oxygen_bond_distance_aromatic_linkinvent_7_9_3/rearranged_h_0075.sdf

> <i_m_source_file_index>
92

> <r_mmod_Potential_Energy-OPLS-2005>
200.454406738281

> <r_mmod_Stretch_Energy-OPLS-2005>
114.498458862305

> <r_mmod_Bend_Energy-OPLS-2005>
171.551712036133

> <r_mmod_Torsional_Energy-OPLS-2005>
231.354278564453

> <r_mmod_Improper_Torsional_Energy-OPLS-2005>
7.00473737716675

> <r_mmod_Van_der_Waal_Energy-OPLS-2005>
135.874496459961

> <r_mmod_Electrostatic_Energy-OPLS-2005>
-340.588531494141

> <r_mmod_Solvation_Energy-OPLS-2005>
-197.998992919922

> <b_mmod_Minimization_Converged-OPLS-2005>
0

> <r_mmod_RMS_Derivative-OPLS-2005>
3.96336936950684

$$$$
93
                    3D
 Structure written by MMmdl.
157165  0  0  1  0            999 V2000
  -30.6346  -14.8438   20.2657 C   0  0  0  0  0  0
  -30.4181  -12.5116   19.4473 C   0  0  0  0  0  0
  -29.4837  -12.4186   18.2221 C   0  0  0  0  0  0
  -28.0252  -12.2028   18.6678 C   0  0  0  0  0  0
  -27.5864  -13.1754   19.7912 C   0  0  2  0  0  0
  -28.6525  -13.3172   20.9015 C   0  0  0  0  0  0
  -25.2395  -13.8058   20.5781 C   0  0  0  0  0  0
  -24.1646  -13.0373   20.9334 C   0  0  0  0  0  0
  -24.6213  -11.6865   20.8833 C   0  0  0  0  0  0
  -23.8920  -10.4279   21.0477 C   0  0  0  0  0  0
  -24.3579   -9.4213   21.9174 C   0  0  0  0  0  0
  -23.6326   -8.2215   22.0693 C   0  0  0  0  0  0
  -22.4290   -8.0242   21.3506 C   0  0  0  0  0  0
  -21.9894   -9.0208   20.4615 C   0  0  0  0  0  0
  -22.7170  -10.2109   20.3051 C   0  0  0  0  0  0
  -21.6871   -6.0713   22.5239 C   0  0  0  0  0  0
  -21.4019   -6.5637   23.8178 C   0  0  0  0  0  0
  -21.3652   -5.6761   24.9115 C   0  0  0  0  0  0
  -21.6080   -4.3033   24.7168 C   0  0  0  0  0  0
  -21.8860   -3.8131   23.4282 C   0  0  0  0  0  0
  -21.9250   -4.6949   22.3338 C   0  0  0  0  0  0
  -22.7684  -13.5185   21.2011 C   0  0  0  0  0  0
  -22.1713   -4.2171   21.0920 F   0  0  0  0  0  0
  -21.5652   -3.4516   25.7654 F   0  0  0  0  0  0
  -29.9525  -13.6399   20.2846 N   0  0  0  0  0  0
  -26.2650  -12.9080   20.3192 N   0  0  0  0  0  0
  -25.9086  -11.6316   20.5763 N   0  0  0  0  0  0
  -22.0390  -12.8055   22.0538 N   0  0  0  0  0  0
  -25.4227  -15.1773   20.4221 N   0  0  0  0  0  0
  -31.8629  -14.7705   20.3672 O   0  0  0  0  0  0
  -21.6698   -6.8820   21.4173 O   0  0  0  0  0  0
  -22.3307  -14.5452   20.6831 O   0  0  0  0  0  0
  -24.6292  -31.8587   23.2004 C   0  0  0  0  0  0
  -25.9169  -32.4771   23.8309 C   0  0  1  0  0  0
  -27.2370  -27.3196   20.1234 C   0  0  0  0  0  0
  -25.5999  -33.8558   24.2258 N   0  0  0  0  0  0
  -23.4221  -30.4792   21.5394 C   0  0  2  0  0  0
  -24.8721  -28.9339   20.1083 C   0  0  0  0  0  0
  -22.7475  -29.4632   22.4911 C   0  0  0  0  0  0
  -18.0302  -28.1396   22.8505 C   0  0  0  0  0  0
  -24.1511  -36.7272   23.2632 C   0  0  0  0  0  0
  -25.9600  -30.7945   21.3688 C   0  0  0  0  0  0
  -26.0353  -29.4215   20.7104 C   0  0  0  0  0  0
  -27.2176  -28.6255   20.7075 C   0  0  0  0  0  0
  -26.0450  -26.8774   19.5084 C   0  0  0  0  0  0
  -24.8804  -27.6701   19.4979 C   0  0  0  0  0  0
  -23.6403  -29.8124   20.1546 C   0  0  0  0  0  0
  -25.4130  -36.3035   24.0314 C   0  0  1  0  0  0
  -20.5899  -28.3714   23.1298 C   0  0  2  0  0  0
  -20.6809  -26.9436   22.5436 C   0  0  0  0  0  0
  -19.5779  -26.6401   21.5256 C   0  0  0  0  0  0
  -18.1944  -26.7953   22.1642 C   0  0  0  0  0  0
  -19.1544  -28.8867   23.2904 C   0  0  0  0  0  0
  -18.9471  -30.1470   23.8914 C   0  0  0  0  0  0
  -17.6463  -30.6595   24.0584 C   0  0  0  0  0  0
  -25.9088  -34.9430   23.5065 C   0  0  0  0  0  0
  -16.5360  -29.9090   23.6336 C   0  0  0  0  0  0
  -16.7280  -28.6511   23.0357 C   0  0  0  0  0  0
  -26.4563  -31.6556   25.0663 C   0  0  0  0  0  0
  -25.3785  -31.3723   26.1373 C   0  0  0  0  0  0
  -27.0422  -30.2973   24.6140 C   0  0  0  0  0  0
  -27.6086  -32.4294   25.7449 C   0  0  0  0  0  0
  -27.5573  -37.1784   24.8457 C   0  0  0  0  0  0
  -21.4164  -29.3068   22.3670 N   0  0  0  0  0  0
  -26.4284  -37.3746   23.9395 N   0  0  0  0  0  0
  -24.6887  -31.0579   22.0952 N   0  0  0  0  0  0
  -23.4172  -28.8185   23.3010 O   0  0  0  0  0  0
  -28.3894  -26.5217   20.1854 O   0  0  0  0  0  0
  -26.5606  -34.8907   22.4609 O   0  0  0  0  0  0
  -23.5472  -32.1384   23.7370 O   0  0  0  0  0  0
  -29.4588  -18.8152   19.6956 C   0  0  0  0  0  0
  -29.8077  -19.2696   21.7529 C   0  0  0  0  0  0
  -29.9330  -17.6352   20.2958 C   0  0  0  0  0  0
  -28.7696  -16.0635   18.8277 C   0  0  0  0  0  0
  -31.1316  -16.5524   18.4486 C   0  0  0  0  0  0
  -29.2720  -22.5536   20.3670 C   0  0  0  0  0  0
  -28.4478  -23.9058   20.6645 C   0  0  0  0  0  0
  -28.5276  -21.1476   20.4869 C   0  0  0  0  0  0
  -28.4941  -25.1396   19.6538 C   0  0  0  0  0  0
  -30.1004  -16.2401   19.5643 C   0  0  0  0  0  0
  -30.1971  -17.9819   21.6257 N   0  0  0  0  0  0
  -29.2875  -19.8411   20.6440 N   0  0  0  0  0  0
  -31.4458  -12.6503   19.1085 H   0  0  0  0  0  0
  -30.4140  -11.5864   20.0229 H   0  0  0  0  0  0
  -29.7865  -11.5809   17.5929 H   0  0  0  0  0  0
  -29.5790  -13.3039   17.5909 H   0  0  0  0  0  0
  -27.9585  -11.1769   19.0308 H   0  0  0  0  0  0
  -27.3462  -12.2654   17.8165 H   0  0  0  0  0  0
  -27.4241  -14.0954   19.2701 H   0  0  0  0  0  0
  -28.7306  -12.3850   21.4641 H   0  0  0  0  0  0
  -28.3452  -14.0860   21.6128 H   0  0  0  0  0  0
  -25.2764   -9.5736   22.4644 H   0  0  0  0  0  0
  -24.0165   -7.4594   22.7326 H   0  0  0  0  0  0
  -21.0859   -8.8720   19.8845 H   0  0  0  0  0  0
  -22.3709  -10.9644   19.6120 H   0  0  0  0  0  0
  -21.1981   -7.6126   23.9674 H   0  0  0  0  0  0
  -21.1432   -6.0458   25.9028 H   0  0  0  0  0  0
  -22.0663   -2.7590   23.2742 H   0  0  0  0  0  0
  -22.4179  -11.9778   22.4903 H   0  0  0  0  0  0
  -21.0898  -13.0734   22.2744 H   0  0  0  0  0  0
  -24.6746  -15.8476   20.5463 H   0  0  0  0  0  0
  -26.2916  -15.6068   20.1281 H   0  0  0  0  0  0
  -26.7207  -32.5429   23.1024 H   0  0  0  0  0  0
  -25.0193  -33.9697   25.0434 H   0  0  0  0  0  0
  -22.7168  -31.2997   21.3920 H   0  0  0  0  0  0
  -23.3765  -35.9612   23.3287 H   0  0  0  0  0  0
  -24.3608  -36.8913   22.2048 H   0  0  0  0  0  0
  -23.7300  -37.6485   23.6671 H   0  0  0  0  0  0
  -26.0937  -31.5624   20.6069 H   0  0  0  0  0  0
  -26.8387  -30.8385   22.0006 H   0  0  0  0  0  0
  -28.1102  -29.0127   21.1768 H   0  0  0  0  0  0
  -25.9794  -25.9038   19.0475 H   0  0  0  0  0  0
  -23.9827  -27.2897   19.0304 H   0  0  0  0  0  0
  -23.7591  -30.5897   19.3976 H   0  0  0  0  0  0
  -22.7636  -29.2367   19.8517 H   0  0  0  0  0  0
  -25.1329  -36.1845   25.0807 H   0  0  0  0  0  0
  -21.0009  -28.3319   24.1421 H   0  0  0  0  0  0
  -20.5803  -26.2312   23.3639 H   0  0  0  0  0  0
  -21.6653  -26.7519   22.1172 H   0  0  0  0  0  0
  -19.6954  -25.6327   21.1268 H   0  0  0  0  0  0
  -19.6724  -27.3221   20.6798 H   0  0  0  0  0  0
  -17.4244  -26.6758   21.4011 H   0  0  0  0  0  0
  -18.0284  -26.0069   22.9002 H   0  0  0  0  0  0
  -19.7934  -30.7291   24.2287 H   0  0  0  0  0  0
  -17.5014  -31.6270   24.5180 H   0  0  0  0  0  0
  -15.5369  -30.2997   23.7648 H   0  0  0  0  0  0
  -15.8691  -28.0844   22.7060 H   0  0  0  0  0  0
  -24.5932  -30.7133   25.7671 H   0  0  0  0  0  0
  -24.9042  -32.2922   26.4773 H   0  0  0  0  0  0
  -25.8088  -30.8867   27.0138 H   0  0  0  0  0  0
  -26.3007  -29.6660   24.1242 H   0  0  0  0  0  0
  -27.4203  -29.7291   25.4650 H   0  0  0  0  0  0
  -27.8824  -30.4235   23.9316 H   0  0  0  0  0  0
  -27.2661  -33.3570   26.2033 H   0  0  0  0  0  0
  -28.3896  -32.6904   25.0296 H   0  0  0  0  0  0
  -28.0754  -31.8430   26.5366 H   0  0  0  0  0  0
  -28.2576  -38.0099   24.7486 H   0  0  0  0  0  0
  -28.1093  -36.2616   24.6294 H   0  0  0  0  0  0
  -27.2286  -37.1430   25.8868 H   0  0  0  0  0  0
  -20.9367  -29.8718   21.6822 H   0  0  0  0  0  0
  -26.0157  -38.2818   24.1407 H   0  0  0  0  0  0
  -29.1530  -18.9780   18.6700 H   0  0  0  0  0  0
  -29.8448  -19.7768   22.7044 H   0  0  0  0  0  0
  -28.5470  -16.8821   18.1446 H   0  0  0  0  0  0
  -27.9540  -16.0578   19.5496 H   0  0  0  0  0  0
  -28.7617  -15.1800   18.2037 H   0  0  0  0  0  0
  -30.7905  -17.3399   17.7788 H   0  0  0  0  0  0
  -31.3565  -15.6863   17.8239 H   0  0  0  0  0  0
  -32.0685  -16.9076   18.8773 H   0  0  0  0  0  0
  -29.7339  -22.6288   19.3833 H   0  0  0  0  0  0
  -30.1053  -22.5376   21.0714 H   0  0  0  0  0  0
  -28.8069  -24.2862   21.6204 H   0  0  0  0  0  0
  -27.4029  -23.6546   20.8486 H   0  0  0  0  0  0
  -27.8689  -21.0386   19.6178 H   0  0  0  0  0  0
  -27.8486  -21.2058   21.3382 H   0  0  0  0  0  0
  -27.8195  -24.9517   18.8214 H   0  0  0  0  0  0
  -29.4742  -25.1226   19.1801 H   0  0  0  0  0  0
  1 25  1  0  0  0
  1 30  2  0  0  0
  1 80  1  0  0  0
  2  3  1  0  0  0
  2 25  1  0  0  0
  2 83  1  0  0  0
  2 84  1  0  0  0
  3  4  1  0  0  0
  3 85  1  0  0  0
  3 86  1  0  0  0
  4  5  1  0  0  0
  4 87  1  0  0  0
  4 88  1  0  0  0
  5  6  1  0  0  0
  5 26  1  0  0  0
  5 89  1  0  0  0
  6 25  1  0  0  0
  6 90  1  0  0  0
  6 91  1  0  0  0
  7  8  2  0  0  0
  7 26  1  0  0  0
  7 29  1  0  0  0
  8  9  1  0  0  0
  8 22  1  0  0  0
  9 10  1  0  0  0
  9 27  2  0  0  0
 10 11  2  0  0  0
 10 15  1  0  0  0
 11 12  1  0  0  0
 11 92  1  0  0  0
 12 13  2  0  0  0
 12 93  1  0  0  0
 13 14  1  0  0  0
 13 31  1  0  0  0
 14 15  2  0  0  0
 14 94  1  0  0  0
 15 95  1  0  0  0
 16 17  2  0  0  0
 16 21  1  0  0  0
 16 31  1  0  0  0
 17 18  1  0  0  0
 17 96  1  0  0  0
 18 19  2  0  0  0
 18 97  1  0  0  0
 19 20  1  0  0  0
 19 24  1  0  0  0
 20 21  2  0  0  0
 20 98  1  0  0  0
 21 23  1  0  0  0
 22 28  1  0  0  0
 22 32  2  0  0  0
 26 27  1  0  0  0
 28 99  1  0  0  0
 28100  1  0  0  0
 29101  1  0  0  0
 29102  1  0  0  0
 33 34  1  0  0  0
 33 66  1  0  0  0
 33 70  2  0  0  0
 34 36  1  0  0  0
 34 59  1  0  0  0
 34103  1  0  0  0
 35 44  2  0  0  0
 35 45  1  0  0  0
 35 68  1  0  0  0
 36 56  1  0  0  0
 36104  1  0  0  0
 37 39  1  0  0  0
 37 47  1  0  0  0
 37 66  1  0  0  0
 37105  1  0  0  0
 38 43  2  0  0  0
 38 46  1  0  0  0
 38 47  1  0  0  0
 39 64  1  0  0  0
 39 67  2  0  0  0
 40 52  1  0  0  0
 40 53  2  0  0  0
 40 58  1  0  0  0
 41106  1  0  0  0
 41107  1  0  0  0
 41108  1  0  0  0
 41 48  1  0  0  0
 42 43  1  0  0  0
 42 66  1  0  0  0
 42109  1  0  0  0
 42110  1  0  0  0
 43 44  1  0  0  0
 44111  1  0  0  0
 45 46  2  0  0  0
 45112  1  0  0  0
 46113  1  0  0  0
 47114  1  0  0  0
 47115  1  0  0  0
 48 56  1  0  0  0
 48 65  1  0  0  0
 48116  1  0  0  0
 49 50  1  0  0  0
 49 53  1  0  0  0
 49 64  1  0  0  0
 49117  1  0  0  0
 50 51  1  0  0  0
 50118  1  0  0  0
 50119  1  0  0  0
 51 52  1  0  0  0
 51120  1  0  0  0
 51121  1  0  0  0
 52122  1  0  0  0
 52123  1  0  0  0
 53 54  1  0  0  0
 54 55  2  0  0  0
 54124  1  0  0  0
 55 57  1  0  0  0
 55125  1  0  0  0
 56 69  2  0  0  0
 57 58  2  0  0  0
 57126  1  0  0  0
 58127  1  0  0  0
 59 60  1  0  0  0
 59 61  1  0  0  0
 59 62  1  0  0  0
 60128  1  0  0  0
 60129  1  0  0  0
 60130  1  0  0  0
 61131  1  0  0  0
 61132  1  0  0  0
 61133  1  0  0  0
 62134  1  0  0  0
 62135  1  0  0  0
 62136  1  0  0  0
 63 65  1  0  0  0
 63137  1  0  0  0
 63138  1  0  0  0
 63139  1  0  0  0
 64140  1  0  0  0
 65141  1  0  0  0
 68 79  1  0  0  0
 71 73  2  0  0  0
 71 82  1  0  0  0
 71142  1  0  0  0
 72 81  2  0  0  0
 72 82  1  0  0  0
 72143  1  0  0  0
 73 80  1  0  0  0
 73 81  1  0  0  0
 74144  1  0  0  0
 74145  1  0  0  0
 74146  1  0  0  0
 74 80  1  0  0  0
 75 80  1  0  0  0
 75147  1  0  0  0
 75148  1  0  0  0
 75149  1  0  0  0
 76 77  1  0  0  0
 76 78  1  0  0  0
 76150  1  0  0  0
 76151  1  0  0  0
 77 79  1  0  0  0
 77152  1  0  0  0
 77153  1  0  0  0
 78 82  1  0  0  0
 78154  1  0  0  0
 78155  1  0  0  0
 79156  1  0  0  0
 79157  1  0  0  0
M  ISO  4   1 100  68 101  79 101  80 100
M  END
> <chiral flag>
0

> <version>
0

> <s_m_source_file>
/data/baiqing/PycharmProjects/Reinvent-master-3.2/result/LINK_invent/BTK/process_docking_weight1_custom_sum_contain_oxygen_bond_distance_aromatic_linkinvent_7_9_3/rearranged_h_0075.sdf

> <i_m_source_file_index>
93

> <r_mmod_Potential_Energy-OPLS-2005>
405.241180419922

> <r_mmod_Stretch_Energy-OPLS-2005>
110.068908691406

> <r_mmod_Bend_Energy-OPLS-2005>
227.991958618164

> <r_mmod_Torsional_Energy-OPLS-2005>
254.493576049805

> <r_mmod_Improper_Torsional_Energy-OPLS-2005>
18.0740928649902

> <r_mmod_Van_der_Waal_Energy-OPLS-2005>
138.393417358398

> <r_mmod_Electrostatic_Energy-OPLS-2005>
-260.089141845703

> <r_mmod_Solvation_Energy-OPLS-2005>
-211.531875610352

> <b_mmod_Minimization_Converged-OPLS-2005>
0

> <r_mmod_RMS_Derivative-OPLS-2005>
6.178879737854

$$$$
94
                    3D
 Structure written by MMmdl.
154162  0  0  1  0            999 V2000
  -30.5355  -14.9629   20.3671 C   0  0  0  0  0  0
  -30.4368  -12.5792   19.5142 C   0  0  0  0  0  0
  -29.5276  -12.5296   18.2643 C   0  0  0  0  0  0
  -28.0563  -12.3205   18.6708 C   0  0  0  0  0  0
  -27.6256  -13.2471   19.8385 C   0  0  2  0  0  0
  -28.6673  -13.2950   20.9743 C   0  0  0  0  0  0
  -25.2463  -13.8205   20.5754 C   0  0  0  0  0  0
  -24.1782  -13.0435   20.9245 C   0  0  0  0  0  0
  -24.6398  -11.6913   20.8775 C   0  0  0  0  0  0
  -23.9098  -10.4288   21.0423 C   0  0  0  0  0  0
  -24.3646   -9.4195   21.9191 C   0  0  0  0  0  0
  -23.6310   -8.2237   22.0758 C   0  0  0  0  0  0
  -22.4288   -8.0282   21.3553 C   0  0  0  0  0  0
  -21.9937   -9.0262   20.4659 C   0  0  0  0  0  0
  -22.7275  -10.2133   20.3066 C   0  0  0  0  0  0
  -21.6845   -6.0746   22.5288 C   0  0  0  0  0  0
  -21.4003   -6.5641   23.8222 C   0  0  0  0  0  0
  -21.3665   -5.6794   24.9184 C   0  0  0  0  0  0
  -21.6042   -4.3056   24.7236 C   0  0  0  0  0  0
  -21.8817   -3.8153   23.4358 C   0  0  0  0  0  0
  -21.9193   -4.6973   22.3413 C   0  0  0  0  0  0
  -22.7795  -13.5201   21.1883 C   0  0  0  0  0  0
  -22.1656   -4.2161   21.0993 F   0  0  0  0  0  0
  -21.5644   -3.4534   25.7751 F   0  0  0  0  0  0
  -29.9546  -13.6904   20.3872 N   0  0  0  0  0  0
  -26.2876  -12.9426   20.3259 N   0  0  0  0  0  0
  -25.9331  -11.6557   20.5747 N   0  0  0  0  0  0
  -22.0432  -12.8218   22.0443 N   0  0  0  0  0  0
  -25.4152  -15.1946   20.4230 N   0  0  0  0  0  0
  -31.7474  -14.9687   20.1158 O   0  0  0  0  0  0
  -21.6638   -6.8887   21.4252 O   0  0  0  0  0  0
  -22.3486  -14.5501   20.6703 O   0  0  0  0  0  0
  -24.6428  -31.8430   23.1881 C   0  0  0  0  0  0
  -25.9208  -32.4681   23.8264 C   0  0  1  0  0  0
  -27.2141  -27.1362   20.1394 C   0  0  0  0  0  0
  -25.5960  -33.8492   24.2189 N   0  0  0  0  0  0
  -23.4461  -30.4624   21.5340 C   0  0  2  0  0  0
  -24.8922  -28.8923   20.1053 C   0  0  0  0  0  0
  -22.7581  -29.4531   22.4864 C   0  0  0  0  0  0
  -18.0315  -28.1390   22.8464 C   0  0  0  0  0  0
  -24.1496  -36.7260   23.2644 C   0  0  0  0  0  0
  -25.9997  -30.7171   21.3850 C   0  0  0  0  0  0
  -26.0675  -29.3286   20.7271 C   0  0  0  0  0  0
  -27.2249  -28.4644   20.7313 C   0  0  0  0  0  0
  -26.0105  -26.8005   19.4794 C   0  0  0  0  0  0
  -24.8767  -27.6423   19.4689 C   0  0  0  0  0  0
  -23.6705  -29.7963   20.1502 C   0  0  0  0  0  0
  -25.4125  -36.3027   24.0315 C   0  0  1  0  0  0
  -20.5925  -28.3710   23.1244 C   0  0  2  0  0  0
  -20.6804  -26.9416   22.5408 C   0  0  0  0  0  0
  -19.5779  -26.6375   21.5216 C   0  0  0  0  0  0
  -18.1956  -26.7925   22.1620 C   0  0  0  0  0  0
  -19.1569  -28.8871   23.2838 C   0  0  0  0  0  0
  -18.9484  -30.1467   23.8862 C   0  0  0  0  0  0
  -17.6480  -30.6580   24.0562 C   0  0  0  0  0  0
  -25.9074  -34.9404   23.5065 C   0  0  0  0  0  0
  -16.5372  -29.9073   23.6339 C   0  0  0  0  0  0
  -16.7300  -28.6501   23.0340 C   0  0  0  0  0  0
  -26.4535  -31.6540   25.0702 C   0  0  0  0  0  0
  -25.3731  -31.3709   26.1404 C   0  0  0  0  0  0
  -27.0405  -30.2943   24.6271 C   0  0  0  0  0  0
  -27.6064  -32.4300   25.7497 C   0  0  0  0  0  0
  -27.5576  -37.1789   24.8466 C   0  0  0  0  0  0
  -21.4272  -29.3036   22.3620 N   0  0  0  0  0  0
  -26.4286  -37.3742   23.9409 N   0  0  0  0  0  0
  -24.7161  -31.0289   22.0908 N   0  0  0  0  0  0
  -23.4228  -28.8093   23.3021 O   0  0  0  0  0  0
  -28.2878  -26.1783   20.2461 O   0  0  0  0  0  0
  -26.5662  -34.8902   22.4645 O   0  0  0  0  0  0
  -23.5553  -32.1310   23.7108 O   0  0  0  0  0  0
  -32.1742  -18.9759   21.4840 C   0  0  0  0  0  0
  -31.2135  -19.8990   21.1982 C   0  0  0  0  0  0
  -30.4235  -17.8417   20.7542 C   0  0  0  0  0  0
  -29.1425  -16.6419   18.9375 C   0  0  0  0  0  0
  -29.0826  -21.8194   19.8735 C   0  0  0  0  0  0
  -28.5743  -23.2735   20.5630 C   0  0  0  0  0  0
  -28.8844  -20.2231   20.4182 C   0  0  0  0  0  0
  -28.3153  -24.7113   19.7193 C   0  0  0  0  0  0
  -29.7027  -16.4325   20.3580 C   0  0  1  0  0  0
  -31.6705  -17.7193   21.2180 N   0  0  0  0  0  0
  -30.0756  -19.2545   20.7132 N   0  0  0  0  0  0
  -31.4747  -12.7116   19.2068 H   0  0  0  0  0  0
  -30.4095  -11.6279   20.0489 H   0  0  0  0  0  0
  -29.8489  -11.7293   17.5971 H   0  0  0  0  0  0
  -29.6289  -13.4585   17.7000 H   0  0  0  0  0  0
  -27.9449  -11.2780   18.9691 H   0  0  0  0  0  0
  -27.3988  -12.4583   17.8124 H   0  0  0  0  0  0
  -27.5665  -14.2449   19.4159 H   0  0  0  0  0  0
  -28.7463  -12.3255   21.4667 H   0  0  0  0  0  0
  -28.3642  -14.0081   21.7429 H   0  0  0  0  0  0
  -25.2788   -9.5652   22.4769 H   0  0  0  0  0  0
  -24.0015   -7.4624   22.7475 H   0  0  0  0  0  0
  -21.0862   -8.8781   19.8975 H   0  0  0  0  0  0
  -22.3729  -10.9674   19.6177 H   0  0  0  0  0  0
  -21.1964   -7.6140   23.9721 H   0  0  0  0  0  0
  -21.1499   -6.0529   25.9086 H   0  0  0  0  0  0
  -22.0595   -2.7622   23.2857 H   0  0  0  0  0  0
  -22.4035  -11.9899   22.4868 H   0  0  0  0  0  0
  -21.1035  -13.1238   22.2608 H   0  0  0  0  0  0
  -24.6507  -15.8493   20.5471 H   0  0  0  0  0  0
  -26.2664  -15.6392   20.1050 H   0  0  0  0  0  0
  -26.7275  -32.5280   23.0991 H   0  0  0  0  0  0
  -25.0091  -33.9602   25.0328 H   0  0  0  0  0  0
  -22.7466  -31.2869   21.3831 H   0  0  0  0  0  0
  -23.3757  -35.9593   23.3286 H   0  0  0  0  0  0
  -24.3592  -36.8914   22.2063 H   0  0  0  0  0  0
  -23.7251  -37.6454   23.6691 H   0  0  0  0  0  0
  -26.1517  -31.4701   20.6099 H   0  0  0  0  0  0
  -26.8706  -30.7665   22.0258 H   0  0  0  0  0  0
  -28.1187  -28.7941   21.2427 H   0  0  0  0  0  0
  -25.8903  -25.8500   18.9858 H   0  0  0  0  0  0
  -23.9791  -27.3043   18.9701 H   0  0  0  0  0  0
  -23.8066  -30.5733   19.3958 H   0  0  0  0  0  0
  -22.7828  -29.2415   19.8419 H   0  0  0  0  0  0
  -25.1308  -36.1858   25.0804 H   0  0  0  0  0  0
  -21.0000  -28.3292   24.1372 H   0  0  0  0  0  0
  -20.5723  -26.2317   23.3621 H   0  0  0  0  0  0
  -21.6665  -26.7438   22.1195 H   0  0  0  0  0  0
  -19.6946  -25.6288   21.1249 H   0  0  0  0  0  0
  -19.6715  -27.3185   20.6747 H   0  0  0  0  0  0
  -17.4233  -26.6667   21.4018 H   0  0  0  0  0  0
  -18.0344  -26.0077   22.9026 H   0  0  0  0  0  0
  -19.7963  -30.7292   24.2211 H   0  0  0  0  0  0
  -17.5036  -31.6256   24.5168 H   0  0  0  0  0  0
  -15.5372  -30.2963   23.7680 H   0  0  0  0  0  0
  -15.8703  -28.0821   22.7049 H   0  0  0  0  0  0
  -24.5930  -30.7025   25.7743 H   0  0  0  0  0  0
  -24.8894  -32.2877   26.4783 H   0  0  0  0  0  0
  -25.8033  -30.8932   27.0217 H   0  0  0  0  0  0
  -26.3022  -29.6653   24.1280 H   0  0  0  0  0  0
  -27.4041  -29.7237   25.4827 H   0  0  0  0  0  0
  -27.8916  -30.4190   23.9569 H   0  0  0  0  0  0
  -27.2664  -33.3623   26.2021 H   0  0  0  0  0  0
  -28.3915  -32.6822   25.0355 H   0  0  0  0  0  0
  -28.0691  -31.8455   26.5463 H   0  0  0  0  0  0
  -28.2578  -38.0098   24.7514 H   0  0  0  0  0  0
  -28.1080  -36.2627   24.6282 H   0  0  0  0  0  0
  -27.2295  -37.1427   25.8869 H   0  0  0  0  0  0
  -20.9487  -29.8758   21.6804 H   0  0  0  0  0  0
  -26.0147  -38.2810   24.1411 H   0  0  0  0  0  0
  -33.1730  -19.1194   21.8738 H   0  0  0  0  0  0
  -31.2555  -20.9740   21.3188 H   0  0  0  0  0  0
  -28.3423  -17.3814   18.9380 H   0  0  0  0  0  0
  -28.7508  -15.7341   18.4868 H   0  0  0  0  0  0
  -29.9238  -17.0082   18.2719 H   0  0  0  0  0  0
  -28.5896  -21.8186   18.9001 H   0  0  0  0  0  0
  -30.1291  -21.9467   19.5966 H   0  0  0  0  0  0
  -29.2991  -23.5004   21.3447 H   0  0  0  0  0  0
  -27.6519  -23.0687   21.1062 H   0  0  0  0  0  0
  -28.2464  -19.7100   19.6978 H   0  0  0  0  0  0
  -28.2859  -20.2538   21.3297 H   0  0  0  0  0  0
  -27.4467  -24.5269   19.0945 H   0  0  0  0  0  0
  -29.1252  -24.7481   18.9899 H   0  0  0  0  0  0
  -28.8667  -16.3037   21.0448 H   0  0  0  0  0  0
  1 25  1  0  0  0
  1 30  2  0  0  0
  1 79  1  0  0  0
  2  3  1  0  0  0
  2 25  1  0  0  0
  2 82  1  0  0  0
  2 83  1  0  0  0
  3  4  1  0  0  0
  3 84  1  0  0  0
  3 85  1  0  0  0
  4  5  1  0  0  0
  4 86  1  0  0  0
  4 87  1  0  0  0
  5  6  1  0  0  0
  5 26  1  0  0  0
  5 88  1  0  0  0
  6 25  1  0  0  0
  6 89  1  0  0  0
  6 90  1  0  0  0
  7  8  2  0  0  0
  7 26  1  0  0  0
  7 29  1  0  0  0
  8  9  1  0  0  0
  8 22  1  0  0  0
  9 10  1  0  0  0
  9 27  2  0  0  0
 10 11  2  0  0  0
 10 15  1  0  0  0
 11 12  1  0  0  0
 11 91  1  0  0  0
 12 13  2  0  0  0
 12 92  1  0  0  0
 13 14  1  0  0  0
 13 31  1  0  0  0
 14 15  2  0  0  0
 14 93  1  0  0  0
 15 94  1  0  0  0
 16 17  2  0  0  0
 16 21  1  0  0  0
 16 31  1  0  0  0
 17 18  1  0  0  0
 17 95  1  0  0  0
 18 19  2  0  0  0
 18 96  1  0  0  0
 19 20  1  0  0  0
 19 24  1  0  0  0
 20 21  2  0  0  0
 20 97  1  0  0  0
 21 23  1  0  0  0
 22 28  1  0  0  0
 22 32  2  0  0  0
 26 27  1  0  0  0
 28 98  1  0  0  0
 28 99  1  0  0  0
 29100  1  0  0  0
 29101  1  0  0  0
 33 34  1  0  0  0
 33 66  1  0  0  0
 33 70  2  0  0  0
 34 36  1  0  0  0
 34 59  1  0  0  0
 34102  1  0  0  0
 35 44  2  0  0  0
 35 45  1  0  0  0
 35 68  1  0  0  0
 36 56  1  0  0  0
 36103  1  0  0  0
 37 39  1  0  0  0
 37 47  1  0  0  0
 37 66  1  0  0  0
 37104  1  0  0  0
 38 43  2  0  0  0
 38 46  1  0  0  0
 38 47  1  0  0  0
 39 64  1  0  0  0
 39 67  2  0  0  0
 40 52  1  0  0  0
 40 53  2  0  0  0
 40 58  1  0  0  0
 41105  1  0  0  0
 41106  1  0  0  0
 41107  1  0  0  0
 41 48  1  0  0  0
 42 43  1  0  0  0
 42 66  1  0  0  0
 42108  1  0  0  0
 42109  1  0  0  0
 43 44  1  0  0  0
 44110  1  0  0  0
 45 46  2  0  0  0
 45111  1  0  0  0
 46112  1  0  0  0
 47113  1  0  0  0
 47114  1  0  0  0
 48 56  1  0  0  0
 48 65  1  0  0  0
 48115  1  0  0  0
 49 50  1  0  0  0
 49 53  1  0  0  0
 49 64  1  0  0  0
 49116  1  0  0  0
 50 51  1  0  0  0
 50117  1  0  0  0
 50118  1  0  0  0
 51 52  1  0  0  0
 51119  1  0  0  0
 51120  1  0  0  0
 52121  1  0  0  0
 52122  1  0  0  0
 53 54  1  0  0  0
 54 55  2  0  0  0
 54123  1  0  0  0
 55 57  1  0  0  0
 55124  1  0  0  0
 56 69  2  0  0  0
 57 58  2  0  0  0
 57125  1  0  0  0
 58126  1  0  0  0
 59 60  1  0  0  0
 59 61  1  0  0  0
 59 62  1  0  0  0
 60127  1  0  0  0
 60128  1  0  0  0
 60129  1  0  0  0
 61130  1  0  0  0
 61131  1  0  0  0
 61132  1  0  0  0
 62133  1  0  0  0
 62134  1  0  0  0
 62135  1  0  0  0
 63 65  1  0  0  0
 63136  1  0  0  0
 63137  1  0  0  0
 63138  1  0  0  0
 64139  1  0  0  0
 65140  1  0  0  0
 68 78  1  0  0  0
 71 72  2  0  0  0
 71 80  1  0  0  0
 71141  1  0  0  0
 72 81  1  0  0  0
 72142  1  0  0  0
 73 79  1  0  0  0
 73 80  2  0  0  0
 73 81  1  0  0  0
 74143  1  0  0  0
 74144  1  0  0  0
 74145  1  0  0  0
 74 79  1  0  0  0
 75 76  1  0  0  0
 75 77  1  0  0  0
 75146  1  0  0  0
 75147  1  0  0  0
 76 78  1  0  0  0
 76148  1  0  0  0
 76149  1  0  0  0
 77 81  1  0  0  0
 77150  1  0  0  0
 77151  1  0  0  0
 78152  1  0  0  0
 78153  1  0  0  0
 79154  1  0  0  0
M  ISO  4   1 100  68 101  78 101  79 100
M  END
> <chiral flag>
0

> <version>
0

> <s_m_source_file>
/data/baiqing/PycharmProjects/Reinvent-master-3.2/result/LINK_invent/BTK/process_docking_weight1_custom_sum_contain_oxygen_bond_distance_aromatic_linkinvent_7_9_3/rearranged_h_0075.sdf

> <i_m_source_file_index>
94

> <r_mmod_Potential_Energy-OPLS-2005>
669.121948242188

> <r_mmod_Stretch_Energy-OPLS-2005>
289.071441650391

> <r_mmod_Bend_Energy-OPLS-2005>
329.714569091797

> <r_mmod_Torsional_Energy-OPLS-2005>
220.49153137207

> <r_mmod_Improper_Torsional_Energy-OPLS-2005>
6.54870080947876

> <r_mmod_Van_der_Waal_Energy-OPLS-2005>
111.858657836914

> <r_mmod_Electrostatic_Energy-OPLS-2005>
-252.331832885742

> <r_mmod_Solvation_Energy-OPLS-2005>
-229.160919189453

> <b_mmod_Minimization_Converged-OPLS-2005>
0

> <r_mmod_RMS_Derivative-OPLS-2005>
2.04005455970764

$$$$
95
                    3D
 Structure written by MMmdl.
163171  0  0  1  0            999 V2000
  -30.7206  -14.4586   20.5995 C   0  0  0  0  0  0
  -30.4158  -12.3041   19.4291 C   0  0  0  0  0  0
  -29.4966  -12.5294   18.2101 C   0  0  0  0  0  0
  -28.0078  -12.4146   18.6024 C   0  0  0  0  0  0
  -27.6589  -13.2184   19.8825 C   0  0  2  0  0  0
  -28.6992  -12.9664   20.9939 C   0  0  0  0  0  0
  -25.2574  -13.8199   20.5786 C   0  0  0  0  0  0
  -24.1804  -13.0439   20.9174 C   0  0  0  0  0  0
  -24.6382  -11.6923   20.8711 C   0  0  0  0  0  0
  -23.9055  -10.4299   21.0382 C   0  0  0  0  0  0
  -24.3600   -9.4219   21.9173 C   0  0  0  0  0  0
  -23.6283   -8.2254   22.0753 C   0  0  0  0  0  0
  -22.4277   -8.0281   21.3551 C   0  0  0  0  0  0
  -21.9899   -9.0247   20.4659 C   0  0  0  0  0  0
  -22.7222  -10.2128   20.3048 C   0  0  0  0  0  0
  -21.6878   -6.0723   22.5275 C   0  0  0  0  0  0
  -21.4038   -6.5613   23.8211 C   0  0  0  0  0  0
  -21.3664   -5.6755   24.9162 C   0  0  0  0  0  0
  -21.6049   -4.3022   24.7206 C   0  0  0  0  0  0
  -21.8830   -3.8119   23.4325 C   0  0  0  0  0  0
  -21.9210   -4.6949   22.3387 C   0  0  0  0  0  0
  -22.7833  -13.5242   21.1797 C   0  0  0  0  0  0
  -22.1669   -4.2137   21.0965 F   0  0  0  0  0  0
  -21.5617   -3.4503   25.7710 F   0  0  0  0  0  0
  -30.0329  -13.2890   20.4562 N   0  0  0  0  0  0
  -26.2998  -12.9389   20.3406 N   0  0  0  0  0  0
  -25.9309  -11.6542   20.5724 N   0  0  0  0  0  0
  -22.0446  -12.8263   22.0353 N   0  0  0  0  0  0
  -25.4324  -15.1939   20.4401 N   0  0  0  0  0  0
  -31.8206  -14.6363   20.0624 O   0  0  0  0  0  0
  -21.6648   -6.8884   21.4254 O   0  0  0  0  0  0
  -22.3546  -14.5555   20.6641 O   0  0  0  0  0  0
  -24.6166  -31.8700   23.2054 C   0  0  0  0  0  0
  -25.9090  -32.4806   23.8321 C   0  0  1  0  0  0
  -27.2198  -27.4383   20.0905 C   0  0  0  0  0  0
  -25.5953  -33.8595   24.2285 N   0  0  0  0  0  0
  -23.4006  -30.4951   21.5503 C   0  0  2  0  0  0
  -24.8444  -28.9672   20.1139 C   0  0  0  0  0  0
  -22.7395  -29.4690   22.4972 C   0  0  0  0  0  0
  -18.0287  -28.1359   22.8508 C   0  0  0  0  0  0
  -24.1506  -36.7308   23.2610 C   0  0  0  0  0  0
  -25.9343  -30.8363   21.3615 C   0  0  0  0  0  0
  -26.0076  -29.4761   20.7017 C   0  0  0  0  0  0
  -27.2063  -28.7251   20.6758 C   0  0  0  0  0  0
  -26.0386  -26.9481   19.4963 C   0  0  0  0  0  0
  -24.8544  -27.7024   19.5068 C   0  0  0  0  0  0
  -23.6071  -29.8313   20.1637 C   0  0  0  0  0  0
  -25.4134  -36.3091   24.0313 C   0  0  1  0  0  0
  -20.5877  -28.3690   23.1337 C   0  0  2  0  0  0
  -20.6819  -26.9393   22.5485 C   0  0  0  0  0  0
  -19.5751  -26.6183   21.5401 C   0  0  0  0  0  0
  -18.1939  -26.7812   22.1812 C   0  0  0  0  0  0
  -19.1528  -28.8829   23.2910 C   0  0  0  0  0  0
  -18.9454  -30.1438   23.8898 C   0  0  0  0  0  0
  -17.6449  -30.6550   24.0599 C   0  0  0  0  0  0
  -25.9063  -34.9457   23.5077 C   0  0  0  0  0  0
  -16.5354  -29.9068   23.6318 C   0  0  0  0  0  0
  -16.7260  -28.6496   23.0318 C   0  0  0  0  0  0
  -26.4517  -31.6567   25.0642 C   0  0  0  0  0  0
  -25.3777  -31.3703   26.1380 C   0  0  0  0  0  0
  -27.0304  -30.2968   24.6042 C   0  0  0  0  0  0
  -27.6079  -32.4295   25.7415 C   0  0  0  0  0  0
  -27.5591  -37.1811   24.8460 C   0  0  0  0  0  0
  -21.4117  -29.3082   22.3751 N   0  0  0  0  0  0
  -26.4306  -37.3787   23.9401 N   0  0  0  0  0  0
  -24.6683  -31.0796   22.0976 N   0  0  0  0  0  0
  -23.4166  -28.8226   23.2998 O   0  0  0  0  0  0
  -28.3683  -26.6757   20.0995 O   0  0  0  0  0  0
  -26.5587  -34.8922   22.4614 O   0  0  0  0  0  0
  -23.5362  -32.1459   23.7455 O   0  0  0  0  0  0
  -28.7925  -21.7822   20.2147 C   0  0  0  0  0  0
  -27.8716  -22.8209   20.4947 C   0  0  0  0  0  0
  -28.4947  -20.4695   20.6487 C   0  0  0  0  0  0
  -26.7364  -22.4595   21.2728 C   0  0  0  0  0  0
  -25.7258  -23.9490   23.0723 C   0  0  0  0  0  0
  -29.7935  -15.6035   22.5503 C   0  0  0  0  0  0
  -28.0528  -24.1954   19.8300 C   0  0  0  0  0  0
  -29.2638  -19.2624   20.1043 C   0  0  0  0  0  0
  -25.6108  -23.4201   21.6345 C   0  0  0  0  0  0
  -29.4586  -18.0586   21.0672 C   0  0  0  0  0  0
  -30.0637  -16.8083   20.3586 C   0  0  0  0  0  0
  -28.2501  -25.4075   20.7736 C   0  0  0  0  0  0
  -27.3846  -20.2072   21.3799 N   0  0  0  0  0  0
  -26.5466  -21.1916   21.7182 N   0  0  0  0  0  0
  -30.0379  -15.5210   21.1054 N   0  0  0  0  0  0
  -31.4640  -12.3941   19.1327 H   0  0  0  0  0  0
  -30.3049  -11.2897   19.8152 H   0  0  0  0  0  0
  -29.7242  -11.8112   17.4206 H   0  0  0  0  0  0
  -29.6959  -13.5191   17.7929 H   0  0  0  0  0  0
  -27.7774  -11.3599   18.7464 H   0  0  0  0  0  0
  -27.3791  -12.7470   17.7741 H   0  0  0  0  0  0
  -27.7089  -14.2735   19.6174 H   0  0  0  0  0  0
  -28.6796  -11.9196   21.3011 H   0  0  0  0  0  0
  -28.4393  -13.5264   21.8869 H   0  0  0  0  0  0
  -25.2743   -9.5691   22.4754 H   0  0  0  0  0  0
  -24.0007   -7.4657   22.7461 H   0  0  0  0  0  0
  -21.0838   -8.8773   19.8967 H   0  0  0  0  0  0
  -22.3694  -10.9664   19.6151 H   0  0  0  0  0  0
  -21.2049   -7.6119   23.9713 H   0  0  0  0  0  0
  -21.1481   -6.0473   25.9069 H   0  0  0  0  0  0
  -22.0612   -2.7575   23.2829 H   0  0  0  0  0  0
  -22.4023  -11.9970   22.4855 H   0  0  0  0  0  0
  -21.1077  -13.1369   22.2506 H   0  0  0  0  0  0
  -24.6839  -15.8547   20.6224 H   0  0  0  0  0  0
  -26.3145  -15.6467   20.2352 H   0  0  0  0  0  0
  -26.7179  -32.5530   23.1098 H   0  0  0  0  0  0
  -25.0181  -33.9770   25.0477 H   0  0  0  0  0  0
  -22.6893  -31.3125   21.4120 H   0  0  0  0  0  0
  -23.3763  -35.9646   23.3271 H   0  0  0  0  0  0
  -24.3591  -36.8908   22.2014 H   0  0  0  0  0  0
  -23.7261  -37.6517   23.6625 H   0  0  0  0  0  0
  -26.0582  -31.6123   20.6051 H   0  0  0  0  0  0
  -26.8196  -30.8709   21.9858 H   0  0  0  0  0  0
  -28.1105  -29.1211   21.1153 H   0  0  0  0  0  0
  -26.0109  -25.9891   19.0096 H   0  0  0  0  0  0
  -23.9618  -27.3056   19.0468 H   0  0  0  0  0  0
  -23.7168  -30.6094   19.4082 H   0  0  0  0  0  0
  -22.7348  -29.2478   19.8646 H   0  0  0  0  0  0
  -25.1314  -36.1928   25.0807 H   0  0  0  0  0  0
  -20.9931  -28.3301   24.1468 H   0  0  0  0  0  0
  -20.5809  -26.2375   23.3766 H   0  0  0  0  0  0
  -21.6689  -26.7427   22.1248 H   0  0  0  0  0  0
  -19.6923  -25.5974   21.1731 H   0  0  0  0  0  0
  -19.6671  -27.2794   20.6792 H   0  0  0  0  0  0
  -17.4180  -26.6405   21.4280 H   0  0  0  0  0  0
  -18.0342  -26.0083   22.9330 H   0  0  0  0  0  0
  -19.7910  -30.7247   24.2283 H   0  0  0  0  0  0
  -17.5042  -31.6212   24.5259 H   0  0  0  0  0  0
  -15.5376  -30.2981   23.7700 H   0  0  0  0  0  0
  -15.8665  -28.0820   22.6985 H   0  0  0  0  0  0
  -24.6015  -30.6974   25.7736 H   0  0  0  0  0  0
  -24.8908  -32.2854   26.4743 H   0  0  0  0  0  0
  -25.8120  -30.8947   27.0176 H   0  0  0  0  0  0
  -26.2800  -29.6735   24.1157 H   0  0  0  0  0  0
  -27.4090  -29.7204   25.4502 H   0  0  0  0  0  0
  -27.8646  -30.4212   23.9134 H   0  0  0  0  0  0
  -27.2683  -33.3612   26.1970 H   0  0  0  0  0  0
  -28.3885  -32.6835   25.0229 H   0  0  0  0  0  0
  -28.0751  -31.8424   26.5338 H   0  0  0  0  0  0
  -28.2615  -38.0112   24.7522 H   0  0  0  0  0  0
  -28.1078  -36.2625   24.6285 H   0  0  0  0  0  0
  -27.2282  -37.1454   25.8858 H   0  0  0  0  0  0
  -20.9252  -29.8826   21.7020 H   0  0  0  0  0  0
  -26.0174  -38.2853   24.1423 H   0  0  0  0  0  0
  -29.6525  -21.9663   19.5890 H   0  0  0  0  0  0
  -24.9432  -24.6794   23.2827 H   0  0  0  0  0  0
  -26.6898  -24.4241   23.2515 H   0  0  0  0  0  0
  -25.6318  -23.1399   23.7948 H   0  0  0  0  0  0
  -30.4516  -16.3388   23.0151 H   0  0  0  0  0  0
  -29.9756  -14.6593   23.0655 H   0  0  0  0  0  0
  -28.7579  -15.8807   22.7485 H   0  0  0  0  0  0
  -27.1983  -24.3271   19.1736 H   0  0  0  0  0  0
  -28.9092  -24.1492   19.1574 H   0  0  0  0  0  0
  -30.2362  -19.6003   19.7407 H   0  0  0  0  0  0
  -28.7160  -18.9291   19.2219 H   0  0  0  0  0  0
  -24.6619  -22.8900   21.5395 H   0  0  0  0  0  0
  -25.5482  -24.2386   20.9193 H   0  0  0  0  0  0
  -28.4869  -17.7887   21.4800 H   0  0  0  0  0  0
  -30.0899  -18.3599   21.9048 H   0  0  0  0  0  0
  -31.0880  -17.0460   20.0625 H   0  0  0  0  0  0
  -29.5219  -16.6353   19.4242 H   0  0  0  0  0  0
  -29.1572  -25.2523   21.3541 H   0  0  0  0  0  0
  -27.4521  -25.4691   21.5085 H   0  0  0  0  0  0
  1 25  1  0  0  0
  1 30  2  0  0  0
  1 85  1  0  0  0
  2  3  1  0  0  0
  2 25  1  0  0  0
  2 86  1  0  0  0
  2 87  1  0  0  0
  3  4  1  0  0  0
  3 88  1  0  0  0
  3 89  1  0  0  0
  4  5  1  0  0  0
  4 90  1  0  0  0
  4 91  1  0  0  0
  5  6  1  0  0  0
  5 26  1  0  0  0
  5 92  1  0  0  0
  6 25  1  0  0  0
  6 93  1  0  0  0
  6 94  1  0  0  0
  7  8  2  0  0  0
  7 26  1  0  0  0
  7 29  1  0  0  0
  8  9  1  0  0  0
  8 22  1  0  0  0
  9 10  1  0  0  0
  9 27  2  0  0  0
 10 11  2  0  0  0
 10 15  1  0  0  0
 11 12  1  0  0  0
 11 95  1  0  0  0
 12 13  2  0  0  0
 12 96  1  0  0  0
 13 14  1  0  0  0
 13 31  1  0  0  0
 14 15  2  0  0  0
 14 97  1  0  0  0
 15 98  1  0  0  0
 16 17  2  0  0  0
 16 21  1  0  0  0
 16 31  1  0  0  0
 17 18  1  0  0  0
 17 99  1  0  0  0
 18 19  2  0  0  0
 18100  1  0  0  0
 19 20  1  0  0  0
 19 24  1  0  0  0
 20 21  2  0  0  0
 20101  1  0  0  0
 21 23  1  0  0  0
 22 28  1  0  0  0
 22 32  2  0  0  0
 26 27  1  0  0  0
 28102  1  0  0  0
 28103  1  0  0  0
 29104  1  0  0  0
 29105  1  0  0  0
 33 34  1  0  0  0
 33 66  1  0  0  0
 33 70  2  0  0  0
 34 36  1  0  0  0
 34 59  1  0  0  0
 34106  1  0  0  0
 35 44  2  0  0  0
 35 45  1  0  0  0
 35 68  1  0  0  0
 36 56  1  0  0  0
 36107  1  0  0  0
 37 39  1  0  0  0
 37 47  1  0  0  0
 37 66  1  0  0  0
 37108  1  0  0  0
 38 43  2  0  0  0
 38 46  1  0  0  0
 38 47  1  0  0  0
 39 64  1  0  0  0
 39 67  2  0  0  0
 40 52  1  0  0  0
 40 53  2  0  0  0
 40 58  1  0  0  0
 41109  1  0  0  0
 41110  1  0  0  0
 41111  1  0  0  0
 41 48  1  0  0  0
 42 43  1  0  0  0
 42 66  1  0  0  0
 42112  1  0  0  0
 42113  1  0  0  0
 43 44  1  0  0  0
 44114  1  0  0  0
 45 46  2  0  0  0
 45115  1  0  0  0
 46116  1  0  0  0
 47117  1  0  0  0
 47118  1  0  0  0
 48 56  1  0  0  0
 48 65  1  0  0  0
 48119  1  0  0  0
 49 50  1  0  0  0
 49 53  1  0  0  0
 49 64  1  0  0  0
 49120  1  0  0  0
 50 51  1  0  0  0
 50121  1  0  0  0
 50122  1  0  0  0
 51 52  1  0  0  0
 51123  1  0  0  0
 51124  1  0  0  0
 52125  1  0  0  0
 52126  1  0  0  0
 53 54  1  0  0  0
 54 55  2  0  0  0
 54127  1  0  0  0
 55 57  1  0  0  0
 55128  1  0  0  0
 56 69  2  0  0  0
 57 58  2  0  0  0
 57129  1  0  0  0
 58130  1  0  0  0
 59 60  1  0  0  0
 59 61  1  0  0  0
 59 62  1  0  0  0
 60131  1  0  0  0
 60132  1  0  0  0
 60133  1  0  0  0
 61134  1  0  0  0
 61135  1  0  0  0
 61136  1  0  0  0
 62137  1  0  0  0
 62138  1  0  0  0
 62139  1  0  0  0
 63 65  1  0  0  0
 63140  1  0  0  0
 63141  1  0  0  0
 63142  1  0  0  0
 64143  1  0  0  0
 65144  1  0  0  0
 68 82  1  0  0  0
 71 72  2  0  0  0
 71 73  1  0  0  0
 71145  1  0  0  0
 72 74  1  0  0  0
 72 77  1  0  0  0
 73 78  1  0  0  0
 73 83  2  0  0  0
 74 79  1  0  0  0
 74 84  2  0  0  0
 75 79  1  0  0  0
 75146  1  0  0  0
 75147  1  0  0  0
 75148  1  0  0  0
 76 85  1  0  0  0
 76149  1  0  0  0
 76150  1  0  0  0
 76151  1  0  0  0
 77 82  1  0  0  0
 77152  1  0  0  0
 77153  1  0  0  0
 78 80  1  0  0  0
 78154  1  0  0  0
 78155  1  0  0  0
 79156  1  0  0  0
 79157  1  0  0  0
 80 81  1  0  0  0
 80158  1  0  0  0
 80159  1  0  0  0
 81 85  1  0  0  0
 81160  1  0  0  0
 81161  1  0  0  0
 82162  1  0  0  0
 82163  1  0  0  0
 83 84  1  0  0  0
M  ISO  4   1 100  68 101  82 101  85 100
M  END
> <chiral flag>
0

> <version>
0

> <s_m_source_file>
/data/baiqing/PycharmProjects/Reinvent-master-3.2/result/LINK_invent/BTK/process_docking_weight1_custom_sum_contain_oxygen_bond_distance_aromatic_linkinvent_7_9_3/rearranged_h_0075.sdf

> <i_m_source_file_index>
95

> <r_mmod_Potential_Energy-OPLS-2005>
127.109558105469

> <r_mmod_Stretch_Energy-OPLS-2005>
43.0011825561523

> <r_mmod_Bend_Energy-OPLS-2005>
108.096290588379

> <r_mmod_Torsional_Energy-OPLS-2005>
291.129302978516

> <r_mmod_Improper_Torsional_Energy-OPLS-2005>
10.1536588668823

> <r_mmod_Van_der_Waal_Energy-OPLS-2005>
158.83479309082

> <r_mmod_Electrostatic_Energy-OPLS-2005>
-283.370452880859

> <r_mmod_Solvation_Energy-OPLS-2005>
-212.764068603516

> <b_mmod_Minimization_Converged-OPLS-2005>
0

> <r_mmod_RMS_Derivative-OPLS-2005>
4.3610897064209

$$$$
96
                    3D
 Structure written by MMmdl.
154162  0  0  1  0            999 V2000
  -30.6021  -14.6374   20.5126 C   0  0  0  0  0  0
  -30.4410  -12.3825   19.4724 C   0  0  0  0  0  0
  -29.5131  -12.4890   18.2408 C   0  0  0  0  0  0
  -28.0343  -12.3325   18.6467 C   0  0  0  0  0  0
  -27.6542  -13.2093   19.8689 C   0  0  2  0  0  0
  -28.6918  -13.0559   21.0044 C   0  0  0  0  0  0
  -25.2574  -13.8189   20.5702 C   0  0  0  0  0  0
  -24.1827  -13.0445   20.9198 C   0  0  0  0  0  0
  -24.6383  -11.6913   20.8741 C   0  0  0  0  0  0
  -23.9067  -10.4288   21.0389 C   0  0  0  0  0  0
  -24.3626   -9.4208   21.9170 C   0  0  0  0  0  0
  -23.6300   -8.2244   22.0751 C   0  0  0  0  0  0
  -22.4276   -8.0279   21.3546 C   0  0  0  0  0  0
  -21.9919   -9.0256   20.4653 C   0  0  0  0  0  0
  -22.7238  -10.2137   20.3049 C   0  0  0  0  0  0
  -21.6873   -6.0731   22.5273 C   0  0  0  0  0  0
  -21.4017   -6.5644   23.8200 C   0  0  0  0  0  0
  -21.3647   -5.6800   24.9173 C   0  0  0  0  0  0
  -21.6047   -4.3061   24.7229 C   0  0  0  0  0  0
  -21.8821   -3.8151   23.4343 C   0  0  0  0  0  0
  -21.9189   -4.6963   22.3393 C   0  0  0  0  0  0
  -22.7862  -13.5231   21.1856 C   0  0  0  0  0  0
  -22.1661   -4.2149   21.0970 F   0  0  0  0  0  0
  -21.5610   -3.4540   25.7738 F   0  0  0  0  0  0
  -30.0121  -13.4009   20.4527 N   0  0  0  0  0  0
  -26.2972  -12.9339   20.3329 N   0  0  0  0  0  0
  -25.9297  -11.6500   20.5751 N   0  0  0  0  0  0
  -22.0533  -12.8203   22.0443 N   0  0  0  0  0  0
  -25.4348  -15.1909   20.4109 N   0  0  0  0  0  0
  -31.7486  -14.8198   20.0870 O   0  0  0  0  0  0
  -21.6643   -6.8877   21.4240 O   0  0  0  0  0  0
  -22.3536  -14.5520   20.6701 O   0  0  0  0  0  0
  -24.6242  -31.8637   23.2030 C   0  0  0  0  0  0
  -25.9092  -32.4787   23.8370 C   0  0  1  0  0  0
  -27.2142  -27.3358   20.1302 C   0  0  0  0  0  0
  -25.5898  -33.8583   24.2312 N   0  0  0  0  0  0
  -23.4159  -30.4863   21.5445 C   0  0  2  0  0  0
  -24.8594  -28.9378   20.1135 C   0  0  0  0  0  0
  -22.7477  -29.4656   22.4948 C   0  0  0  0  0  0
  -18.0307  -28.1390   22.8453 C   0  0  0  0  0  0
  -24.1492  -36.7295   23.2647 C   0  0  0  0  0  0
  -25.9529  -30.8048   21.3632 C   0  0  0  0  0  0
  -26.0270  -29.4307   20.7101 C   0  0  0  0  0  0
  -27.2128  -28.6424   20.6998 C   0  0  0  0  0  0
  -26.0319  -26.8849   19.5110 C   0  0  0  0  0  0
  -24.8642  -27.6734   19.4990 C   0  0  0  0  0  0
  -23.6256  -29.8157   20.1613 C   0  0  0  0  0  0
  -25.4106  -36.3090   24.0356 C   0  0  1  0  0  0
  -20.5918  -28.3676   23.1291 C   0  0  2  0  0  0
  -20.6786  -26.9364   22.5496 C   0  0  0  0  0  0
  -19.5828  -26.6391   21.5199 C   0  0  0  0  0  0
  -18.1962  -26.7975   22.1520 C   0  0  0  0  0  0
  -19.1562  -28.8829   23.2891 C   0  0  0  0  0  0
  -18.9486  -30.1423   23.8907 C   0  0  0  0  0  0
  -17.6494  -30.6575   24.0577 C   0  0  0  0  0  0
  -25.9038  -34.9454   23.5144 C   0  0  0  0  0  0
  -16.5367  -29.9094   23.6351 C   0  0  0  0  0  0
  -16.7279  -28.6505   23.0354 C   0  0  0  0  0  0
  -26.4477  -31.6559   25.0715 C   0  0  0  0  0  0
  -25.3725  -31.3666   26.1449 C   0  0  0  0  0  0
  -27.0303  -30.2996   24.6113 C   0  0  0  0  0  0
  -27.6068  -32.4270   25.7460 C   0  0  0  0  0  0
  -27.5580  -37.1800   24.8470 C   0  0  0  0  0  0
  -21.4193  -29.3003   22.3635 N   0  0  0  0  0  0
  -26.4295  -37.3773   23.9413 N   0  0  0  0  0  0
  -24.6840  -31.0674   22.0955 N   0  0  0  0  0  0
  -23.4224  -28.8251   23.3044 O   0  0  0  0  0  0
  -28.3313  -26.5027   20.1456 O   0  0  0  0  0  0
  -26.5616  -34.8916   22.4713 O   0  0  0  0  0  0
  -23.5411  -32.1398   23.7381 O   0  0  0  0  0  0
  -30.1750  -19.0300   19.4335 C   0  0  0  0  0  0
  -28.7307  -17.8344   21.3417 C   0  0  0  0  0  0
  -29.1537  -19.7720   20.0973 C   0  0  0  0  0  0
  -29.7226  -17.0681   20.6554 C   0  0  0  0  0  0
  -27.2542  -20.9409   18.9142 C   0  0  0  0  0  0
  -28.4100  -23.8768   19.8081 C   0  0  0  0  0  0
  -28.6459  -22.4474   20.4958 C   0  0  0  0  0  0
  -28.1774  -25.1546   20.7261 C   0  0  0  0  0  0
  -28.6428  -21.1596   19.5531 C   0  0  1  0  0  0
  -28.4493  -19.1514   21.0823 N   0  0  0  0  0  0
  -30.4570  -17.7143   19.7042 N   0  0  0  0  0  0
  -29.8043  -15.6476   20.9753 N   0  0  0  0  0  0
  -31.4823  -12.5161   19.1729 H   0  0  0  0  0  0
  -30.3906  -11.3856   19.9120 H   0  0  0  0  0  0
  -29.7764  -11.7260   17.5072 H   0  0  0  0  0  0
  -29.6611  -13.4498   17.7460 H   0  0  0  0  0  0
  -27.8739  -11.2821   18.8934 H   0  0  0  0  0  0
  -27.3805  -12.5496   17.7998 H   0  0  0  0  0  0
  -27.6757  -14.2441   19.5246 H   0  0  0  0  0  0
  -28.7010  -12.0320   21.3799 H   0  0  0  0  0  0
  -28.4274  -13.6766   21.8627 H   0  0  0  0  0  0
  -25.2776   -9.5684   22.4751 H   0  0  0  0  0  0
  -24.0006   -7.4636   22.7475 H   0  0  0  0  0  0
  -21.0847   -8.8764   19.8975 H   0  0  0  0  0  0
  -22.3672  -10.9678   19.6162 H   0  0  0  0  0  0
  -21.2023   -7.6154   23.9701 H   0  0  0  0  0  0
  -21.1470   -6.0534   25.9072 H   0  0  0  0  0  0
  -22.0615   -2.7619   23.2827 H   0  0  0  0  0  0
  -22.4164  -11.9818   22.4747 H   0  0  0  0  0  0
  -21.1160  -13.1227   22.2700 H   0  0  0  0  0  0
  -24.6769  -15.8549   20.5248 H   0  0  0  0  0  0
  -26.2789  -15.6203   20.0551 H   0  0  0  0  0  0
  -26.7151  -32.5485   23.1116 H   0  0  0  0  0  0
  -24.9975  -33.9731   25.0410 H   0  0  0  0  0  0
  -22.7085  -31.3045   21.4052 H   0  0  0  0  0  0
  -23.3763  -35.9623   23.3317 H   0  0  0  0  0  0
  -24.3579  -36.8920   22.2064 H   0  0  0  0  0  0
  -23.7242  -37.6512   23.6632 H   0  0  0  0  0  0
  -26.0736  -31.5700   20.5968 H   0  0  0  0  0  0
  -26.8426  -30.8604   21.9804 H   0  0  0  0  0  0
  -28.1138  -29.0253   21.1586 H   0  0  0  0  0  0
  -26.0085  -25.9098   19.0417 H   0  0  0  0  0  0
  -23.9724  -27.2983   19.0193 H   0  0  0  0  0  0
  -23.7321  -30.5901   19.4001 H   0  0  0  0  0  0
  -22.7491  -29.2352   19.8666 H   0  0  0  0  0  0
  -25.1282  -36.1957   25.0851 H   0  0  0  0  0  0
  -21.0039  -28.3316   24.1414 H   0  0  0  0  0  0
  -20.5472  -26.2312   23.3721 H   0  0  0  0  0  0
  -21.6694  -26.7248   22.1455 H   0  0  0  0  0  0
  -19.6941  -25.6304   21.1237 H   0  0  0  0  0  0
  -19.6899  -27.3175   20.6717 H   0  0  0  0  0  0
  -17.4337  -26.6819   21.3803 H   0  0  0  0  0  0
  -18.0209  -26.0064   22.8842 H   0  0  0  0  0  0
  -19.7985  -30.7222   24.2276 H   0  0  0  0  0  0
  -17.5116  -31.6259   24.5178 H   0  0  0  0  0  0
  -15.5384  -30.3029   23.7707 H   0  0  0  0  0  0
  -15.8685  -28.0808   22.7078 H   0  0  0  0  0  0
  -24.5928  -30.6973   25.7781 H   0  0  0  0  0  0
  -24.8853  -32.2810   26.4841 H   0  0  0  0  0  0
  -25.8081  -30.8872   27.0231 H   0  0  0  0  0  0
  -26.2846  -29.6762   24.1173 H   0  0  0  0  0  0
  -27.4080  -29.7219   25.4567 H   0  0  0  0  0  0
  -27.8675  -30.4337   23.9265 H   0  0  0  0  0  0
  -27.2722  -33.3599   26.2004 H   0  0  0  0  0  0
  -28.3863  -32.6801   25.0254 H   0  0  0  0  0  0
  -28.0722  -31.8393   26.5384 H   0  0  0  0  0  0
  -28.2619  -38.0077   24.7493 H   0  0  0  0  0  0
  -28.1062  -36.2619   24.6311 H   0  0  0  0  0  0
  -27.2292  -37.1472   25.8873 H   0  0  0  0  0  0
  -20.9394  -29.8593   21.6734 H   0  0  0  0  0  0
  -26.0200  -38.2877   24.1355 H   0  0  0  0  0  0
  -30.7290  -19.4708   18.6154 H   0  0  0  0  0  0
  -28.1155  -17.3690   22.0986 H   0  0  0  0  0  0
  -27.2611  -20.0789   18.2457 H   0  0  0  0  0  0
  -26.9289  -21.7931   18.3195 H   0  0  0  0  0  0
  -26.4971  -20.7524   19.6780 H   0  0  0  0  0  0
  -27.5458  -23.8152   19.1467 H   0  0  0  0  0  0
  -29.2595  -24.0770   19.1563 H   0  0  0  0  0  0
  -27.9057  -22.3036   21.2852 H   0  0  0  0  0  0
  -29.6073  -22.4831   21.0074 H   0  0  0  0  0  0
  -28.8880  -25.1104   21.5517 H   0  0  0  0  0  0
  -27.2000  -25.0670   21.2036 H   0  0  0  0  0  0
  -29.3190  -21.4014   18.7309 H   0  0  0  0  0  0
  -29.0001  -15.3027   21.4761 H   0  0  0  0  0  0
  1 25  1  0  0  0
  1 30  2  0  0  0
  1 82  1  0  0  0
  2  3  1  0  0  0
  2 25  1  0  0  0
  2 83  1  0  0  0
  2 84  1  0  0  0
  3  4  1  0  0  0
  3 85  1  0  0  0
  3 86  1  0  0  0
  4  5  1  0  0  0
  4 87  1  0  0  0
  4 88  1  0  0  0
  5  6  1  0  0  0
  5 26  1  0  0  0
  5 89  1  0  0  0
  6 25  1  0  0  0
  6 90  1  0  0  0
  6 91  1  0  0  0
  7  8  2  0  0  0
  7 26  1  0  0  0
  7 29  1  0  0  0
  8  9  1  0  0  0
  8 22  1  0  0  0
  9 10  1  0  0  0
  9 27  2  0  0  0
 10 11  2  0  0  0
 10 15  1  0  0  0
 11 12  1  0  0  0
 11 92  1  0  0  0
 12 13  2  0  0  0
 12 93  1  0  0  0
 13 14  1  0  0  0
 13 31  1  0  0  0
 14 15  2  0  0  0
 14 94  1  0  0  0
 15 95  1  0  0  0
 16 17  2  0  0  0
 16 21  1  0  0  0
 16 31  1  0  0  0
 17 18  1  0  0  0
 17 96  1  0  0  0
 18 19  2  0  0  0
 18 97  1  0  0  0
 19 20  1  0  0  0
 19 24  1  0  0  0
 20 21  2  0  0  0
 20 98  1  0  0  0
 21 23  1  0  0  0
 22 28  1  0  0  0
 22 32  2  0  0  0
 26 27  1  0  0  0
 28 99  1  0  0  0
 28100  1  0  0  0
 29101  1  0  0  0
 29102  1  0  0  0
 33 34  1  0  0  0
 33 66  1  0  0  0
 33 70  2  0  0  0
 34 36  1  0  0  0
 34 59  1  0  0  0
 34103  1  0  0  0
 35 44  2  0  0  0
 35 45  1  0  0  0
 35 68  1  0  0  0
 36 56  1  0  0  0
 36104  1  0  0  0
 37 39  1  0  0  0
 37 47  1  0  0  0
 37 66  1  0  0  0
 37105  1  0  0  0
 38 43  2  0  0  0
 38 46  1  0  0  0
 38 47  1  0  0  0
 39 64  1  0  0  0
 39 67  2  0  0  0
 40 52  1  0  0  0
 40 53  2  0  0  0
 40 58  1  0  0  0
 41106  1  0  0  0
 41107  1  0  0  0
 41108  1  0  0  0
 41 48  1  0  0  0
 42 43  1  0  0  0
 42 66  1  0  0  0
 42109  1  0  0  0
 42110  1  0  0  0
 43 44  1  0  0  0
 44111  1  0  0  0
 45 46  2  0  0  0
 45112  1  0  0  0
 46113  1  0  0  0
 47114  1  0  0  0
 47115  1  0  0  0
 48 56  1  0  0  0
 48 65  1  0  0  0
 48116  1  0  0  0
 49 50  1  0  0  0
 49 53  1  0  0  0
 49 64  1  0  0  0
 49117  1  0  0  0
 50 51  1  0  0  0
 50118  1  0  0  0
 50119  1  0  0  0
 51 52  1  0  0  0
 51120  1  0  0  0
 51121  1  0  0  0
 52122  1  0  0  0
 52123  1  0  0  0
 53 54  1  0  0  0
 54 55  2  0  0  0
 54124  1  0  0  0
 55 57  1  0  0  0
 55125  1  0  0  0
 56 69  2  0  0  0
 57 58  2  0  0  0
 57126  1  0  0  0
 58127  1  0  0  0
 59 60  1  0  0  0
 59 61  1  0  0  0
 59 62  1  0  0  0
 60128  1  0  0  0
 60129  1  0  0  0
 60130  1  0  0  0
 61131  1  0  0  0
 61132  1  0  0  0
 61133  1  0  0  0
 62134  1  0  0  0
 62135  1  0  0  0
 62136  1  0  0  0
 63 65  1  0  0  0
 63137  1  0  0  0
 63138  1  0  0  0
 63139  1  0  0  0
 64140  1  0  0  0
 65141  1  0  0  0
 68 78  1  0  0  0
 71 73  2  0  0  0
 71 81  1  0  0  0
 71142  1  0  0  0
 72 74  1  0  0  0
 72 80  2  0  0  0
 72143  1  0  0  0
 73 79  1  0  0  0
 73 80  1  0  0  0
 74 81  2  0  0  0
 74 82  1  0  0  0
 75144  1  0  0  0
 75145  1  0  0  0
 75146  1  0  0  0
 75 79  1  0  0  0
 76 77  1  0  0  0
 76 78  1  0  0  0
 76147  1  0  0  0
 76148  1  0  0  0
 77 79  1  0  0  0
 77149  1  0  0  0
 77150  1  0  0  0
 78151  1  0  0  0
 78152  1  0  0  0
 79153  1  0  0  0
 82154  1  0  0  0
M  ISO  4   1 100  68 101  78 101  82 100
M  END
> <chiral flag>
0

> <version>
0

> <s_m_source_file>
/data/baiqing/PycharmProjects/Reinvent-master-3.2/result/LINK_invent/BTK/process_docking_weight1_custom_sum_contain_oxygen_bond_distance_aromatic_linkinvent_7_9_3/rearranged_h_0075.sdf

> <i_m_source_file_index>
96

> <r_mmod_Potential_Energy-OPLS-2005>
76.8961029052734

> <r_mmod_Stretch_Energy-OPLS-2005>
79.0319976806641

> <r_mmod_Bend_Energy-OPLS-2005>
134.035415649414

> <r_mmod_Torsional_Energy-OPLS-2005>
220.842926025391

> <r_mmod_Improper_Torsional_Energy-OPLS-2005>
4.98598718643188

> <r_mmod_Van_der_Waal_Energy-OPLS-2005>
141.031387329102

> <r_mmod_Electrostatic_Energy-OPLS-2005>
-320.312561035156

> <r_mmod_Solvation_Energy-OPLS-2005>
-227.494232177734

> <b_mmod_Minimization_Converged-OPLS-2005>
0

> <r_mmod_RMS_Derivative-OPLS-2005>
4.03391361236572

$$$$
97
                    3D
 Structure written by MMmdl.
160168  0  0  1  0            999 V2000
  -30.6503  -14.7119   20.5389 C   0  0  0  0  0  0
  -30.4356  -12.4550   19.4687 C   0  0  0  0  0  0
  -29.5081  -12.5325   18.2347 C   0  0  0  0  0  0
  -28.0328  -12.3550   18.6409 C   0  0  0  0  0  0
  -27.6490  -13.2211   19.8699 C   0  0  2  0  0  0
  -28.6949  -13.0961   20.9972 C   0  0  0  0  0  0
  -25.2543  -13.8164   20.5680 C   0  0  0  0  0  0
  -24.1816  -13.0413   20.9189 C   0  0  0  0  0  0
  -24.6408  -11.6893   20.8754 C   0  0  0  0  0  0
  -23.9079  -10.4274   21.0408 C   0  0  0  0  0  0
  -24.3648   -9.4194   21.9187 C   0  0  0  0  0  0
  -23.6323   -8.2231   22.0751 C   0  0  0  0  0  0
  -22.4303   -8.0277   21.3547 C   0  0  0  0  0  0
  -21.9931   -9.0244   20.4642 C   0  0  0  0  0  0
  -22.7248  -10.2125   20.3050 C   0  0  0  0  0  0
  -21.6870   -6.0733   22.5286 C   0  0  0  0  0  0
  -21.4015   -6.5631   23.8217 C   0  0  0  0  0  0
  -21.3654   -5.6792   24.9183 C   0  0  0  0  0  0
  -21.6054   -4.3053   24.7248 C   0  0  0  0  0  0
  -21.8817   -3.8146   23.4365 C   0  0  0  0  0  0
  -21.9196   -4.6961   22.3415 C   0  0  0  0  0  0
  -22.7834  -13.5195   21.1855 C   0  0  0  0  0  0
  -22.1647   -4.2146   21.0993 F   0  0  0  0  0  0
  -21.5654   -3.4527   25.7750 F   0  0  0  0  0  0
  -30.0007  -13.4915   20.4399 N   0  0  0  0  0  0
  -26.2983  -12.9350   20.3371 N   0  0  0  0  0  0
  -25.9346  -11.6498   20.5797 N   0  0  0  0  0  0
  -22.0491  -12.8179   22.0426 N   0  0  0  0  0  0
  -25.4211  -15.1885   20.4053 N   0  0  0  0  0  0
  -31.7798  -14.8283   20.0542 O   0  0  0  0  0  0
  -21.6668   -6.8878   21.4248 O   0  0  0  0  0  0
  -22.3498  -14.5486   20.6704 O   0  0  0  0  0  0
  -24.6310  -31.8547   23.1989 C   0  0  0  0  0  0
  -25.9138  -32.4747   23.8339 C   0  0  1  0  0  0
  -27.2214  -27.2730   20.1250 C   0  0  0  0  0  0
  -25.5936  -33.8551   24.2258 N   0  0  0  0  0  0
  -23.4272  -30.4785   21.5404 C   0  0  2  0  0  0
  -24.8753  -28.9283   20.1106 C   0  0  0  0  0  0
  -22.7493  -29.4605   22.4899 C   0  0  0  0  0  0
  -18.0287  -28.1381   22.8479 C   0  0  0  0  0  0
  -24.1495  -36.7285   23.2635 C   0  0  0  0  0  0
  -25.9734  -30.7700   21.3821 C   0  0  0  0  0  0
  -26.0457  -29.3953   20.7211 C   0  0  0  0  0  0
  -27.2205  -28.5792   20.7190 C   0  0  0  0  0  0
  -26.0308  -26.8797   19.4717 C   0  0  0  0  0  0
  -24.8713  -27.6767   19.4778 C   0  0  0  0  0  0
  -23.6467  -29.8132   20.1567 C   0  0  0  0  0  0
  -25.4119  -36.3066   24.0320 C   0  0  1  0  0  0
  -20.5888  -28.3696   23.1253 C   0  0  2  0  0  0
  -20.6770  -26.9415   22.5397 C   0  0  0  0  0  0
  -19.5753  -26.6380   21.5194 C   0  0  0  0  0  0
  -18.1929  -26.7926   22.1605 C   0  0  0  0  0  0
  -19.1537  -28.8850   23.2861 C   0  0  0  0  0  0
  -18.9464  -30.1448   23.8901 C   0  0  0  0  0  0
  -17.6464  -30.6582   24.0561 C   0  0  0  0  0  0
  -25.9060  -34.9439   23.5083 C   0  0  0  0  0  0
  -16.5358  -29.9088   23.6328 C   0  0  0  0  0  0
  -16.7272  -28.6495   23.0365 C   0  0  0  0  0  0
  -26.4508  -31.6584   25.0737 C   0  0  0  0  0  0
  -25.3721  -31.3754   26.1441 C   0  0  0  0  0  0
  -27.0365  -30.2992   24.6264 C   0  0  0  0  0  0
  -27.6047  -32.4344   25.7522 C   0  0  0  0  0  0
  -27.5588  -37.1791   24.8450 C   0  0  0  0  0  0
  -21.4195  -29.3051   22.3647 N   0  0  0  0  0  0
  -26.4288  -37.3768   23.9413 N   0  0  0  0  0  0
  -24.6956  -31.0536   22.0960 N   0  0  0  0  0  0
  -23.4193  -28.8149   23.2999 O   0  0  0  0  0  0
  -28.3184  -26.3847   20.2053 O   0  0  0  0  0  0
  -26.5631  -34.8911   22.4659 O   0  0  0  0  0  0
  -23.5465  -32.1361   23.7291 O   0  0  0  0  0  0
  -31.0759  -18.8097   21.7308 C   0  0  0  0  0  0
  -30.0831  -18.6095   20.7481 C   0  0  0  0  0  0
  -30.7765  -21.1278   21.6814 C   0  0  0  0  0  0
  -29.7615  -21.0218   20.6807 C   0  0  0  0  0  0
  -31.2937  -22.4366   22.2499 C   0  0  0  0  0  0
  -28.5034  -17.1250   19.3633 C   0  0  0  0  0  0
  -29.4632  -15.9531   22.3107 C   0  0  0  0  0  0
  -29.0092  -22.2666   20.0088 C   0  0  0  0  0  0
  -29.0752  -23.7954   20.5522 C   0  0  0  0  0  0
  -28.1241  -24.9254   19.9129 C   0  0  0  0  0  0
  -29.8465  -17.1587   20.1166 C   0  0  2  0  0  0
  -31.4060  -20.0384   22.1919 N   0  0  0  0  0  0
  -29.4503  -19.7407   20.2271 N   0  0  0  0  0  0
  -29.9429  -15.8518   20.9257 N   0  0  0  0  0  0
  -31.4733  -12.5810   19.1547 H   0  0  0  0  0  0
  -30.3898  -11.4635   19.9233 H   0  0  0  0  0  0
  -29.7899  -11.7730   17.5034 H   0  0  0  0  0  0
  -29.6381  -13.4973   17.7419 H   0  0  0  0  0  0
  -27.8705  -11.2992   18.8645 H   0  0  0  0  0  0
  -27.3812  -12.5883   17.7990 H   0  0  0  0  0  0
  -27.6571  -14.2559   19.5395 H   0  0  0  0  0  0
  -28.7372  -12.0665   21.3578 H   0  0  0  0  0  0
  -28.3953  -13.6860   21.8590 H   0  0  0  0  0  0
  -25.2795   -9.5676   22.4764 H   0  0  0  0  0  0
  -24.0037   -7.4612   22.7458 H   0  0  0  0  0  0
  -21.0869   -8.8743   19.8956 H   0  0  0  0  0  0
  -22.3680  -10.9672   19.6162 H   0  0  0  0  0  0
  -21.1976   -7.6140   23.9709 H   0  0  0  0  0  0
  -21.1495   -6.0532   25.9086 H   0  0  0  0  0  0
  -22.0609   -2.7608   23.2878 H   0  0  0  0  0  0
  -22.4129  -11.9853   22.4840 H   0  0  0  0  0  0
  -21.1095  -13.1184   22.2608 H   0  0  0  0  0  0
  -24.6576  -15.8454   20.5269 H   0  0  0  0  0  0
  -26.2785  -15.6269   20.0975 H   0  0  0  0  0  0
  -26.7213  -32.5403   23.1091 H   0  0  0  0  0  0
  -25.0089  -33.9698   25.0404 H   0  0  0  0  0  0
  -22.7239  -31.2990   21.3916 H   0  0  0  0  0  0
  -23.3764  -35.9603   23.3262 H   0  0  0  0  0  0
  -24.3593  -36.8951   22.2055 H   0  0  0  0  0  0
  -23.7227  -37.6466   23.6690 H   0  0  0  0  0  0
  -26.1204  -31.5355   20.6185 H   0  0  0  0  0  0
  -26.8471  -30.8113   22.0195 H   0  0  0  0  0  0
  -28.1147  -28.9285   21.2167 H   0  0  0  0  0  0
  -25.9615  -25.9322   18.9599 H   0  0  0  0  0  0
  -23.9771  -27.3142   18.9905 H   0  0  0  0  0  0
  -23.7752  -30.5883   19.4000 H   0  0  0  0  0  0
  -22.7673  -29.2450   19.8501 H   0  0  0  0  0  0
  -25.1301  -36.1903   25.0805 H   0  0  0  0  0  0
  -20.9973  -28.3277   24.1370 H   0  0  0  0  0  0
  -20.5636  -26.2319   23.3603 H   0  0  0  0  0  0
  -21.6643  -26.7419   22.1211 H   0  0  0  0  0  0
  -19.6922  -25.6280   21.1243 H   0  0  0  0  0  0
  -19.6704  -27.3171   20.6706 H   0  0  0  0  0  0
  -17.4197  -26.6663   21.4013 H   0  0  0  0  0  0
  -18.0352  -26.0061   22.8996 H   0  0  0  0  0  0
  -19.7940  -30.7251   24.2291 H   0  0  0  0  0  0
  -17.5024  -31.6265   24.5153 H   0  0  0  0  0  0
  -15.5360  -30.3001   23.7640 H   0  0  0  0  0  0
  -15.8667  -28.0808   22.7115 H   0  0  0  0  0  0
  -24.5875  -30.7131   25.7764 H   0  0  0  0  0  0
  -24.8937  -32.2937   26.4867 H   0  0  0  0  0  0
  -25.8012  -30.8917   27.0222 H   0  0  0  0  0  0
  -26.2968  -29.6727   24.1255 H   0  0  0  0  0  0
  -27.3986  -29.7278   25.4826 H   0  0  0  0  0  0
  -27.8881  -30.4258   23.9566 H   0  0  0  0  0  0
  -27.2625  -33.3632   26.2107 H   0  0  0  0  0  0
  -28.3858  -32.6925   25.0357 H   0  0  0  0  0  0
  -28.0713  -31.8464   26.5438 H   0  0  0  0  0  0
  -28.2555  -38.0138   24.7552 H   0  0  0  0  0  0
  -28.1137  -36.2667   24.6204 H   0  0  0  0  0  0
  -27.2318  -37.1347   25.8853 H   0  0  0  0  0  0
  -20.9375  -29.8802   21.6877 H   0  0  0  0  0  0
  -26.0163  -38.2830   24.1440 H   0  0  0  0  0  0
  -31.6450  -17.9827   22.1311 H   0  0  0  0  0  0
  -31.7591  -23.0444   21.4745 H   0  0  0  0  0  0
  -32.0530  -22.2601   23.0127 H   0  0  0  0  0  0
  -30.4996  -23.0015   22.7325 H   0  0  0  0  0  0
  -28.4319  -17.9325   18.6343 H   0  0  0  0  0  0
  -27.6693  -17.2334   20.0576 H   0  0  0  0  0  0
  -28.3780  -16.1995   18.8056 H   0  0  0  0  0  0
  -29.8637  -16.8144   22.8385 H   0  0  0  0  0  0
  -29.7464  -15.0912   22.9190 H   0  0  0  0  0  0
  -28.3782  -16.0411   22.3310 H   0  0  0  0  0  0
  -27.9585  -21.9851   19.9506 H   0  0  0  0  0  0
  -29.3404  -22.2905   18.9694 H   0  0  0  0  0  0
  -30.0989  -24.1535   20.4651 H   0  0  0  0  0  0
  -28.8308  -23.7778   21.6125 H   0  0  0  0  0  0
  -27.1189  -24.6317   20.2178 H   0  0  0  0  0  0
  -28.1525  -24.8187   18.8282 H   0  0  0  0  0  0
  -30.6255  -17.0908   19.3545 H   0  0  0  0  0  0
  1 25  1  0  0  0
  1 30  2  0  0  0
  1 84  1  0  0  0
  2  3  1  0  0  0
  2 25  1  0  0  0
  2 85  1  0  0  0
  2 86  1  0  0  0
  3  4  1  0  0  0
  3 87  1  0  0  0
  3 88  1  0  0  0
  4  5  1  0  0  0
  4 89  1  0  0  0
  4 90  1  0  0  0
  5  6  1  0  0  0
  5 26  1  0  0  0
  5 91  1  0  0  0
  6 25  1  0  0  0
  6 92  1  0  0  0
  6 93  1  0  0  0
  7  8  2  0  0  0
  7 26  1  0  0  0
  7 29  1  0  0  0
  8  9  1  0  0  0
  8 22  1  0  0  0
  9 10  1  0  0  0
  9 27  2  0  0  0
 10 11  2  0  0  0
 10 15  1  0  0  0
 11 12  1  0  0  0
 11 94  1  0  0  0
 12 13  2  0  0  0
 12 95  1  0  0  0
 13 14  1  0  0  0
 13 31  1  0  0  0
 14 15  2  0  0  0
 14 96  1  0  0  0
 15 97  1  0  0  0
 16 17  2  0  0  0
 16 21  1  0  0  0
 16 31  1  0  0  0
 17 18  1  0  0  0
 17 98  1  0  0  0
 18 19  2  0  0  0
 18 99  1  0  0  0
 19 20  1  0  0  0
 19 24  1  0  0  0
 20 21  2  0  0  0
 20100  1  0  0  0
 21 23  1  0  0  0
 22 28  1  0  0  0
 22 32  2  0  0  0
 26 27  1  0  0  0
 28101  1  0  0  0
 28102  1  0  0  0
 29103  1  0  0  0
 29104  1  0  0  0
 33 34  1  0  0  0
 33 66  1  0  0  0
 33 70  2  0  0  0
 34 36  1  0  0  0
 34 59  1  0  0  0
 34105  1  0  0  0
 35 44  2  0  0  0
 35 45  1  0  0  0
 35 68  1  0  0  0
 36 56  1  0  0  0
 36106  1  0  0  0
 37 39  1  0  0  0
 37 47  1  0  0  0
 37 66  1  0  0  0
 37107  1  0  0  0
 38 43  2  0  0  0
 38 46  1  0  0  0
 38 47  1  0  0  0
 39 64  1  0  0  0
 39 67  2  0  0  0
 40 52  1  0  0  0
 40 53  2  0  0  0
 40 58  1  0  0  0
 41108  1  0  0  0
 41109  1  0  0  0
 41110  1  0  0  0
 41 48  1  0  0  0
 42 43  1  0  0  0
 42 66  1  0  0  0
 42111  1  0  0  0
 42112  1  0  0  0
 43 44  1  0  0  0
 44113  1  0  0  0
 45 46  2  0  0  0
 45114  1  0  0  0
 46115  1  0  0  0
 47116  1  0  0  0
 47117  1  0  0  0
 48 56  1  0  0  0
 48 65  1  0  0  0
 48118  1  0  0  0
 49 50  1  0  0  0
 49 53  1  0  0  0
 49 64  1  0  0  0
 49119  1  0  0  0
 50 51  1  0  0  0
 50120  1  0  0  0
 50121  1  0  0  0
 51 52  1  0  0  0
 51122  1  0  0  0
 51123  1  0  0  0
 52124  1  0  0  0
 52125  1  0  0  0
 53 54  1  0  0  0
 54 55  2  0  0  0
 54126  1  0  0  0
 55 57  1  0  0  0
 55127  1  0  0  0
 56 69  2  0  0  0
 57 58  2  0  0  0
 57128  1  0  0  0
 58129  1  0  0  0
 59 60  1  0  0  0
 59 61  1  0  0  0
 59 62  1  0  0  0
 60130  1  0  0  0
 60131  1  0  0  0
 60132  1  0  0  0
 61133  1  0  0  0
 61134  1  0  0  0
 61135  1  0  0  0
 62136  1  0  0  0
 62137  1  0  0  0
 62138  1  0  0  0
 63 65  1  0  0  0
 63139  1  0  0  0
 63140  1  0  0  0
 63141  1  0  0  0
 64142  1  0  0  0
 65143  1  0  0  0
 68 80  1  0  0  0
 71 72  2  0  0  0
 71 82  1  0  0  0
 71144  1  0  0  0
 72 81  1  0  0  0
 72 83  1  0  0  0
 73 74  1  0  0  0
 73 75  1  0  0  0
 73 82  2  0  0  0
 74 78  1  0  0  0
 74 83  2  0  0  0
 75145  1  0  0  0
 75146  1  0  0  0
 75147  1  0  0  0
 76148  1  0  0  0
 76149  1  0  0  0
 76150  1  0  0  0
 76 81  1  0  0  0
 77 84  1  0  0  0
 77151  1  0  0  0
 77152  1  0  0  0
 77153  1  0  0  0
 78 79  1  0  0  0
 78154  1  0  0  0
 78155  1  0  0  0
 79 80  1  0  0  0
 79156  1  0  0  0
 79157  1  0  0  0
 80158  1  0  0  0
 80159  1  0  0  0
 81 84  1  0  0  0
 81160  1  0  0  0
M  ISO  4   1 100  68 101  80 101  84 100
M  END
> <chiral flag>
0

> <version>
0

> <s_m_source_file>
/data/baiqing/PycharmProjects/Reinvent-master-3.2/result/LINK_invent/BTK/process_docking_weight1_custom_sum_contain_oxygen_bond_distance_aromatic_linkinvent_7_9_3/rearranged_h_0075.sdf

> <i_m_source_file_index>
97

> <r_mmod_Potential_Energy-OPLS-2005>
326.214813232422

> <r_mmod_Stretch_Energy-OPLS-2005>
130.76383972168

> <r_mmod_Bend_Energy-OPLS-2005>
179.118286132812

> <r_mmod_Torsional_Energy-OPLS-2005>
271.817779541016

> <r_mmod_Improper_Torsional_Energy-OPLS-2005>
7.45157098770142

> <r_mmod_Van_der_Waal_Energy-OPLS-2005>
153.448135375977

> <r_mmod_Electrostatic_Energy-OPLS-2005>
-280.549163818359

> <r_mmod_Solvation_Energy-OPLS-2005>
-206.974670410156

> <b_mmod_Minimization_Converged-OPLS-2005>
0

> <r_mmod_RMS_Derivative-OPLS-2005>
2.95341634750366

$$$$
98
                    3D
 Structure written by MMmdl.
170178  0  0  1  0            999 V2000
  -30.6028  -14.8195   20.3645 C   0  0  0  0  0  0
  -30.4723  -12.5023   19.4532 C   0  0  0  0  0  0
  -29.5315  -12.4973   18.2276 C   0  0  0  0  0  0
  -28.0559  -12.3012   18.6445 C   0  0  0  0  0  0
  -27.6453  -13.1825   19.8515 C   0  0  2  0  0  0
  -28.7206  -13.1454   20.9634 C   0  0  0  0  0  0
  -25.2516  -13.7979   20.5547 C   0  0  0  0  0  0
  -24.1806  -13.0302   20.9186 C   0  0  0  0  0  0
  -24.6390  -11.6781   20.8786 C   0  0  0  0  0  0
  -23.9040  -10.4203   21.0434 C   0  0  0  0  0  0
  -24.3566   -9.4123   21.9207 C   0  0  0  0  0  0
  -23.6233   -8.2181   22.0770 C   0  0  0  0  0  0
  -22.4233   -8.0233   21.3530 C   0  0  0  0  0  0
  -21.9879   -9.0234   20.4659 C   0  0  0  0  0  0
  -22.7222  -10.2091   20.3075 C   0  0  0  0  0  0
  -21.6839   -6.0694   22.5268 C   0  0  0  0  0  0
  -21.4025   -6.5614   23.8197 C   0  0  0  0  0  0
  -21.3641   -5.6764   24.9154 C   0  0  0  0  0  0
  -21.6044   -4.3035   24.7223 C   0  0  0  0  0  0
  -21.8830   -3.8122   23.4353 C   0  0  0  0  0  0
  -21.9196   -4.6935   22.3404 C   0  0  0  0  0  0
  -22.7847  -13.5146   21.1830 C   0  0  0  0  0  0
  -22.1669   -4.2116   21.0982 F   0  0  0  0  0  0
  -21.5608   -3.4516   25.7730 F   0  0  0  0  0  0
  -30.0058  -13.5650   20.3748 N   0  0  0  0  0  0
  -26.2969  -12.9094   20.3345 N   0  0  0  0  0  0
  -25.9316  -11.6304   20.5852 N   0  0  0  0  0  0
  -22.0465  -12.8198   22.0424 N   0  0  0  0  0  0
  -25.4083  -15.1666   20.3685 N   0  0  0  0  0  0
  -31.8189  -14.8723   20.1728 O   0  0  0  0  0  0
  -21.6609   -6.8832   21.4219 O   0  0  0  0  0  0
  -22.3571  -14.5447   20.6641 O   0  0  0  0  0  0
  -24.6246  -31.8602   23.2041 C   0  0  0  0  0  0
  -25.9090  -32.4788   23.8394 C   0  0  1  0  0  0
  -27.2415  -27.3191   20.1309 C   0  0  0  0  0  0
  -25.5891  -33.8585   24.2314 N   0  0  0  0  0  0
  -23.4205  -30.4852   21.5408 C   0  0  2  0  0  0
  -24.8748  -28.9410   20.1117 C   0  0  0  0  0  0
  -22.7478  -29.4635   22.4885 C   0  0  0  0  0  0
  -18.0283  -28.1395   22.8476 C   0  0  0  0  0  0
  -24.1464  -36.7295   23.2639 C   0  0  0  0  0  0
  -25.9593  -30.7990   21.3699 C   0  0  0  0  0  0
  -26.0399  -29.4214   20.7200 C   0  0  0  0  0  0
  -27.2220  -28.6210   20.7241 C   0  0  0  0  0  0
  -26.0519  -26.8991   19.4875 C   0  0  0  0  0  0
  -24.8830  -27.6852   19.4849 C   0  0  0  0  0  0
  -23.6416  -29.8208   20.1556 C   0  0  0  0  0  0
  -25.4086  -36.3079   24.0338 C   0  0  1  0  0  0
  -20.5887  -28.3709   23.1266 C   0  0  2  0  0  0
  -20.6757  -26.9429   22.5401 C   0  0  0  0  0  0
  -19.5732  -26.6395   21.5200 C   0  0  0  0  0  0
  -18.1919  -26.7938   22.1621 C   0  0  0  0  0  0
  -19.1538  -28.8863   23.2871 C   0  0  0  0  0  0
  -18.9461  -30.1455   23.8913 C   0  0  0  0  0  0
  -17.6462  -30.6599   24.0563 C   0  0  0  0  0  0
  -25.9028  -34.9449   23.5130 C   0  0  0  0  0  0
  -16.5353  -29.9110   23.6305 C   0  0  0  0  0  0
  -16.7271  -28.6519   23.0338 C   0  0  0  0  0  0
  -26.4502  -31.6599   25.0755 C   0  0  0  0  0  0
  -25.3749  -31.3756   26.1496 C   0  0  0  0  0  0
  -27.0368  -30.3033   24.6204 C   0  0  0  0  0  0
  -27.6066  -32.4336   25.7520 C   0  0  0  0  0  0
  -27.5562  -37.1788   24.8464 C   0  0  0  0  0  0
  -21.4188  -29.3066   22.3658 N   0  0  0  0  0  0
  -26.4261  -37.3776   23.9433 N   0  0  0  0  0  0
  -24.6868  -31.0642   22.0966 N   0  0  0  0  0  0
  -23.4205  -28.8149   23.2943 O   0  0  0  0  0  0
  -28.3683  -26.4741   20.2091 O   0  0  0  0  0  0
  -26.5600  -34.8908   22.4700 O   0  0  0  0  0  0
  -23.5412  -32.1380   23.7374 O   0  0  0  0  0  0
  -30.6203  -20.7068   18.1684 C   0  0  0  0  0  0
  -31.1208  -19.7014   17.3956 C   0  0  0  0  0  0
  -30.5894  -18.8335   19.4137 C   0  0  0  0  0  0
  -31.6257  -19.7032   15.9861 C   0  0  0  0  0  0
  -29.2975  -16.2689   18.7337 C   0  0  0  0  0  0
  -28.6116  -16.3214   21.1846 C   0  0  0  0  0  0
  -29.1309  -23.9831   22.0533 C   0  0  0  0  0  0
  -30.6628  -24.3034   20.0846 C   0  0  0  0  0  0
  -30.5674  -17.6678   20.4737 C   0  0  0  0  0  0
  -28.9027  -22.4195   20.0468 C   0  0  0  0  0  0
  -29.7844  -21.1315   20.4934 C   0  0  0  0  0  0
  -28.2188  -25.0229   19.9144 C   0  0  0  0  0  0
  -29.7991  -16.2386   20.2020 C   0  0  0  0  0  0
  -29.2322  -23.9292   20.5153 C   0  0  0  0  0  0
  -30.2796  -20.1926   19.4029 N   0  0  0  0  0  0
  -31.1170  -18.5967   18.1990 N   0  3  0  0  0  0
  -30.4817  -11.5305   19.9487 H   0  0  0  0  0  0
  -31.4998  -12.6657   19.1243 H   0  0  0  0  0  0
  -29.8373  -11.7123   17.5370 H   0  0  0  0  0  0
  -29.6464  -13.4341   17.6792 H   0  0  0  0  0  0
  -27.9249  -11.2469   18.8917 H   0  0  0  0  0  0
  -27.3975  -12.5029   17.7972 H   0  0  0  0  0  0
  -27.5830  -14.1796   19.4581 H   0  0  0  0  0  0
  -28.8097  -12.1292   21.3492 H   0  0  0  0  0  0
  -28.4536  -13.7503   21.8277 H   0  0  0  0  0  0
  -25.2709   -9.5559   22.4788 H   0  0  0  0  0  0
  -23.9935   -7.4538   22.7472 H   0  0  0  0  0  0
  -21.0814   -8.8748   19.8950 H   0  0  0  0  0  0
  -22.3704  -10.9626   19.6175 H   0  0  0  0  0  0
  -21.2070   -7.6122   23.9683 H   0  0  0  0  0  0
  -21.1438   -6.0503   25.9043 H   0  0  0  0  0  0
  -22.0649   -2.7591   23.2868 H   0  0  0  0  0  0
  -22.4030  -11.9851   22.4818 H   0  0  0  0  0  0
  -21.1090  -13.1254   22.2564 H   0  0  0  0  0  0
  -24.6418  -15.8224   20.4675 H   0  0  0  0  0  0
  -26.2576  -15.5974   20.0264 H   0  0  0  0  0  0
  -26.7166  -32.5505   23.1165 H   0  0  0  0  0  0
  -25.0010  -33.9747   25.0436 H   0  0  0  0  0  0
  -22.7132  -31.3047   21.3953 H   0  0  0  0  0  0
  -23.3724  -35.9626   23.3274 H   0  0  0  0  0  0
  -24.3555  -36.8945   22.2057 H   0  0  0  0  0  0
  -23.7212  -37.6486   23.6685 H   0  0  0  0  0  0
  -26.0721  -31.5585   20.5946 H   0  0  0  0  0  0
  -26.8455  -30.8677   21.9889 H   0  0  0  0  0  0
  -28.1109  -28.9851   21.2188 H   0  0  0  0  0  0
  -25.9939  -25.9447   18.9874 H   0  0  0  0  0  0
  -23.9901  -27.3162   18.9994 H   0  0  0  0  0  0
  -23.7672  -30.5994   19.4015 H   0  0  0  0  0  0
  -22.7635  -29.2535   19.8425 H   0  0  0  0  0  0
  -25.1252  -36.1923   25.0827 H   0  0  0  0  0  0
  -20.9984  -28.3277   24.1383 H   0  0  0  0  0  0
  -20.5616  -26.2332   23.3611 H   0  0  0  0  0  0
  -21.6633  -26.7424   22.1226 H   0  0  0  0  0  0
  -19.6894  -25.6299   21.1243 H   0  0  0  0  0  0
  -19.6660  -27.3189   20.6717 H   0  0  0  0  0  0
  -17.4177  -26.6662   21.4041 H   0  0  0  0  0  0
  -18.0336  -26.0098   22.9035 H   0  0  0  0  0  0
  -19.7938  -30.7260   24.2313 H   0  0  0  0  0  0
  -17.5021  -31.6279   24.5175 H   0  0  0  0  0  0
  -15.5357  -30.3039   23.7610 H   0  0  0  0  0  0
  -15.8660  -28.0852   22.7065 H   0  0  0  0  0  0
  -24.5887  -30.7141   25.7836 H   0  0  0  0  0  0
  -24.8995  -32.2947   26.4937 H   0  0  0  0  0  0
  -25.8076  -30.8921   27.0265 H   0  0  0  0  0  0
  -26.2974  -29.6766   24.1210 H   0  0  0  0  0  0
  -27.4061  -29.7292   25.4713 H   0  0  0  0  0  0
  -27.8825  -30.4332   23.9446 H   0  0  0  0  0  0
  -27.2674  -33.3609   26.2153 H   0  0  0  0  0  0
  -28.3858  -32.6950   25.0345 H   0  0  0  0  0  0
  -28.0775  -31.8444   26.5402 H   0  0  0  0  0  0
  -28.2571  -38.0087   24.7512 H   0  0  0  0  0  0
  -28.1061  -36.2627   24.6268 H   0  0  0  0  0  0
  -27.2300  -37.1412   25.8868 H   0  0  0  0  0  0
  -20.9351  -29.8853   21.6933 H   0  0  0  0  0  0
  -26.0134  -38.2837   24.1471 H   0  0  0  0  0  0
  -30.5099  -21.7521   17.9111 H   0  0  0  0  0  0
  -32.2690  -20.5687   15.8184 H   0  0  0  0  0  0
  -30.7950  -19.7556   15.2812 H   0  0  0  0  0  0
  -32.1977  -18.8021   15.7684 H   0  0  0  0  0  0
  -28.7261  -15.4102   18.4217 H   0  0  0  0  0  0
  -30.1381  -16.2703   18.0401 H   0  0  0  0  0  0
  -28.6724  -17.1381   18.5316 H   0  0  0  0  0  0
  -28.1103  -17.2911   21.1372 H   0  0  0  0  0  0
  -28.9321  -16.1610   22.2158 H   0  0  0  0  0  0
  -27.8290  -15.6148   20.9780 H   0  0  0  0  0  0
  -29.8969  -23.3679   22.5255 H   0  0  0  0  0  0
  -28.1598  -23.6251   22.3982 H   0  0  0  0  0  0
  -29.2530  -24.9989   22.4321 H   0  0  0  0  0  0
  -31.4039  -23.6155   20.4883 H   0  0  0  0  0  0
  -30.9288  -25.3006   20.4391 H   0  0  0  0  0  0
  -30.7711  -24.3026   18.9986 H   0  0  0  0  0  0
  -30.1870  -18.1505   21.3737 H   0  0  0  0  0  0
  -31.6156  -17.4793   20.7043 H   0  0  0  0  0  0
  -27.8899  -22.2012   20.3882 H   0  0  0  0  0  0
  -28.7781  -22.4322   18.9673 H   0  0  0  0  0  0
  -29.2166  -20.5332   21.2044 H   0  0  0  0  0  0
  -30.6724  -21.4644   21.0299 H   0  0  0  0  0  0
  -27.2293  -24.6968   20.2339 H   0  0  0  0  0  0
  -28.2326  -24.9354   18.8269 H   0  0  0  0  0  0
  -31.4736  -17.6923   17.9159 H   0  0  0  0  0  0
  1 25  1  0  0  0
  1 30  2  0  0  0
  1 83  1  0  0  0
  2  3  1  0  0  0
  2 25  1  0  0  0
  2 87  1  0  0  0
  2 88  1  0  0  0
  3  4  1  0  0  0
  3 89  1  0  0  0
  3 90  1  0  0  0
  4  5  1  0  0  0
  4 91  1  0  0  0
  4 92  1  0  0  0
  5  6  1  0  0  0
  5 26  1  0  0  0
  5 93  1  0  0  0
  6 25  1  0  0  0
  6 94  1  0  0  0
  6 95  1  0  0  0
  7  8  2  0  0  0
  7 26  1  0  0  0
  7 29  1  0  0  0
  8  9  1  0  0  0
  8 22  1  0  0  0
  9 10  1  0  0  0
  9 27  2  0  0  0
 10 11  2  0  0  0
 10 15  1  0  0  0
 11 12  1  0  0  0
 11 96  1  0  0  0
 12 13  2  0  0  0
 12 97  1  0  0  0
 13 14  1  0  0  0
 13 31  1  0  0  0
 14 15  2  0  0  0
 14 98  1  0  0  0
 15 99  1  0  0  0
 16 17  2  0  0  0
 16 21  1  0  0  0
 16 31  1  0  0  0
 17 18  1  0  0  0
 17100  1  0  0  0
 18 19  2  0  0  0
 18101  1  0  0  0
 19 20  1  0  0  0
 19 24  1  0  0  0
 20 21  2  0  0  0
 20102  1  0  0  0
 21 23  1  0  0  0
 22 28  1  0  0  0
 22 32  2  0  0  0
 26 27  1  0  0  0
 28103  1  0  0  0
 28104  1  0  0  0
 29105  1  0  0  0
 29106  1  0  0  0
 33 34  1  0  0  0
 33 66  1  0  0  0
 33 70  2  0  0  0
 34 36  1  0  0  0
 34 59  1  0  0  0
 34107  1  0  0  0
 35 44  2  0  0  0
 35 45  1  0  0  0
 35 68  1  0  0  0
 36 56  1  0  0  0
 36108  1  0  0  0
 37 39  1  0  0  0
 37 47  1  0  0  0
 37 66  1  0  0  0
 37109  1  0  0  0
 38 43  2  0  0  0
 38 46  1  0  0  0
 38 47  1  0  0  0
 39 64  1  0  0  0
 39 67  2  0  0  0
 40 52  1  0  0  0
 40 53  2  0  0  0
 40 58  1  0  0  0
 41110  1  0  0  0
 41111  1  0  0  0
 41112  1  0  0  0
 41 48  1  0  0  0
 42 43  1  0  0  0
 42 66  1  0  0  0
 42113  1  0  0  0
 42114  1  0  0  0
 43 44  1  0  0  0
 44115  1  0  0  0
 45 46  2  0  0  0
 45116  1  0  0  0
 46117  1  0  0  0
 47118  1  0  0  0
 47119  1  0  0  0
 48 56  1  0  0  0
 48 65  1  0  0  0
 48120  1  0  0  0
 49 50  1  0  0  0
 49 53  1  0  0  0
 49 64  1  0  0  0
 49121  1  0  0  0
 50 51  1  0  0  0
 50122  1  0  0  0
 50123  1  0  0  0
 51 52  1  0  0  0
 51124  1  0  0  0
 51125  1  0  0  0
 52126  1  0  0  0
 52127  1  0  0  0
 53 54  1  0  0  0
 54 55  2  0  0  0
 54128  1  0  0  0
 55 57  1  0  0  0
 55129  1  0  0  0
 56 69  2  0  0  0
 57 58  2  0  0  0
 57130  1  0  0  0
 58131  1  0  0  0
 59 60  1  0  0  0
 59 61  1  0  0  0
 59 62  1  0  0  0
 60132  1  0  0  0
 60133  1  0  0  0
 60134  1  0  0  0
 61135  1  0  0  0
 61136  1  0  0  0
 61137  1  0  0  0
 62138  1  0  0  0
 62139  1  0  0  0
 62140  1  0  0  0
 63 65  1  0  0  0
 63141  1  0  0  0
 63142  1  0  0  0
 63143  1  0  0  0
 64144  1  0  0  0
 65145  1  0  0  0
 68 82  1  0  0  0
 71 72  2  0  0  0
 71 85  1  0  0  0
 71146  1  0  0  0
 72 74  1  0  0  0
 72 86  1  0  0  0
 73 79  1  0  0  0
 73 85  1  0  0  0
 73 86  2  0  0  0
 74147  1  0  0  0
 74148  1  0  0  0
 74149  1  0  0  0
 75150  1  0  0  0
 75151  1  0  0  0
 75152  1  0  0  0
 75 83  1  0  0  0
 76 83  1  0  0  0
 76153  1  0  0  0
 76154  1  0  0  0
 76155  1  0  0  0
 77156  1  0  0  0
 77157  1  0  0  0
 77158  1  0  0  0
 77 84  1  0  0  0
 78 84  1  0  0  0
 78159  1  0  0  0
 78160  1  0  0  0
 78161  1  0  0  0
 79 83  1  0  0  0
 79162  1  0  0  0
 79163  1  0  0  0
 80 81  1  0  0  0
 80 84  1  0  0  0
 80164  1  0  0  0
 80165  1  0  0  0
 81 85  1  0  0  0
 81166  1  0  0  0
 81167  1  0  0  0
 82 84  1  0  0  0
 82168  1  0  0  0
 82169  1  0  0  0
 86170  1  0  0  0
M  CHG  1  86   1
M  ISO  4   1 100  68 101  82 101  83 100
M  END
> <chiral flag>
0

> <version>
0

> <s_m_source_file>
/data/baiqing/PycharmProjects/Reinvent-master-3.2/result/LINK_invent/BTK/process_docking_weight1_custom_sum_contain_oxygen_bond_distance_aromatic_linkinvent_7_9_3/rearranged_h_0075.sdf

> <i_m_source_file_index>
98

> <r_mmod_Potential_Energy-OPLS-2005>
277.281188964844

> <r_mmod_Stretch_Energy-OPLS-2005>
133.769485473633

> <r_mmod_Bend_Energy-OPLS-2005>
204.915344238281

> <r_mmod_Torsional_Energy-OPLS-2005>
248.484985351562

> <r_mmod_Improper_Torsional_Energy-OPLS-2005>
9.49520301818848

> <r_mmod_Van_der_Waal_Energy-OPLS-2005>
138.616958618164

> <r_mmod_Electrostatic_Energy-OPLS-2005>
-172.060485839844

> <r_mmod_Solvation_Energy-OPLS-2005>
-377.22119140625

> <b_mmod_Minimization_Converged-OPLS-2005>
0

> <r_mmod_RMS_Derivative-OPLS-2005>
4.36095476150513

$$$$
99
                    3D
 Structure written by MMmdl.
184192  0  0  1  0            999 V2000
  -30.5673  -14.9339   20.4561 C   0  0  0  0  0  0
  -30.4205  -12.5789   19.4970 C   0  0  0  0  0  0
  -29.5078  -12.5389   18.2499 C   0  0  0  0  0  0
  -28.0340  -12.3506   18.6514 C   0  0  0  0  0  0
  -27.6244  -13.2560   19.8437 C   0  0  2  0  0  0
  -28.6671  -13.1989   20.9774 C   0  0  0  0  0  0
  -25.2362  -13.8257   20.5678 C   0  0  0  0  0  0
  -24.1676  -13.0454   20.9231 C   0  0  0  0  0  0
  -24.6315  -11.6952   20.8724 C   0  0  0  0  0  0
  -23.8998  -10.4314   21.0384 C   0  0  0  0  0  0
  -24.3561   -9.4248   21.9164 C   0  0  0  0  0  0
  -23.6277   -8.2265   22.0741 C   0  0  0  0  0  0
  -22.4277   -8.0259   21.3524 C   0  0  0  0  0  0
  -21.9875   -9.0225   20.4637 C   0  0  0  0  0  0
  -22.7158  -10.2138   20.3038 C   0  0  0  0  0  0
  -21.6888   -6.0716   22.5255 C   0  0  0  0  0  0
  -21.4033   -6.5634   23.8173 C   0  0  0  0  0  0
  -21.3653   -5.6793   24.9146 C   0  0  0  0  0  0
  -21.6041   -4.3051   24.7205 C   0  0  0  0  0  0
  -21.8834   -3.8135   23.4330 C   0  0  0  0  0  0
  -21.9198   -4.6948   22.3380 C   0  0  0  0  0  0
  -22.7702  -13.5217   21.1886 C   0  0  0  0  0  0
  -22.1672   -4.2119   21.0971 F   0  0  0  0  0  0
  -21.5612   -3.4536   25.7726 F   0  0  0  0  0  0
  -29.9493  -13.6685   20.4186 N   0  0  0  0  0  0
  -26.2795  -12.9486   20.3222 N   0  0  0  0  0  0
  -25.9238  -11.6604   20.5699 N   0  0  0  0  0  0
  -22.0355  -12.8191   22.0458 N   0  0  0  0  0  0
  -25.4030  -15.1962   20.4108 N   0  0  0  0  0  0
  -31.6750  -14.9532   19.8995 O   0  0  0  0  0  0
  -21.6676   -6.8837   21.4202 O   0  0  0  0  0  0
  -22.3338  -14.5473   20.6712 O   0  0  0  0  0  0
  -24.6473  -31.8433   23.1862 C   0  0  0  0  0  0
  -25.9197  -32.4725   23.8301 C   0  0  1  0  0  0
  -27.2110  -27.0941   20.1456 C   0  0  0  0  0  0
  -25.5916  -33.8534   24.2237 N   0  0  0  0  0  0
  -23.4567  -30.4585   21.5342 C   0  0  2  0  0  0
  -24.9045  -28.8788   20.1088 C   0  0  0  0  0  0
  -22.7608  -29.4529   22.4871 C   0  0  0  0  0  0
  -18.0318  -28.1399   22.8497 C   0  0  0  0  0  0
  -24.1486  -36.7249   23.2656 C   0  0  0  0  0  0
  -26.0158  -30.6946   21.3981 C   0  0  0  0  0  0
  -26.0802  -29.3024   20.7376 C   0  0  0  0  0  0
  -27.2292  -28.4215   20.7469 C   0  0  0  0  0  0
  -26.0059  -26.7783   19.4803 C   0  0  0  0  0  0
  -24.8822  -27.6324   19.4661 C   0  0  0  0  0  0
  -23.6842  -29.7857   20.1543 C   0  0  0  0  0  0
  -25.4123  -36.3088   24.0359 C   0  0  1  0  0  0
  -20.5935  -28.3740   23.1237 C   0  0  2  0  0  0
  -20.6800  -26.9436   22.5407 C   0  0  0  0  0  0
  -19.5762  -26.6386   21.5227 C   0  0  0  0  0  0
  -18.1949  -26.7942   22.1633 C   0  0  0  0  0  0
  -19.1573  -28.8882   23.2863 C   0  0  0  0  0  0
  -18.9474  -30.1470   23.8907 C   0  0  0  0  0  0
  -17.6462  -30.6591   24.0559 C   0  0  0  0  0  0
  -25.9064  -34.9442   23.5129 C   0  0  0  0  0  0
  -16.5365  -29.9082   23.6318 C   0  0  0  0  0  0
  -16.7301  -28.6491   23.0377 C   0  0  0  0  0  0
  -26.4490  -31.6583   25.0740 C   0  0  0  0  0  0
  -25.3627  -31.3758   26.1396 C   0  0  0  0  0  0
  -27.0364  -30.2988   24.6325 C   0  0  0  0  0  0
  -27.6069  -32.4325   25.7474 C   0  0  0  0  0  0
  -27.5604  -37.1787   24.8474 C   0  0  0  0  0  0
  -21.4293  -29.3058   22.3607 N   0  0  0  0  0  0
  -26.4314  -37.3779   23.9424 N   0  0  0  0  0  0
  -24.7275  -31.0218   22.0944 N   0  0  0  0  0  0
  -23.4222  -28.8079   23.3049 O   0  0  0  0  0  0
  -28.2599  -26.1018   20.2538 O   0  0  0  0  0  0
  -26.5655  -34.8931   22.4716 O   0  0  0  0  0  0
  -23.5566  -32.1348   23.7006 O   0  0  0  0  0  0
  -28.1481  -19.1140   19.4286 C   0  0  0  0  0  0
  -29.0431  -20.0895   19.8953 C   0  0  0  0  0  0
  -29.6302  -17.7920   20.4867 C   0  0  0  0  0  0
  -24.2822  -19.3790   19.1893 C   0  0  0  0  0  0
  -30.5833  -22.1073   19.1509 C   0  0  0  0  0  0
  -28.3950  -21.9231   18.1629 C   0  0  0  0  0  0
  -29.1077  -16.1107   22.3378 C   0  0  0  0  0  0
  -31.4673  -16.6031   22.0125 C   0  0  0  0  0  0
  -29.1189  -20.3921   23.1467 C   0  0  0  0  0  0
  -31.2936  -19.5412   24.0092 C   0  0  0  0  0  0
  -31.2161  -21.7680   22.9792 C   0  0  0  0  0  0
  -26.8106  -19.2255   18.7402 C   0  0  0  0  0  0
  -25.6939  -19.3964   19.7838 C   0  0  0  0  0  0
  -28.5224  -23.1048   20.3580 C   0  0  0  0  0  0
  -31.0249  -19.7276   21.4732 C   0  0  0  0  0  0
  -28.2834  -24.6473   19.6564 C   0  0  0  0  0  0
  -29.1196  -21.7460   19.5115 C   0  0  0  0  0  0
  -30.1495  -16.3763   21.2334 C   0  0  0  0  0  0
  -30.6398  -20.3417   22.8686 C   0  0  0  0  0  0
  -28.5375  -17.7893   19.7313 N   0  0  0  0  0  0
  -29.9358  -19.1866   20.6588 N   0  0  0  0  0  0
  -31.4561  -12.7052   19.1809 H   0  0  0  0  0  0
  -30.4075  -11.6111   20.0007 H   0  0  0  0  0  0
  -29.8186  -11.7303   17.5860 H   0  0  0  0  0  0
  -29.6161  -13.4657   17.6836 H   0  0  0  0  0  0
  -27.9021  -11.3016   18.9193 H   0  0  0  0  0  0
  -27.3760  -12.5275   17.7987 H   0  0  0  0  0  0
  -27.6135  -14.2808   19.4685 H   0  0  0  0  0  0
  -28.7467  -12.1699   21.3301 H   0  0  0  0  0  0
  -28.3325  -13.7505   21.8467 H   0  0  0  0  0  0
  -25.2681   -9.5792   22.4747 H   0  0  0  0  0  0
  -24.0029   -7.4669   22.7456 H   0  0  0  0  0  0
  -21.0809   -8.8693   19.8942 H   0  0  0  0  0  0
  -22.3541  -10.9667   19.6165 H   0  0  0  0  0  0
  -21.2063   -7.6148   23.9658 H   0  0  0  0  0  0
  -21.1446   -6.0535   25.9034 H   0  0  0  0  0  0
  -22.0623   -2.7598   23.2842 H   0  0  0  0  0  0
  -22.4042  -11.9953   22.4968 H   0  0  0  0  0  0
  -21.0906  -13.1119   22.2531 H   0  0  0  0  0  0
  -24.6405  -15.8522   20.5343 H   0  0  0  0  0  0
  -26.2500  -15.6360   20.0699 H   0  0  0  0  0  0
  -26.7270  -32.5321   23.1036 H   0  0  0  0  0  0
  -25.0040  -33.9645   25.0375 H   0  0  0  0  0  0
  -22.7638  -31.2870   21.3763 H   0  0  0  0  0  0
  -23.3806  -35.9521   23.3305 H   0  0  0  0  0  0
  -24.3578  -36.8872   22.2070 H   0  0  0  0  0  0
  -23.7143  -37.6417   23.6663 H   0  0  0  0  0  0
  -26.1799  -31.4404   20.6193 H   0  0  0  0  0  0
  -26.8863  -30.7495   22.0419 H   0  0  0  0  0  0
  -28.1194  -28.7238   21.2799 H   0  0  0  0  0  0
  -25.8699  -25.8221   19.0021 H   0  0  0  0  0  0
  -23.9829  -27.3013   18.9653 H   0  0  0  0  0  0
  -23.8197  -30.5593   19.3974 H   0  0  0  0  0  0
  -22.7988  -29.2261   19.8475 H   0  0  0  0  0  0
  -25.1295  -36.1987   25.0854 H   0  0  0  0  0  0
  -21.0034  -28.3327   24.1353 H   0  0  0  0  0  0
  -20.5716  -26.2351   23.3636 H   0  0  0  0  0  0
  -21.6665  -26.7441   22.1190 H   0  0  0  0  0  0
  -19.6924  -25.6290   21.1271 H   0  0  0  0  0  0
  -19.6697  -27.3187   20.6753 H   0  0  0  0  0  0
  -17.4224  -26.6727   21.4026 H   0  0  0  0  0  0
  -18.0317  -26.0081   22.9018 H   0  0  0  0  0  0
  -19.7938  -30.7286   24.2316 H   0  0  0  0  0  0
  -17.5001  -31.6276   24.5151 H   0  0  0  0  0  0
  -15.5357  -30.2984   23.7620 H   0  0  0  0  0  0
  -15.8705  -28.0777   22.7129 H   0  0  0  0  0  0
  -24.5849  -30.7088   25.7655 H   0  0  0  0  0  0
  -24.8730  -32.2909   26.4735 H   0  0  0  0  0  0
  -25.7833  -30.8960   27.0237 H   0  0  0  0  0  0
  -26.2988  -29.6707   24.1316 H   0  0  0  0  0  0
  -27.3976  -29.7304   25.4902 H   0  0  0  0  0  0
  -27.8901  -30.4273   23.9670 H   0  0  0  0  0  0
  -27.2758  -33.3683   26.1988 H   0  0  0  0  0  0
  -28.3859  -32.6783   25.0242 H   0  0  0  0  0  0
  -28.0756  -31.8472   26.5393 H   0  0  0  0  0  0
  -28.2627  -38.0086   24.7569 H   0  0  0  0  0  0
  -28.1107  -36.2625   24.6262 H   0  0  0  0  0  0
  -27.2326  -37.1386   25.8878 H   0  0  0  0  0  0
  -20.9534  -29.8753   21.6749 H   0  0  0  0  0  0
  -26.0226  -38.2885   24.1376 H   0  0  0  0  0  0
  -23.5380  -19.4517   19.9824 H   0  0  0  0  0  0
  -24.0967  -18.4521   18.6473 H   0  0  0  0  0  0
  -24.1243  -20.2109   18.5018 H   0  0  0  0  0  0
  -31.0532  -21.3481   18.5224 H   0  0  0  0  0  0
  -31.2110  -22.2698   20.0205 H   0  0  0  0  0  0
  -30.6518  -23.0428   18.5964 H   0  0  0  0  0  0
  -28.6527  -21.1264   17.4659 H   0  0  0  0  0  0
  -28.6484  -22.8550   17.6564 H   0  0  0  0  0  0
  -27.3158  -21.9576   18.3020 H   0  0  0  0  0  0
  -29.3872  -15.2751   22.9798 H   0  0  0  0  0  0
  -28.1226  -15.9244   21.9093 H   0  0  0  0  0  0
  -29.0021  -16.9806   22.9887 H   0  0  0  0  0  0
  -31.3469  -17.3070   22.8129 H   0  0  0  0  0  0
  -32.2651  -16.9477   21.3542 H   0  0  0  0  0  0
  -31.8363  -15.7012   22.5055 H   0  0  0  0  0  0
  -28.9240  -20.7818   24.1479 H   0  0  0  0  0  0
  -28.6574  -19.4041   23.0969 H   0  0  0  0  0  0
  -28.5902  -21.0344   22.4426 H   0  0  0  0  0  0
  -31.3429  -20.1101   24.9364 H   0  0  0  0  0  0
  -32.3170  -19.2633   23.7611 H   0  0  0  0  0  0
  -30.7252  -18.6434   24.2467 H   0  0  0  0  0  0
  -31.0281  -22.1893   23.9669 H   0  0  0  0  0  0
  -30.7772  -22.4490   22.2583 H   0  0  0  0  0  0
  -32.2946  -21.7871   22.8229 H   0  0  0  0  0  0
  -26.6228  -18.3194   18.1613 H   0  0  0  0  0  0
  -26.7622  -19.9974   17.9812 H   0  0  0  0  0  0
  -25.7677  -18.5935   20.5186 H   0  0  0  0  0  0
  -25.8533  -20.3230   20.3348 H   0  0  0  0  0  0
  -27.5542  -22.8086   20.7616 H   0  0  0  0  0  0
  -29.1356  -23.2582   21.2407 H   0  0  0  0  0  0
  -31.8155  -18.9988   21.5594 H   0  0  0  0  0  0
  -31.5468  -20.4547   20.8690 H   0  0  0  0  0  0
  -27.4430  -24.5247   18.9778 H   0  0  0  0  0  0
  -29.1244  -24.7395   18.9706 H   0  0  0  0  0  0
  1 25  1  0  0  0
  1 30  2  0  0  0
  1 88  1  0  0  0
  2  3  1  0  0  0
  2 25  1  0  0  0
  2 92  1  0  0  0
  2 93  1  0  0  0
  3  4  1  0  0  0
  3 94  1  0  0  0
  3 95  1  0  0  0
  4  5  1  0  0  0
  4 96  1  0  0  0
  4 97  1  0  0  0
  5  6  1  0  0  0
  5 26  1  0  0  0
  5 98  1  0  0  0
  6 25  1  0  0  0
  6 99  1  0  0  0
  6100  1  0  0  0
  7  8  2  0  0  0
  7 26  1  0  0  0
  7 29  1  0  0  0
  8  9  1  0  0  0
  8 22  1  0  0  0
  9 10  1  0  0  0
  9 27  2  0  0  0
 10 11  2  0  0  0
 10 15  1  0  0  0
 11 12  1  0  0  0
 11101  1  0  0  0
 12 13  2  0  0  0
 12102  1  0  0  0
 13 14  1  0  0  0
 13 31  1  0  0  0
 14 15  2  0  0  0
 14103  1  0  0  0
 15104  1  0  0  0
 16 17  2  0  0  0
 16 21  1  0  0  0
 16 31  1  0  0  0
 17 18  1  0  0  0
 17105  1  0  0  0
 18 19  2  0  0  0
 18106  1  0  0  0
 19 20  1  0  0  0
 19 24  1  0  0  0
 20 21  2  0  0  0
 20107  1  0  0  0
 21 23  1  0  0  0
 22 28  1  0  0  0
 22 32  2  0  0  0
 26 27  1  0  0  0
 28108  1  0  0  0
 28109  1  0  0  0
 29110  1  0  0  0
 29111  1  0  0  0
 33 34  1  0  0  0
 33 66  1  0  0  0
 33 70  2  0  0  0
 34 36  1  0  0  0
 34 59  1  0  0  0
 34112  1  0  0  0
 35 44  2  0  0  0
 35 45  1  0  0  0
 35 68  1  0  0  0
 36 56  1  0  0  0
 36113  1  0  0  0
 37 39  1  0  0  0
 37 47  1  0  0  0
 37 66  1  0  0  0
 37114  1  0  0  0
 38 43  2  0  0  0
 38 46  1  0  0  0
 38 47  1  0  0  0
 39 64  1  0  0  0
 39 67  2  0  0  0
 40 52  1  0  0  0
 40 53  2  0  0  0
 40 58  1  0  0  0
 41115  1  0  0  0
 41116  1  0  0  0
 41117  1  0  0  0
 41 48  1  0  0  0
 42 43  1  0  0  0
 42 66  1  0  0  0
 42118  1  0  0  0
 42119  1  0  0  0
 43 44  1  0  0  0
 44120  1  0  0  0
 45 46  2  0  0  0
 45121  1  0  0  0
 46122  1  0  0  0
 47123  1  0  0  0
 47124  1  0  0  0
 48 56  1  0  0  0
 48 65  1  0  0  0
 48125  1  0  0  0
 49 50  1  0  0  0
 49 53  1  0  0  0
 49 64  1  0  0  0
 49126  1  0  0  0
 50 51  1  0  0  0
 50127  1  0  0  0
 50128  1  0  0  0
 51 52  1  0  0  0
 51129  1  0  0  0
 51130  1  0  0  0
 52131  1  0  0  0
 52132  1  0  0  0
 53 54  1  0  0  0
 54 55  2  0  0  0
 54133  1  0  0  0
 55 57  1  0  0  0
 55134  1  0  0  0
 56 69  2  0  0  0
 57 58  2  0  0  0
 57135  1  0  0  0
 58136  1  0  0  0
 59 60  1  0  0  0
 59 61  1  0  0  0
 59 62  1  0  0  0
 60137  1  0  0  0
 60138  1  0  0  0
 60139  1  0  0  0
 61140  1  0  0  0
 61141  1  0  0  0
 61142  1  0  0  0
 62143  1  0  0  0
 62144  1  0  0  0
 62145  1  0  0  0
 63 65  1  0  0  0
 63146  1  0  0  0
 63147  1  0  0  0
 63148  1  0  0  0
 64149  1  0  0  0
 65150  1  0  0  0
 68 86  1  0  0  0
 71 72  2  0  0  0
 71 82  1  0  0  0
 71 90  1  0  0  0
 72 87  1  0  0  0
 72 91  1  0  0  0
 73 88  1  0  0  0
 73 90  2  0  0  0
 73 91  1  0  0  0
 74 83  1  0  0  0
 74151  1  0  0  0
 74152  1  0  0  0
 74153  1  0  0  0
 75154  1  0  0  0
 75155  1  0  0  0
 75156  1  0  0  0
 75 87  1  0  0  0
 76 87  1  0  0  0
 76157  1  0  0  0
 76158  1  0  0  0
 76159  1  0  0  0
 77160  1  0  0  0
 77161  1  0  0  0
 77162  1  0  0  0
 77 88  1  0  0  0
 78 88  1  0  0  0
 78163  1  0  0  0
 78164  1  0  0  0
 78165  1  0  0  0
 79166  1  0  0  0
 79167  1  0  0  0
 79168  1  0  0  0
 79 89  1  0  0  0
 80 89  1  0  0  0
 80169  1  0  0  0
 80170  1  0  0  0
 80171  1  0  0  0
 81 89  1  0  0  0
 81172  1  0  0  0
 81173  1  0  0  0
 81174  1  0  0  0
 82 83  1  0  0  0
 82175  1  0  0  0
 82176  1  0  0  0
 83177  1  0  0  0
 83178  1  0  0  0
 84 86  1  0  0  0
 84 87  1  0  0  0
 84179  1  0  0  0
 84180  1  0  0  0
 85 89  1  0  0  0
 85 91  1  0  0  0
 85181  1  0  0  0
 85182  1  0  0  0
 86183  1  0  0  0
 86184  1  0  0  0
M  ISO  4   1 100  68 101  86 101  88 100
M  END
> <chiral flag>
0

> <version>
0

> <s_m_source_file>
/data/baiqing/PycharmProjects/Reinvent-master-3.2/result/LINK_invent/BTK/process_docking_weight1_custom_sum_contain_oxygen_bond_distance_aromatic_linkinvent_7_9_3/rearranged_h_0075.sdf

> <i_m_source_file_index>
99

> <r_mmod_Potential_Energy-OPLS-2005>
885.868530273438

> <r_mmod_Stretch_Energy-OPLS-2005>
366.084503173828

> <r_mmod_Bend_Energy-OPLS-2005>
419.260375976562

> <r_mmod_Torsional_Energy-OPLS-2005>
234.25471496582

> <r_mmod_Improper_Torsional_Energy-OPLS-2005>
5.53144598007202

> <r_mmod_Van_der_Waal_Energy-OPLS-2005>
147.546615600586

> <r_mmod_Electrostatic_Energy-OPLS-2005>
-310.9541015625

> <r_mmod_Solvation_Energy-OPLS-2005>
-173.721389770508

> <b_mmod_Minimization_Converged-OPLS-2005>
0

> <r_mmod_RMS_Derivative-OPLS-2005>
4.6799259185791

$$$$
